data_str_m2_o2_o5_pcu_sym.102
_audit_creation_date              2020-01-03
_audit_creation_method            'Materials Studio'
_symmetry_space_group_name_H-M    'P1'
_symmetry_Int_Tables_number       1
_symmetry_cell_setting            triclinic
loop_
_symmetry_equiv_pos_as_xyz
  x,y,z
_cell_length_a                    30.2055
_cell_length_b                    27.6764
_cell_length_c                    27.1437
_cell_angle_alpha                 90.0017
_cell_angle_beta                  89.9972
_cell_angle_gamma                 89.9999
loop_
_atom_site_label
_atom_site_type_symbol
_atom_site_fract_x
_atom_site_fract_y
_atom_site_fract_z
_atom_site_U_iso_or_equiv
_atom_site_adp_type
_atom_site_occupancy
C1     C     0.16492   0.25000   0.16667   0.00000  Uiso   1.00
C2     C     0.26521   0.44640   0.20759   0.00000  Uiso   1.00
C3     C     0.25000   0.25000   0.07350   0.00000  Uiso   1.00
C4     C     0.25000   0.25000   0.25983   0.00000  Uiso   1.00
C5     C     0.25000   0.02722   0.16667   0.00000  Uiso   1.00
C6     C     0.25000   0.47278   0.16667   0.00000  Uiso   1.00
C7     C     0.24999   0.25000   0.02185   0.00000  Uiso   1.00
C8     C     0.24999   0.25000   0.31148   0.00000  Uiso   1.00
C9     C     0.04682   0.28581   0.19247   0.00000  Uiso   1.00
C10    C     0.45318   0.21426   0.19256   0.00000  Uiso   1.00
C11    C     0.45319   0.28574   0.14084   0.00000  Uiso   1.00
C12    C     0.33508   0.25000   0.16667   0.00000  Uiso   1.00
C13    C     0.04681   0.21420   0.14093   0.00000  Uiso   1.00
C14    C     0.09293   0.28564   0.19364   0.00000  Uiso   1.00
C15    C     0.40706   0.21443   0.19372   0.00000  Uiso   1.00
C16    C     0.40707   0.28557   0.13965   0.00000  Uiso   1.00
C17    C     0.09292   0.21437   0.13973   0.00000  Uiso   1.00
C18    C     0.11641   0.25000   0.16668   0.00000  Uiso   1.00
C19    C     0.38359   0.25000   0.16667   0.00000  Uiso   1.00
C20    C     0.02403   0.25000   0.16671   0.00000  Uiso   1.00
C21    C     0.47597   0.25001   0.16671   0.00000  Uiso   1.00
C22    C     0.11568   0.32194   0.22471   0.00000  Uiso   1.00
C23    C     0.23468   0.10448   0.20669   0.00000  Uiso   1.00
C24    C     0.13846   0.30752   0.26739   0.00000  Uiso   1.00
C25    C     0.16172   0.34153   0.29537   0.00000  Uiso   1.00
C26    C     0.16255   0.38997   0.28082   0.00000  Uiso   1.00
C27    C     0.13977   0.40458   0.23853   0.00000  Uiso   1.00
C28    C     0.11617   0.37076   0.21065   0.00000  Uiso   1.00
C29    C     0.38430   0.17822   0.22488   0.00000  Uiso   1.00
C30    C     0.36167   0.19273   0.26763   0.00000  Uiso   1.00
C31    C     0.33842   0.15881   0.29572   0.00000  Uiso   1.00
C32    C     0.33742   0.11037   0.28120   0.00000  Uiso   1.00
C33    C     0.36003   0.09566   0.23883   0.00000  Uiso   1.00
C34    C     0.23458   0.39552   0.12669   0.00000  Uiso   1.00
C35    C     0.38364   0.12940   0.21085   0.00000  Uiso   1.00
C36    C     0.38433   0.32178   0.10846   0.00000  Uiso   1.00
C37    C     0.36164   0.30724   0.06576   0.00000  Uiso   1.00
C38    C     0.33840   0.34116   0.03765   0.00000  Uiso   1.00
C39    C     0.33749   0.38963   0.05210   0.00000  Uiso   1.00
C40    C     0.36017   0.40435   0.09442   0.00000  Uiso   1.00
C41    C     0.38376   0.37062   0.12242   0.00000  Uiso   1.00
C42    C     0.11566   0.17808   0.10862   0.00000  Uiso   1.00
C43    C     0.13849   0.19254   0.06598   0.00000  Uiso   1.00
C44    C     0.16169   0.15854   0.03793   0.00000  Uiso   1.00
C45    C     0.26531   0.10447   0.12664   0.00000  Uiso   1.00
C46    C     0.16243   0.11007   0.05238   0.00000  Uiso   1.00
C47    C     0.13960   0.09542   0.09463   0.00000  Uiso   1.00
C48    C     0.11605   0.12924   0.12257   0.00000  Uiso   1.00
C49    C     0.26542   0.39552   0.20664   0.00000  Uiso   1.00
C50    C     0.23489   0.05360   0.20764   0.00000  Uiso   1.00
C51    C     0.23478   0.44639   0.12574   0.00000  Uiso   1.00
C52    C     0.26510   0.05360   0.12569   0.00000  Uiso   1.00
Cu53   Cu    0.25000   0.29822   0.16667   0.00000  Uiso   1.00
Cu54   Cu    0.25000   0.20179   0.16667   0.00000  Uiso   1.00
H55    H     0.22212   0.12388   0.23828   0.00000  Uiso   1.00
H56    H     0.22235   0.46498   0.09347   0.00000  Uiso   1.00
H57    H     0.27744   0.03501   0.09338   0.00000  Uiso   1.00
H58    H     0.27764   0.46499   0.23986   0.00000  Uiso   1.00
H59    H     0.13855   0.26996   0.27863   0.00000  Uiso   1.00
H60    H     0.17935   0.33029   0.32814   0.00000  Uiso   1.00
H61    H     0.18090   0.41616   0.30226   0.00000  Uiso   1.00
H62    H     0.14060   0.44207   0.22722   0.00000  Uiso   1.00
H63    H     0.09905   0.38236   0.17766   0.00000  Uiso   1.00
H64    H     0.36171   0.23030   0.27885   0.00000  Uiso   1.00
H65    H     0.32091   0.17013   0.32855   0.00000  Uiso   1.00
H66    H     0.22193   0.37612   0.09515   0.00000  Uiso   1.00
H67    H     0.31906   0.08424   0.30273   0.00000  Uiso   1.00
H68    H     0.35907   0.05817   0.22753   0.00000  Uiso   1.00
H69    H     0.40065   0.11772   0.17779   0.00000  Uiso   1.00
H70    H     0.36161   0.26965   0.05460   0.00000  Uiso   1.00
H71    H     0.32085   0.32983   0.00486   0.00000  Uiso   1.00
H72    H     0.31916   0.41576   0.03056   0.00000  Uiso   1.00
H73    H     0.35928   0.44187   0.10566   0.00000  Uiso   1.00
H74    H     0.40081   0.38231   0.15543   0.00000  Uiso   1.00
H75    H     0.13864   0.23012   0.05481   0.00000  Uiso   1.00
H76    H     0.17936   0.16981   0.00520   0.00000  Uiso   1.00
H77    H     0.27788   0.12387   0.09505   0.00000  Uiso   1.00
H78    H     0.18074   0.08388   0.03089   0.00000  Uiso   1.00
H79    H     0.14036   0.05790   0.10587   0.00000  Uiso   1.00
H80    H     0.09888   0.11760   0.15553   0.00000  Uiso   1.00
H81    H     0.27807   0.37612   0.23819   0.00000  Uiso   1.00
H82    H     0.02855   0.31303   0.21280   0.00000  Uiso   1.00
H83    H     0.47144   0.18709   0.21297   0.00000  Uiso   1.00
H84    H     0.47146   0.31291   0.12044   0.00000  Uiso   1.00
H85    H     0.02854   0.18698   0.12061   0.00000  Uiso   1.00
H86    H     0.22255   0.03502   0.23995   0.00000  Uiso   1.00
N87    N     0.25000   0.12935   0.16667   0.00000  Uiso   1.00
N88    N     0.25000   0.37066   0.16667   0.00000  Uiso   1.00
O89    O     0.18573   0.29072   0.16667   0.00000  Uiso   1.00
O90    O     0.31427   0.20929   0.16666   0.00000  Uiso   1.00
O91    O     0.31427   0.29072   0.16666   0.00000  Uiso   1.00
O92    O     0.18573   0.20929   0.16667   0.00000  Uiso   1.00
O93    O     0.25000   0.29071   0.09613   0.00000  Uiso   1.00
O94    O     0.25000   0.20929   0.23720   0.00000  Uiso   1.00
O95    O     0.25000   0.29071   0.23720   0.00000  Uiso   1.00
O96    O     0.25000   0.20929   0.09613   0.00000  Uiso   1.00
C97    C     0.66492   0.25000   0.16667   0.00000  Uiso   1.00
C98    C     0.76521   0.44640   0.20759   0.00000  Uiso   1.00
C99    C     0.75000   0.25000   0.07350   0.00000  Uiso   1.00
C100   C     0.75000   0.25000   0.25983   0.00000  Uiso   1.00
C101   C     0.75000   0.02722   0.16667   0.00000  Uiso   1.00
C102   C     0.75000   0.47278   0.16667   0.00000  Uiso   1.00
C103   C     0.74999   0.25000   0.02185   0.00000  Uiso   1.00
C104   C     0.74999   0.25000   0.31148   0.00000  Uiso   1.00
C105   C     0.54682   0.28581   0.19247   0.00000  Uiso   1.00
C106   C     0.95318   0.21426   0.19256   0.00000  Uiso   1.00
C107   C     0.95319   0.28574   0.14084   0.00000  Uiso   1.00
C108   C     0.83508   0.25000   0.16667   0.00000  Uiso   1.00
C109   C     0.54681   0.21420   0.14093   0.00000  Uiso   1.00
C110   C     0.59293   0.28564   0.19364   0.00000  Uiso   1.00
C111   C     0.90706   0.21443   0.19372   0.00000  Uiso   1.00
C112   C     0.90707   0.28557   0.13965   0.00000  Uiso   1.00
C113   C     0.59292   0.21437   0.13973   0.00000  Uiso   1.00
C114   C     0.61641   0.25000   0.16668   0.00000  Uiso   1.00
C115   C     0.88359   0.25000   0.16667   0.00000  Uiso   1.00
C116   C     0.52403   0.25000   0.16671   0.00000  Uiso   1.00
C117   C     0.97597   0.25001   0.16671   0.00000  Uiso   1.00
C118   C     0.61568   0.32194   0.22471   0.00000  Uiso   1.00
C119   C     0.73468   0.10448   0.20669   0.00000  Uiso   1.00
C120   C     0.63846   0.30752   0.26739   0.00000  Uiso   1.00
C121   C     0.66172   0.34153   0.29537   0.00000  Uiso   1.00
C122   C     0.66255   0.38997   0.28082   0.00000  Uiso   1.00
C123   C     0.63977   0.40458   0.23853   0.00000  Uiso   1.00
C124   C     0.61617   0.37076   0.21065   0.00000  Uiso   1.00
C125   C     0.88430   0.17822   0.22488   0.00000  Uiso   1.00
C126   C     0.86167   0.19273   0.26763   0.00000  Uiso   1.00
C127   C     0.83842   0.15881   0.29572   0.00000  Uiso   1.00
C128   C     0.83742   0.11037   0.28120   0.00000  Uiso   1.00
C129   C     0.86003   0.09566   0.23883   0.00000  Uiso   1.00
C130   C     0.73458   0.39552   0.12669   0.00000  Uiso   1.00
C131   C     0.88364   0.12940   0.21085   0.00000  Uiso   1.00
C132   C     0.88433   0.32178   0.10846   0.00000  Uiso   1.00
C133   C     0.86164   0.30724   0.06576   0.00000  Uiso   1.00
C134   C     0.83840   0.34116   0.03765   0.00000  Uiso   1.00
C135   C     0.83749   0.38963   0.05210   0.00000  Uiso   1.00
C136   C     0.86017   0.40435   0.09442   0.00000  Uiso   1.00
C137   C     0.88376   0.37062   0.12242   0.00000  Uiso   1.00
C138   C     0.61566   0.17808   0.10862   0.00000  Uiso   1.00
C139   C     0.63849   0.19254   0.06598   0.00000  Uiso   1.00
C140   C     0.66169   0.15854   0.03793   0.00000  Uiso   1.00
C141   C     0.76531   0.10447   0.12664   0.00000  Uiso   1.00
C142   C     0.66243   0.11007   0.05238   0.00000  Uiso   1.00
C143   C     0.63960   0.09542   0.09463   0.00000  Uiso   1.00
C144   C     0.61605   0.12924   0.12257   0.00000  Uiso   1.00
C145   C     0.76542   0.39552   0.20664   0.00000  Uiso   1.00
C146   C     0.73489   0.05360   0.20764   0.00000  Uiso   1.00
C147   C     0.73478   0.44639   0.12574   0.00000  Uiso   1.00
C148   C     0.76510   0.05360   0.12569   0.00000  Uiso   1.00
Cu149  Cu    0.75000   0.29822   0.16667   0.00000  Uiso   1.00
Cu150  Cu    0.75000   0.20179   0.16667   0.00000  Uiso   1.00
H151   H     0.72212   0.12388   0.23828   0.00000  Uiso   1.00
H152   H     0.72235   0.46498   0.09347   0.00000  Uiso   1.00
H153   H     0.77744   0.03501   0.09338   0.00000  Uiso   1.00
H154   H     0.77764   0.46499   0.23986   0.00000  Uiso   1.00
H155   H     0.63855   0.26996   0.27863   0.00000  Uiso   1.00
H156   H     0.67935   0.33029   0.32814   0.00000  Uiso   1.00
H157   H     0.68090   0.41616   0.30226   0.00000  Uiso   1.00
H158   H     0.64060   0.44207   0.22722   0.00000  Uiso   1.00
H159   H     0.59905   0.38236   0.17766   0.00000  Uiso   1.00
H160   H     0.86171   0.23030   0.27885   0.00000  Uiso   1.00
H161   H     0.82091   0.17013   0.32855   0.00000  Uiso   1.00
H162   H     0.72193   0.37612   0.09515   0.00000  Uiso   1.00
H163   H     0.81906   0.08424   0.30273   0.00000  Uiso   1.00
H164   H     0.85907   0.05817   0.22753   0.00000  Uiso   1.00
H165   H     0.90065   0.11772   0.17779   0.00000  Uiso   1.00
H166   H     0.86161   0.26965   0.05460   0.00000  Uiso   1.00
H167   H     0.82085   0.32983   0.00486   0.00000  Uiso   1.00
H168   H     0.81916   0.41576   0.03056   0.00000  Uiso   1.00
H169   H     0.85928   0.44187   0.10566   0.00000  Uiso   1.00
H170   H     0.90081   0.38231   0.15543   0.00000  Uiso   1.00
H171   H     0.63864   0.23012   0.05481   0.00000  Uiso   1.00
H172   H     0.67936   0.16981   0.00520   0.00000  Uiso   1.00
H173   H     0.77788   0.12387   0.09505   0.00000  Uiso   1.00
H174   H     0.68074   0.08388   0.03089   0.00000  Uiso   1.00
H175   H     0.64036   0.05790   0.10587   0.00000  Uiso   1.00
H176   H     0.59888   0.11760   0.15553   0.00000  Uiso   1.00
H177   H     0.77807   0.37612   0.23819   0.00000  Uiso   1.00
H178   H     0.52855   0.31303   0.21280   0.00000  Uiso   1.00
H179   H     0.97144   0.18709   0.21297   0.00000  Uiso   1.00
H180   H     0.97146   0.31291   0.12044   0.00000  Uiso   1.00
H181   H     0.52854   0.18698   0.12061   0.00000  Uiso   1.00
H182   H     0.72255   0.03502   0.23995   0.00000  Uiso   1.00
N183   N     0.75000   0.12935   0.16667   0.00000  Uiso   1.00
N184   N     0.75000   0.37066   0.16667   0.00000  Uiso   1.00
O185   O     0.68573   0.29072   0.16667   0.00000  Uiso   1.00
O186   O     0.81427   0.20929   0.16666   0.00000  Uiso   1.00
O187   O     0.81427   0.29072   0.16666   0.00000  Uiso   1.00
O188   O     0.68573   0.20929   0.16667   0.00000  Uiso   1.00
O189   O     0.75000   0.29071   0.09613   0.00000  Uiso   1.00
O190   O     0.75000   0.20929   0.23720   0.00000  Uiso   1.00
O191   O     0.75000   0.29071   0.23720   0.00000  Uiso   1.00
O192   O     0.75000   0.20929   0.09613   0.00000  Uiso   1.00
C193   C     0.16492   0.75000   0.16667   0.00000  Uiso   1.00
C194   C     0.26521   0.94640   0.20759   0.00000  Uiso   1.00
C195   C     0.25000   0.75000   0.07350   0.00000  Uiso   1.00
C196   C     0.25000   0.75000   0.25983   0.00000  Uiso   1.00
C197   C     0.25000   0.52722   0.16667   0.00000  Uiso   1.00
C198   C     0.25000   0.97278   0.16667   0.00000  Uiso   1.00
C199   C     0.24999   0.75000   0.02185   0.00000  Uiso   1.00
C200   C     0.24999   0.75000   0.31148   0.00000  Uiso   1.00
C201   C     0.04682   0.78581   0.19247   0.00000  Uiso   1.00
C202   C     0.45318   0.71426   0.19256   0.00000  Uiso   1.00
C203   C     0.45319   0.78574   0.14084   0.00000  Uiso   1.00
C204   C     0.33508   0.75000   0.16667   0.00000  Uiso   1.00
C205   C     0.04681   0.71420   0.14093   0.00000  Uiso   1.00
C206   C     0.09293   0.78564   0.19364   0.00000  Uiso   1.00
C207   C     0.40706   0.71443   0.19372   0.00000  Uiso   1.00
C208   C     0.40707   0.78557   0.13965   0.00000  Uiso   1.00
C209   C     0.09292   0.71437   0.13973   0.00000  Uiso   1.00
C210   C     0.11641   0.75000   0.16668   0.00000  Uiso   1.00
C211   C     0.38359   0.75000   0.16667   0.00000  Uiso   1.00
C212   C     0.02403   0.75000   0.16671   0.00000  Uiso   1.00
C213   C     0.47597   0.75001   0.16671   0.00000  Uiso   1.00
C214   C     0.11568   0.82194   0.22471   0.00000  Uiso   1.00
C215   C     0.23468   0.60448   0.20669   0.00000  Uiso   1.00
C216   C     0.13846   0.80752   0.26739   0.00000  Uiso   1.00
C217   C     0.16172   0.84153   0.29537   0.00000  Uiso   1.00
C218   C     0.16255   0.88997   0.28082   0.00000  Uiso   1.00
C219   C     0.13977   0.90458   0.23853   0.00000  Uiso   1.00
C220   C     0.11617   0.87076   0.21065   0.00000  Uiso   1.00
C221   C     0.38430   0.67822   0.22488   0.00000  Uiso   1.00
C222   C     0.36167   0.69273   0.26763   0.00000  Uiso   1.00
C223   C     0.33842   0.65881   0.29572   0.00000  Uiso   1.00
C224   C     0.33742   0.61037   0.28120   0.00000  Uiso   1.00
C225   C     0.36003   0.59566   0.23883   0.00000  Uiso   1.00
C226   C     0.23458   0.89552   0.12669   0.00000  Uiso   1.00
C227   C     0.38364   0.62940   0.21085   0.00000  Uiso   1.00
C228   C     0.38433   0.82178   0.10846   0.00000  Uiso   1.00
C229   C     0.36164   0.80724   0.06576   0.00000  Uiso   1.00
C230   C     0.33840   0.84116   0.03765   0.00000  Uiso   1.00
C231   C     0.33749   0.88963   0.05210   0.00000  Uiso   1.00
C232   C     0.36017   0.90435   0.09442   0.00000  Uiso   1.00
C233   C     0.38376   0.87062   0.12242   0.00000  Uiso   1.00
C234   C     0.11566   0.67808   0.10862   0.00000  Uiso   1.00
C235   C     0.13849   0.69254   0.06598   0.00000  Uiso   1.00
C236   C     0.16169   0.65854   0.03793   0.00000  Uiso   1.00
C237   C     0.26531   0.60447   0.12664   0.00000  Uiso   1.00
C238   C     0.16243   0.61007   0.05238   0.00000  Uiso   1.00
C239   C     0.13960   0.59542   0.09463   0.00000  Uiso   1.00
C240   C     0.11605   0.62924   0.12257   0.00000  Uiso   1.00
C241   C     0.26542   0.89552   0.20664   0.00000  Uiso   1.00
C242   C     0.23489   0.55360   0.20764   0.00000  Uiso   1.00
C243   C     0.23478   0.94639   0.12574   0.00000  Uiso   1.00
C244   C     0.26510   0.55360   0.12569   0.00000  Uiso   1.00
Cu245  Cu    0.25000   0.79822   0.16667   0.00000  Uiso   1.00
Cu246  Cu    0.25000   0.70179   0.16667   0.00000  Uiso   1.00
H247   H     0.22212   0.62388   0.23828   0.00000  Uiso   1.00
H248   H     0.22235   0.96498   0.09347   0.00000  Uiso   1.00
H249   H     0.27744   0.53501   0.09338   0.00000  Uiso   1.00
H250   H     0.27764   0.96499   0.23986   0.00000  Uiso   1.00
H251   H     0.13855   0.76996   0.27863   0.00000  Uiso   1.00
H252   H     0.17935   0.83029   0.32814   0.00000  Uiso   1.00
H253   H     0.18090   0.91616   0.30226   0.00000  Uiso   1.00
H254   H     0.14060   0.94207   0.22722   0.00000  Uiso   1.00
H255   H     0.09905   0.88236   0.17766   0.00000  Uiso   1.00
H256   H     0.36171   0.73030   0.27885   0.00000  Uiso   1.00
H257   H     0.32091   0.67013   0.32855   0.00000  Uiso   1.00
H258   H     0.22193   0.87612   0.09515   0.00000  Uiso   1.00
H259   H     0.31906   0.58424   0.30273   0.00000  Uiso   1.00
H260   H     0.35907   0.55817   0.22753   0.00000  Uiso   1.00
H261   H     0.40065   0.61772   0.17779   0.00000  Uiso   1.00
H262   H     0.36161   0.76965   0.05460   0.00000  Uiso   1.00
H263   H     0.32085   0.82983   0.00486   0.00000  Uiso   1.00
H264   H     0.31916   0.91576   0.03056   0.00000  Uiso   1.00
H265   H     0.35928   0.94187   0.10566   0.00000  Uiso   1.00
H266   H     0.40081   0.88231   0.15543   0.00000  Uiso   1.00
H267   H     0.13864   0.73012   0.05481   0.00000  Uiso   1.00
H268   H     0.17936   0.66981   0.00520   0.00000  Uiso   1.00
H269   H     0.27788   0.62387   0.09505   0.00000  Uiso   1.00
H270   H     0.18074   0.58388   0.03089   0.00000  Uiso   1.00
H271   H     0.14036   0.55790   0.10587   0.00000  Uiso   1.00
H272   H     0.09888   0.61760   0.15553   0.00000  Uiso   1.00
H273   H     0.27807   0.87612   0.23819   0.00000  Uiso   1.00
H274   H     0.02855   0.81303   0.21280   0.00000  Uiso   1.00
H275   H     0.47144   0.68709   0.21297   0.00000  Uiso   1.00
H276   H     0.47146   0.81291   0.12044   0.00000  Uiso   1.00
H277   H     0.02854   0.68698   0.12061   0.00000  Uiso   1.00
H278   H     0.22255   0.53502   0.23995   0.00000  Uiso   1.00
N279   N     0.25000   0.62935   0.16667   0.00000  Uiso   1.00
N280   N     0.25000   0.87066   0.16667   0.00000  Uiso   1.00
O281   O     0.18573   0.79072   0.16667   0.00000  Uiso   1.00
O282   O     0.31427   0.70929   0.16666   0.00000  Uiso   1.00
O283   O     0.31427   0.79072   0.16666   0.00000  Uiso   1.00
O284   O     0.18573   0.70929   0.16667   0.00000  Uiso   1.00
O285   O     0.25000   0.79071   0.09613   0.00000  Uiso   1.00
O286   O     0.25000   0.70929   0.23720   0.00000  Uiso   1.00
O287   O     0.25000   0.79071   0.23720   0.00000  Uiso   1.00
O288   O     0.25000   0.70929   0.09613   0.00000  Uiso   1.00
C289   C     0.66492   0.75000   0.16667   0.00000  Uiso   1.00
C290   C     0.76521   0.94640   0.20759   0.00000  Uiso   1.00
C291   C     0.75000   0.75000   0.07350   0.00000  Uiso   1.00
C292   C     0.75000   0.75000   0.25983   0.00000  Uiso   1.00
C293   C     0.75000   0.52722   0.16667   0.00000  Uiso   1.00
C294   C     0.75000   0.97278   0.16667   0.00000  Uiso   1.00
C295   C     0.74999   0.75000   0.02185   0.00000  Uiso   1.00
C296   C     0.74999   0.75000   0.31148   0.00000  Uiso   1.00
C297   C     0.54682   0.78581   0.19247   0.00000  Uiso   1.00
C298   C     0.95318   0.71426   0.19256   0.00000  Uiso   1.00
C299   C     0.95319   0.78574   0.14084   0.00000  Uiso   1.00
C300   C     0.83508   0.75000   0.16667   0.00000  Uiso   1.00
C301   C     0.54681   0.71420   0.14093   0.00000  Uiso   1.00
C302   C     0.59293   0.78564   0.19364   0.00000  Uiso   1.00
C303   C     0.90706   0.71443   0.19372   0.00000  Uiso   1.00
C304   C     0.90707   0.78557   0.13965   0.00000  Uiso   1.00
C305   C     0.59292   0.71437   0.13973   0.00000  Uiso   1.00
C306   C     0.61641   0.75000   0.16668   0.00000  Uiso   1.00
C307   C     0.88359   0.75000   0.16667   0.00000  Uiso   1.00
C308   C     0.52403   0.75000   0.16671   0.00000  Uiso   1.00
C309   C     0.97597   0.75001   0.16671   0.00000  Uiso   1.00
C310   C     0.61568   0.82194   0.22471   0.00000  Uiso   1.00
C311   C     0.73468   0.60448   0.20669   0.00000  Uiso   1.00
C312   C     0.63846   0.80752   0.26739   0.00000  Uiso   1.00
C313   C     0.66172   0.84153   0.29537   0.00000  Uiso   1.00
C314   C     0.66255   0.88997   0.28082   0.00000  Uiso   1.00
C315   C     0.63977   0.90458   0.23853   0.00000  Uiso   1.00
C316   C     0.61617   0.87076   0.21065   0.00000  Uiso   1.00
C317   C     0.88430   0.67822   0.22488   0.00000  Uiso   1.00
C318   C     0.86167   0.69273   0.26763   0.00000  Uiso   1.00
C319   C     0.83842   0.65881   0.29572   0.00000  Uiso   1.00
C320   C     0.83742   0.61037   0.28120   0.00000  Uiso   1.00
C321   C     0.86003   0.59566   0.23883   0.00000  Uiso   1.00
C322   C     0.73458   0.89552   0.12669   0.00000  Uiso   1.00
C323   C     0.88364   0.62940   0.21085   0.00000  Uiso   1.00
C324   C     0.88433   0.82178   0.10846   0.00000  Uiso   1.00
C325   C     0.86164   0.80724   0.06576   0.00000  Uiso   1.00
C326   C     0.83840   0.84116   0.03765   0.00000  Uiso   1.00
C327   C     0.83749   0.88963   0.05210   0.00000  Uiso   1.00
C328   C     0.86017   0.90435   0.09442   0.00000  Uiso   1.00
C329   C     0.88376   0.87062   0.12242   0.00000  Uiso   1.00
C330   C     0.61566   0.67808   0.10862   0.00000  Uiso   1.00
C331   C     0.63849   0.69254   0.06598   0.00000  Uiso   1.00
C332   C     0.66169   0.65854   0.03793   0.00000  Uiso   1.00
C333   C     0.76531   0.60447   0.12664   0.00000  Uiso   1.00
C334   C     0.66243   0.61007   0.05238   0.00000  Uiso   1.00
C335   C     0.63960   0.59542   0.09463   0.00000  Uiso   1.00
C336   C     0.61605   0.62924   0.12257   0.00000  Uiso   1.00
C337   C     0.76542   0.89552   0.20664   0.00000  Uiso   1.00
C338   C     0.73489   0.55360   0.20764   0.00000  Uiso   1.00
C339   C     0.73478   0.94639   0.12574   0.00000  Uiso   1.00
C340   C     0.76510   0.55360   0.12569   0.00000  Uiso   1.00
Cu341  Cu    0.75000   0.79822   0.16667   0.00000  Uiso   1.00
Cu342  Cu    0.75000   0.70179   0.16667   0.00000  Uiso   1.00
H343   H     0.72212   0.62388   0.23828   0.00000  Uiso   1.00
H344   H     0.72235   0.96498   0.09347   0.00000  Uiso   1.00
H345   H     0.77744   0.53501   0.09338   0.00000  Uiso   1.00
H346   H     0.77764   0.96499   0.23986   0.00000  Uiso   1.00
H347   H     0.63855   0.76996   0.27863   0.00000  Uiso   1.00
H348   H     0.67935   0.83029   0.32814   0.00000  Uiso   1.00
H349   H     0.68090   0.91616   0.30226   0.00000  Uiso   1.00
H350   H     0.64060   0.94207   0.22722   0.00000  Uiso   1.00
H351   H     0.59905   0.88236   0.17766   0.00000  Uiso   1.00
H352   H     0.86171   0.73030   0.27885   0.00000  Uiso   1.00
H353   H     0.82091   0.67013   0.32855   0.00000  Uiso   1.00
H354   H     0.72193   0.87612   0.09515   0.00000  Uiso   1.00
H355   H     0.81906   0.58424   0.30273   0.00000  Uiso   1.00
H356   H     0.85907   0.55817   0.22753   0.00000  Uiso   1.00
H357   H     0.90065   0.61772   0.17779   0.00000  Uiso   1.00
H358   H     0.86161   0.76965   0.05460   0.00000  Uiso   1.00
H359   H     0.82085   0.82983   0.00486   0.00000  Uiso   1.00
H360   H     0.81916   0.91576   0.03056   0.00000  Uiso   1.00
H361   H     0.85928   0.94187   0.10566   0.00000  Uiso   1.00
H362   H     0.90081   0.88231   0.15543   0.00000  Uiso   1.00
H363   H     0.63864   0.73012   0.05481   0.00000  Uiso   1.00
H364   H     0.67936   0.66981   0.00520   0.00000  Uiso   1.00
H365   H     0.77788   0.62387   0.09505   0.00000  Uiso   1.00
H366   H     0.68074   0.58388   0.03089   0.00000  Uiso   1.00
H367   H     0.64036   0.55790   0.10587   0.00000  Uiso   1.00
H368   H     0.59888   0.61760   0.15553   0.00000  Uiso   1.00
H369   H     0.77807   0.87612   0.23819   0.00000  Uiso   1.00
H370   H     0.52855   0.81303   0.21280   0.00000  Uiso   1.00
H371   H     0.97144   0.68709   0.21297   0.00000  Uiso   1.00
H372   H     0.97146   0.81291   0.12044   0.00000  Uiso   1.00
H373   H     0.52854   0.68698   0.12061   0.00000  Uiso   1.00
H374   H     0.72255   0.53502   0.23995   0.00000  Uiso   1.00
N375   N     0.75000   0.62935   0.16667   0.00000  Uiso   1.00
N376   N     0.75000   0.87066   0.16667   0.00000  Uiso   1.00
O377   O     0.68573   0.79072   0.16667   0.00000  Uiso   1.00
O378   O     0.81427   0.70929   0.16666   0.00000  Uiso   1.00
O379   O     0.81427   0.79072   0.16666   0.00000  Uiso   1.00
O380   O     0.68573   0.70929   0.16667   0.00000  Uiso   1.00
O381   O     0.75000   0.79071   0.09613   0.00000  Uiso   1.00
O382   O     0.75000   0.70929   0.23720   0.00000  Uiso   1.00
O383   O     0.75000   0.79071   0.23720   0.00000  Uiso   1.00
O384   O     0.75000   0.70929   0.09613   0.00000  Uiso   1.00
C385   C     0.16492   0.25000   0.50000   0.00000  Uiso   1.00
C386   C     0.26521   0.44640   0.54093   0.00000  Uiso   1.00
C387   C     0.25000   0.25000   0.40684   0.00000  Uiso   1.00
C388   C     0.25000   0.25000   0.59316   0.00000  Uiso   1.00
C389   C     0.25000   0.02722   0.50000   0.00000  Uiso   1.00
C390   C     0.25000   0.47278   0.50000   0.00000  Uiso   1.00
C391   C     0.24999   0.25000   0.35519   0.00000  Uiso   1.00
C392   C     0.24999   0.25000   0.64481   0.00000  Uiso   1.00
C393   C     0.04682   0.28581   0.52580   0.00000  Uiso   1.00
C394   C     0.45318   0.21426   0.52590   0.00000  Uiso   1.00
C395   C     0.45319   0.28574   0.47417   0.00000  Uiso   1.00
C396   C     0.33508   0.25000   0.50000   0.00000  Uiso   1.00
C397   C     0.04681   0.21420   0.47427   0.00000  Uiso   1.00
C398   C     0.09293   0.28564   0.52697   0.00000  Uiso   1.00
C399   C     0.40706   0.21443   0.52705   0.00000  Uiso   1.00
C400   C     0.40707   0.28557   0.47298   0.00000  Uiso   1.00
C401   C     0.09292   0.21437   0.47307   0.00000  Uiso   1.00
C402   C     0.11641   0.25000   0.50001   0.00000  Uiso   1.00
C403   C     0.38359   0.25000   0.50001   0.00000  Uiso   1.00
C404   C     0.02403   0.25000   0.50004   0.00000  Uiso   1.00
C405   C     0.47597   0.25001   0.50004   0.00000  Uiso   1.00
C406   C     0.11568   0.32194   0.55804   0.00000  Uiso   1.00
C407   C     0.23468   0.10448   0.54002   0.00000  Uiso   1.00
C408   C     0.13846   0.30752   0.60072   0.00000  Uiso   1.00
C409   C     0.16172   0.34153   0.62871   0.00000  Uiso   1.00
C410   C     0.16255   0.38997   0.61416   0.00000  Uiso   1.00
C411   C     0.13977   0.40458   0.57186   0.00000  Uiso   1.00
C412   C     0.11617   0.37076   0.54398   0.00000  Uiso   1.00
C413   C     0.38430   0.17822   0.55822   0.00000  Uiso   1.00
C414   C     0.36167   0.19273   0.60097   0.00000  Uiso   1.00
C415   C     0.33842   0.15881   0.62906   0.00000  Uiso   1.00
C416   C     0.33742   0.11037   0.61453   0.00000  Uiso   1.00
C417   C     0.36003   0.09566   0.57216   0.00000  Uiso   1.00
C418   C     0.23458   0.39552   0.46003   0.00000  Uiso   1.00
C419   C     0.38364   0.12940   0.54418   0.00000  Uiso   1.00
C420   C     0.38433   0.32178   0.44179   0.00000  Uiso   1.00
C421   C     0.36164   0.30724   0.39910   0.00000  Uiso   1.00
C422   C     0.33840   0.34116   0.37098   0.00000  Uiso   1.00
C423   C     0.33749   0.38963   0.38543   0.00000  Uiso   1.00
C424   C     0.36017   0.40435   0.42775   0.00000  Uiso   1.00
C425   C     0.38376   0.37062   0.45576   0.00000  Uiso   1.00
C426   C     0.11566   0.17808   0.44195   0.00000  Uiso   1.00
C427   C     0.13849   0.19254   0.39931   0.00000  Uiso   1.00
C428   C     0.16169   0.15854   0.37127   0.00000  Uiso   1.00
C429   C     0.26531   0.10447   0.45998   0.00000  Uiso   1.00
C430   C     0.16243   0.11007   0.38572   0.00000  Uiso   1.00
C431   C     0.13960   0.09542   0.42796   0.00000  Uiso   1.00
C432   C     0.11605   0.12924   0.45591   0.00000  Uiso   1.00
C433   C     0.26542   0.39552   0.53997   0.00000  Uiso   1.00
C434   C     0.23489   0.05360   0.54098   0.00000  Uiso   1.00
C435   C     0.23478   0.44639   0.45907   0.00000  Uiso   1.00
C436   C     0.26510   0.05360   0.45902   0.00000  Uiso   1.00
Cu437  Cu    0.25000   0.29822   0.50000   0.00000  Uiso   1.00
Cu438  Cu    0.25000   0.20179   0.50000   0.00000  Uiso   1.00
H439   H     0.22212   0.12388   0.57161   0.00000  Uiso   1.00
H440   H     0.22235   0.46498   0.42681   0.00000  Uiso   1.00
H441   H     0.27744   0.03501   0.42671   0.00000  Uiso   1.00
H442   H     0.27764   0.46499   0.57319   0.00000  Uiso   1.00
H443   H     0.13855   0.26996   0.61196   0.00000  Uiso   1.00
H444   H     0.17935   0.33029   0.66147   0.00000  Uiso   1.00
H445   H     0.18090   0.41616   0.63560   0.00000  Uiso   1.00
H446   H     0.14060   0.44207   0.56055   0.00000  Uiso   1.00
H447   H     0.09905   0.38236   0.51099   0.00000  Uiso   1.00
H448   H     0.36171   0.23030   0.61219   0.00000  Uiso   1.00
H449   H     0.32091   0.17013   0.66189   0.00000  Uiso   1.00
H450   H     0.22193   0.37612   0.42848   0.00000  Uiso   1.00
H451   H     0.31906   0.08424   0.63606   0.00000  Uiso   1.00
H452   H     0.35907   0.05817   0.56086   0.00000  Uiso   1.00
H453   H     0.40065   0.11772   0.51112   0.00000  Uiso   1.00
H454   H     0.36161   0.26965   0.38793   0.00000  Uiso   1.00
H455   H     0.32085   0.32983   0.33820   0.00000  Uiso   1.00
H456   H     0.31916   0.41576   0.36389   0.00000  Uiso   1.00
H457   H     0.35928   0.44187   0.43899   0.00000  Uiso   1.00
H458   H     0.40081   0.38231   0.48877   0.00000  Uiso   1.00
H459   H     0.13864   0.23012   0.38814   0.00000  Uiso   1.00
H460   H     0.17936   0.16981   0.33853   0.00000  Uiso   1.00
H461   H     0.27788   0.12387   0.42839   0.00000  Uiso   1.00
H462   H     0.18074   0.08388   0.36422   0.00000  Uiso   1.00
H463   H     0.14036   0.05790   0.43920   0.00000  Uiso   1.00
H464   H     0.09888   0.11760   0.48886   0.00000  Uiso   1.00
H465   H     0.27807   0.37612   0.57152   0.00000  Uiso   1.00
H466   H     0.02855   0.31303   0.54613   0.00000  Uiso   1.00
H467   H     0.47144   0.18709   0.54630   0.00000  Uiso   1.00
H468   H     0.47146   0.31291   0.45377   0.00000  Uiso   1.00
H469   H     0.02854   0.18698   0.45394   0.00000  Uiso   1.00
H470   H     0.22255   0.03502   0.57328   0.00000  Uiso   1.00
N471   N     0.25000   0.12935   0.50000   0.00000  Uiso   1.00
N472   N     0.25000   0.37066   0.50000   0.00000  Uiso   1.00
O473   O     0.18573   0.29072   0.50000   0.00000  Uiso   1.00
O474   O     0.31427   0.20929   0.50000   0.00000  Uiso   1.00
O475   O     0.31427   0.29072   0.50000   0.00000  Uiso   1.00
O476   O     0.18573   0.20929   0.50000   0.00000  Uiso   1.00
O477   O     0.25000   0.29071   0.42946   0.00000  Uiso   1.00
O478   O     0.25000   0.20929   0.57054   0.00000  Uiso   1.00
O479   O     0.25000   0.29071   0.57054   0.00000  Uiso   1.00
O480   O     0.25000   0.20929   0.42946   0.00000  Uiso   1.00
C481   C     0.66492   0.25000   0.50000   0.00000  Uiso   1.00
C482   C     0.76521   0.44640   0.54093   0.00000  Uiso   1.00
C483   C     0.75000   0.25000   0.40684   0.00000  Uiso   1.00
C484   C     0.75000   0.25000   0.59316   0.00000  Uiso   1.00
C485   C     0.75000   0.02722   0.50000   0.00000  Uiso   1.00
C486   C     0.75000   0.47278   0.50000   0.00000  Uiso   1.00
C487   C     0.74999   0.25000   0.35519   0.00000  Uiso   1.00
C488   C     0.74999   0.25000   0.64481   0.00000  Uiso   1.00
C489   C     0.54682   0.28581   0.52580   0.00000  Uiso   1.00
C490   C     0.95318   0.21426   0.52590   0.00000  Uiso   1.00
C491   C     0.95319   0.28574   0.47417   0.00000  Uiso   1.00
C492   C     0.83508   0.25000   0.50000   0.00000  Uiso   1.00
C493   C     0.54681   0.21420   0.47427   0.00000  Uiso   1.00
C494   C     0.59293   0.28564   0.52697   0.00000  Uiso   1.00
C495   C     0.90706   0.21443   0.52705   0.00000  Uiso   1.00
C496   C     0.90707   0.28557   0.47298   0.00000  Uiso   1.00
C497   C     0.59292   0.21437   0.47307   0.00000  Uiso   1.00
C498   C     0.61641   0.25000   0.50001   0.00000  Uiso   1.00
C499   C     0.88359   0.25000   0.50001   0.00000  Uiso   1.00
C500   C     0.52403   0.25000   0.50004   0.00000  Uiso   1.00
C501   C     0.97597   0.25001   0.50004   0.00000  Uiso   1.00
C502   C     0.61568   0.32194   0.55804   0.00000  Uiso   1.00
C503   C     0.73468   0.10448   0.54002   0.00000  Uiso   1.00
C504   C     0.63846   0.30752   0.60072   0.00000  Uiso   1.00
C505   C     0.66172   0.34153   0.62871   0.00000  Uiso   1.00
C506   C     0.66255   0.38997   0.61416   0.00000  Uiso   1.00
C507   C     0.63977   0.40458   0.57186   0.00000  Uiso   1.00
C508   C     0.61617   0.37076   0.54398   0.00000  Uiso   1.00
C509   C     0.88430   0.17822   0.55822   0.00000  Uiso   1.00
C510   C     0.86167   0.19273   0.60097   0.00000  Uiso   1.00
C511   C     0.83842   0.15881   0.62906   0.00000  Uiso   1.00
C512   C     0.83742   0.11037   0.61453   0.00000  Uiso   1.00
C513   C     0.86003   0.09566   0.57216   0.00000  Uiso   1.00
C514   C     0.73458   0.39552   0.46003   0.00000  Uiso   1.00
C515   C     0.88364   0.12940   0.54418   0.00000  Uiso   1.00
C516   C     0.88433   0.32178   0.44179   0.00000  Uiso   1.00
C517   C     0.86164   0.30724   0.39910   0.00000  Uiso   1.00
C518   C     0.83840   0.34116   0.37098   0.00000  Uiso   1.00
C519   C     0.83749   0.38963   0.38543   0.00000  Uiso   1.00
C520   C     0.86017   0.40435   0.42775   0.00000  Uiso   1.00
C521   C     0.88376   0.37062   0.45576   0.00000  Uiso   1.00
C522   C     0.61566   0.17808   0.44195   0.00000  Uiso   1.00
C523   C     0.63849   0.19254   0.39931   0.00000  Uiso   1.00
C524   C     0.66169   0.15854   0.37127   0.00000  Uiso   1.00
C525   C     0.76531   0.10447   0.45998   0.00000  Uiso   1.00
C526   C     0.66243   0.11007   0.38572   0.00000  Uiso   1.00
C527   C     0.63960   0.09542   0.42796   0.00000  Uiso   1.00
C528   C     0.61605   0.12924   0.45591   0.00000  Uiso   1.00
C529   C     0.76542   0.39552   0.53997   0.00000  Uiso   1.00
C530   C     0.73489   0.05360   0.54098   0.00000  Uiso   1.00
C531   C     0.73478   0.44639   0.45907   0.00000  Uiso   1.00
C532   C     0.76510   0.05360   0.45902   0.00000  Uiso   1.00
Cu533  Cu    0.75000   0.29822   0.50000   0.00000  Uiso   1.00
Cu534  Cu    0.75000   0.20179   0.50000   0.00000  Uiso   1.00
H535   H     0.72212   0.12388   0.57161   0.00000  Uiso   1.00
H536   H     0.72235   0.46498   0.42681   0.00000  Uiso   1.00
H537   H     0.77744   0.03501   0.42671   0.00000  Uiso   1.00
H538   H     0.77764   0.46499   0.57319   0.00000  Uiso   1.00
H539   H     0.63855   0.26996   0.61196   0.00000  Uiso   1.00
H540   H     0.67935   0.33029   0.66147   0.00000  Uiso   1.00
H541   H     0.68090   0.41616   0.63560   0.00000  Uiso   1.00
H542   H     0.64060   0.44207   0.56055   0.00000  Uiso   1.00
H543   H     0.59905   0.38236   0.51099   0.00000  Uiso   1.00
H544   H     0.86171   0.23030   0.61219   0.00000  Uiso   1.00
H545   H     0.82091   0.17013   0.66189   0.00000  Uiso   1.00
H546   H     0.72193   0.37612   0.42848   0.00000  Uiso   1.00
H547   H     0.81906   0.08424   0.63606   0.00000  Uiso   1.00
H548   H     0.85907   0.05817   0.56086   0.00000  Uiso   1.00
H549   H     0.90065   0.11772   0.51112   0.00000  Uiso   1.00
H550   H     0.86161   0.26965   0.38793   0.00000  Uiso   1.00
H551   H     0.82085   0.32983   0.33820   0.00000  Uiso   1.00
H552   H     0.81916   0.41576   0.36389   0.00000  Uiso   1.00
H553   H     0.85928   0.44187   0.43899   0.00000  Uiso   1.00
H554   H     0.90081   0.38231   0.48877   0.00000  Uiso   1.00
H555   H     0.63864   0.23012   0.38814   0.00000  Uiso   1.00
H556   H     0.67936   0.16981   0.33853   0.00000  Uiso   1.00
H557   H     0.77788   0.12387   0.42839   0.00000  Uiso   1.00
H558   H     0.68074   0.08388   0.36422   0.00000  Uiso   1.00
H559   H     0.64036   0.05790   0.43920   0.00000  Uiso   1.00
H560   H     0.59888   0.11760   0.48886   0.00000  Uiso   1.00
H561   H     0.77807   0.37612   0.57152   0.00000  Uiso   1.00
H562   H     0.52855   0.31303   0.54613   0.00000  Uiso   1.00
H563   H     0.97144   0.18709   0.54630   0.00000  Uiso   1.00
H564   H     0.97146   0.31291   0.45377   0.00000  Uiso   1.00
H565   H     0.52854   0.18698   0.45394   0.00000  Uiso   1.00
H566   H     0.72255   0.03502   0.57328   0.00000  Uiso   1.00
N567   N     0.75000   0.12935   0.50000   0.00000  Uiso   1.00
N568   N     0.75000   0.37066   0.50000   0.00000  Uiso   1.00
O569   O     0.68573   0.29072   0.50000   0.00000  Uiso   1.00
O570   O     0.81427   0.20929   0.50000   0.00000  Uiso   1.00
O571   O     0.81427   0.29072   0.50000   0.00000  Uiso   1.00
O572   O     0.68573   0.20929   0.50000   0.00000  Uiso   1.00
O573   O     0.75000   0.29071   0.42946   0.00000  Uiso   1.00
O574   O     0.75000   0.20929   0.57054   0.00000  Uiso   1.00
O575   O     0.75000   0.29071   0.57054   0.00000  Uiso   1.00
O576   O     0.75000   0.20929   0.42946   0.00000  Uiso   1.00
C577   C     0.16492   0.75000   0.50000   0.00000  Uiso   1.00
C578   C     0.26521   0.94640   0.54093   0.00000  Uiso   1.00
C579   C     0.25000   0.75000   0.40684   0.00000  Uiso   1.00
C580   C     0.25000   0.75000   0.59316   0.00000  Uiso   1.00
C581   C     0.25000   0.52722   0.50000   0.00000  Uiso   1.00
C582   C     0.25000   0.97278   0.50000   0.00000  Uiso   1.00
C583   C     0.24999   0.75000   0.35519   0.00000  Uiso   1.00
C584   C     0.24999   0.75000   0.64481   0.00000  Uiso   1.00
C585   C     0.04682   0.78581   0.52580   0.00000  Uiso   1.00
C586   C     0.45318   0.71426   0.52590   0.00000  Uiso   1.00
C587   C     0.45319   0.78574   0.47417   0.00000  Uiso   1.00
C588   C     0.33508   0.75000   0.50000   0.00000  Uiso   1.00
C589   C     0.04681   0.71420   0.47427   0.00000  Uiso   1.00
C590   C     0.09293   0.78564   0.52697   0.00000  Uiso   1.00
C591   C     0.40706   0.71443   0.52705   0.00000  Uiso   1.00
C592   C     0.40707   0.78557   0.47298   0.00000  Uiso   1.00
C593   C     0.09292   0.71437   0.47307   0.00000  Uiso   1.00
C594   C     0.11641   0.75000   0.50001   0.00000  Uiso   1.00
C595   C     0.38359   0.75000   0.50001   0.00000  Uiso   1.00
C596   C     0.02403   0.75000   0.50004   0.00000  Uiso   1.00
C597   C     0.47597   0.75001   0.50004   0.00000  Uiso   1.00
C598   C     0.11568   0.82194   0.55804   0.00000  Uiso   1.00
C599   C     0.23468   0.60448   0.54002   0.00000  Uiso   1.00
C600   C     0.13846   0.80752   0.60072   0.00000  Uiso   1.00
C601   C     0.16172   0.84153   0.62871   0.00000  Uiso   1.00
C602   C     0.16255   0.88997   0.61416   0.00000  Uiso   1.00
C603   C     0.13977   0.90458   0.57186   0.00000  Uiso   1.00
C604   C     0.11617   0.87076   0.54398   0.00000  Uiso   1.00
C605   C     0.38430   0.67822   0.55822   0.00000  Uiso   1.00
C606   C     0.36167   0.69273   0.60097   0.00000  Uiso   1.00
C607   C     0.33842   0.65881   0.62906   0.00000  Uiso   1.00
C608   C     0.33742   0.61037   0.61453   0.00000  Uiso   1.00
C609   C     0.36003   0.59566   0.57216   0.00000  Uiso   1.00
C610   C     0.23458   0.89552   0.46003   0.00000  Uiso   1.00
C611   C     0.38364   0.62940   0.54418   0.00000  Uiso   1.00
C612   C     0.38433   0.82178   0.44179   0.00000  Uiso   1.00
C613   C     0.36164   0.80724   0.39910   0.00000  Uiso   1.00
C614   C     0.33840   0.84116   0.37098   0.00000  Uiso   1.00
C615   C     0.33749   0.88963   0.38543   0.00000  Uiso   1.00
C616   C     0.36017   0.90435   0.42775   0.00000  Uiso   1.00
C617   C     0.38376   0.87062   0.45576   0.00000  Uiso   1.00
C618   C     0.11566   0.67808   0.44195   0.00000  Uiso   1.00
C619   C     0.13849   0.69254   0.39931   0.00000  Uiso   1.00
C620   C     0.16169   0.65854   0.37127   0.00000  Uiso   1.00
C621   C     0.26531   0.60447   0.45998   0.00000  Uiso   1.00
C622   C     0.16243   0.61007   0.38572   0.00000  Uiso   1.00
C623   C     0.13960   0.59542   0.42796   0.00000  Uiso   1.00
C624   C     0.11605   0.62924   0.45591   0.00000  Uiso   1.00
C625   C     0.26542   0.89552   0.53997   0.00000  Uiso   1.00
C626   C     0.23489   0.55360   0.54098   0.00000  Uiso   1.00
C627   C     0.23478   0.94639   0.45907   0.00000  Uiso   1.00
C628   C     0.26510   0.55360   0.45902   0.00000  Uiso   1.00
Cu629  Cu    0.25000   0.79822   0.50000   0.00000  Uiso   1.00
Cu630  Cu    0.25000   0.70179   0.50000   0.00000  Uiso   1.00
H631   H     0.22212   0.62388   0.57161   0.00000  Uiso   1.00
H632   H     0.22235   0.96498   0.42681   0.00000  Uiso   1.00
H633   H     0.27744   0.53501   0.42671   0.00000  Uiso   1.00
H634   H     0.27764   0.96499   0.57319   0.00000  Uiso   1.00
H635   H     0.13855   0.76996   0.61196   0.00000  Uiso   1.00
H636   H     0.17935   0.83029   0.66147   0.00000  Uiso   1.00
H637   H     0.18090   0.91616   0.63560   0.00000  Uiso   1.00
H638   H     0.14060   0.94207   0.56055   0.00000  Uiso   1.00
H639   H     0.09905   0.88236   0.51099   0.00000  Uiso   1.00
H640   H     0.36171   0.73030   0.61219   0.00000  Uiso   1.00
H641   H     0.32091   0.67013   0.66189   0.00000  Uiso   1.00
H642   H     0.22193   0.87612   0.42848   0.00000  Uiso   1.00
H643   H     0.31906   0.58424   0.63606   0.00000  Uiso   1.00
H644   H     0.35907   0.55817   0.56086   0.00000  Uiso   1.00
H645   H     0.40065   0.61772   0.51112   0.00000  Uiso   1.00
H646   H     0.36161   0.76965   0.38793   0.00000  Uiso   1.00
H647   H     0.32085   0.82983   0.33820   0.00000  Uiso   1.00
H648   H     0.31916   0.91576   0.36389   0.00000  Uiso   1.00
H649   H     0.35928   0.94187   0.43899   0.00000  Uiso   1.00
H650   H     0.40081   0.88231   0.48877   0.00000  Uiso   1.00
H651   H     0.13864   0.73012   0.38814   0.00000  Uiso   1.00
H652   H     0.17936   0.66981   0.33853   0.00000  Uiso   1.00
H653   H     0.27788   0.62387   0.42839   0.00000  Uiso   1.00
H654   H     0.18074   0.58388   0.36422   0.00000  Uiso   1.00
H655   H     0.14036   0.55790   0.43920   0.00000  Uiso   1.00
H656   H     0.09888   0.61760   0.48886   0.00000  Uiso   1.00
H657   H     0.27807   0.87612   0.57152   0.00000  Uiso   1.00
H658   H     0.02855   0.81303   0.54613   0.00000  Uiso   1.00
H659   H     0.47144   0.68709   0.54630   0.00000  Uiso   1.00
H660   H     0.47146   0.81291   0.45377   0.00000  Uiso   1.00
H661   H     0.02854   0.68698   0.45394   0.00000  Uiso   1.00
H662   H     0.22255   0.53502   0.57328   0.00000  Uiso   1.00
N663   N     0.25000   0.62935   0.50000   0.00000  Uiso   1.00
N664   N     0.25000   0.87066   0.50000   0.00000  Uiso   1.00
O665   O     0.18573   0.79072   0.50000   0.00000  Uiso   1.00
O666   O     0.31427   0.70929   0.50000   0.00000  Uiso   1.00
O667   O     0.31427   0.79072   0.50000   0.00000  Uiso   1.00
O668   O     0.18573   0.70929   0.50000   0.00000  Uiso   1.00
O669   O     0.25000   0.79071   0.42946   0.00000  Uiso   1.00
O670   O     0.25000   0.70929   0.57054   0.00000  Uiso   1.00
O671   O     0.25000   0.79071   0.57054   0.00000  Uiso   1.00
O672   O     0.25000   0.70929   0.42946   0.00000  Uiso   1.00
C673   C     0.66492   0.75000   0.50000   0.00000  Uiso   1.00
C674   C     0.76521   0.94640   0.54093   0.00000  Uiso   1.00
C675   C     0.75000   0.75000   0.40684   0.00000  Uiso   1.00
C676   C     0.75000   0.75000   0.59316   0.00000  Uiso   1.00
C677   C     0.75000   0.52722   0.50000   0.00000  Uiso   1.00
C678   C     0.75000   0.97278   0.50000   0.00000  Uiso   1.00
C679   C     0.74999   0.75000   0.35519   0.00000  Uiso   1.00
C680   C     0.74999   0.75000   0.64481   0.00000  Uiso   1.00
C681   C     0.54682   0.78581   0.52580   0.00000  Uiso   1.00
C682   C     0.95318   0.71426   0.52590   0.00000  Uiso   1.00
C683   C     0.95319   0.78574   0.47417   0.00000  Uiso   1.00
C684   C     0.83508   0.75000   0.50000   0.00000  Uiso   1.00
C685   C     0.54681   0.71420   0.47427   0.00000  Uiso   1.00
C686   C     0.59293   0.78564   0.52697   0.00000  Uiso   1.00
C687   C     0.90706   0.71443   0.52705   0.00000  Uiso   1.00
C688   C     0.90707   0.78557   0.47298   0.00000  Uiso   1.00
C689   C     0.59292   0.71437   0.47307   0.00000  Uiso   1.00
C690   C     0.61641   0.75000   0.50001   0.00000  Uiso   1.00
C691   C     0.88359   0.75000   0.50001   0.00000  Uiso   1.00
C692   C     0.52403   0.75000   0.50004   0.00000  Uiso   1.00
C693   C     0.97597   0.75001   0.50004   0.00000  Uiso   1.00
C694   C     0.61568   0.82194   0.55804   0.00000  Uiso   1.00
C695   C     0.73468   0.60448   0.54002   0.00000  Uiso   1.00
C696   C     0.63846   0.80752   0.60072   0.00000  Uiso   1.00
C697   C     0.66172   0.84153   0.62871   0.00000  Uiso   1.00
C698   C     0.66255   0.88997   0.61416   0.00000  Uiso   1.00
C699   C     0.63977   0.90458   0.57186   0.00000  Uiso   1.00
C700   C     0.61617   0.87076   0.54398   0.00000  Uiso   1.00
C701   C     0.88430   0.67822   0.55822   0.00000  Uiso   1.00
C702   C     0.86167   0.69273   0.60097   0.00000  Uiso   1.00
C703   C     0.83842   0.65881   0.62906   0.00000  Uiso   1.00
C704   C     0.83742   0.61037   0.61453   0.00000  Uiso   1.00
C705   C     0.86003   0.59566   0.57216   0.00000  Uiso   1.00
C706   C     0.73458   0.89552   0.46003   0.00000  Uiso   1.00
C707   C     0.88364   0.62940   0.54418   0.00000  Uiso   1.00
C708   C     0.88433   0.82178   0.44179   0.00000  Uiso   1.00
C709   C     0.86164   0.80724   0.39910   0.00000  Uiso   1.00
C710   C     0.83840   0.84116   0.37098   0.00000  Uiso   1.00
C711   C     0.83749   0.88963   0.38543   0.00000  Uiso   1.00
C712   C     0.86017   0.90435   0.42775   0.00000  Uiso   1.00
C713   C     0.88376   0.87062   0.45576   0.00000  Uiso   1.00
C714   C     0.61566   0.67808   0.44195   0.00000  Uiso   1.00
C715   C     0.63849   0.69254   0.39931   0.00000  Uiso   1.00
C716   C     0.66169   0.65854   0.37127   0.00000  Uiso   1.00
C717   C     0.76531   0.60447   0.45998   0.00000  Uiso   1.00
C718   C     0.66243   0.61007   0.38572   0.00000  Uiso   1.00
C719   C     0.63960   0.59542   0.42796   0.00000  Uiso   1.00
C720   C     0.61605   0.62924   0.45591   0.00000  Uiso   1.00
C721   C     0.76542   0.89552   0.53997   0.00000  Uiso   1.00
C722   C     0.73489   0.55360   0.54098   0.00000  Uiso   1.00
C723   C     0.73478   0.94639   0.45907   0.00000  Uiso   1.00
C724   C     0.76510   0.55360   0.45902   0.00000  Uiso   1.00
Cu725  Cu    0.75000   0.79822   0.50000   0.00000  Uiso   1.00
Cu726  Cu    0.75000   0.70179   0.50000   0.00000  Uiso   1.00
H727   H     0.72212   0.62388   0.57161   0.00000  Uiso   1.00
H728   H     0.72235   0.96498   0.42681   0.00000  Uiso   1.00
H729   H     0.77744   0.53501   0.42671   0.00000  Uiso   1.00
H730   H     0.77764   0.96499   0.57319   0.00000  Uiso   1.00
H731   H     0.63855   0.76996   0.61196   0.00000  Uiso   1.00
H732   H     0.67935   0.83029   0.66147   0.00000  Uiso   1.00
H733   H     0.68090   0.91616   0.63560   0.00000  Uiso   1.00
H734   H     0.64060   0.94207   0.56055   0.00000  Uiso   1.00
H735   H     0.59905   0.88236   0.51099   0.00000  Uiso   1.00
H736   H     0.86171   0.73030   0.61219   0.00000  Uiso   1.00
H737   H     0.82091   0.67013   0.66189   0.00000  Uiso   1.00
H738   H     0.72193   0.87612   0.42848   0.00000  Uiso   1.00
H739   H     0.81906   0.58424   0.63606   0.00000  Uiso   1.00
H740   H     0.85907   0.55817   0.56086   0.00000  Uiso   1.00
H741   H     0.90065   0.61772   0.51112   0.00000  Uiso   1.00
H742   H     0.86161   0.76965   0.38793   0.00000  Uiso   1.00
H743   H     0.82085   0.82983   0.33820   0.00000  Uiso   1.00
H744   H     0.81916   0.91576   0.36389   0.00000  Uiso   1.00
H745   H     0.85928   0.94187   0.43899   0.00000  Uiso   1.00
H746   H     0.90081   0.88231   0.48877   0.00000  Uiso   1.00
H747   H     0.63864   0.73012   0.38814   0.00000  Uiso   1.00
H748   H     0.67936   0.66981   0.33853   0.00000  Uiso   1.00
H749   H     0.77788   0.62387   0.42839   0.00000  Uiso   1.00
H750   H     0.68074   0.58388   0.36422   0.00000  Uiso   1.00
H751   H     0.64036   0.55790   0.43920   0.00000  Uiso   1.00
H752   H     0.59888   0.61760   0.48886   0.00000  Uiso   1.00
H753   H     0.77807   0.87612   0.57152   0.00000  Uiso   1.00
H754   H     0.52855   0.81303   0.54613   0.00000  Uiso   1.00
H755   H     0.97144   0.68709   0.54630   0.00000  Uiso   1.00
H756   H     0.97146   0.81291   0.45377   0.00000  Uiso   1.00
H757   H     0.52854   0.68698   0.45394   0.00000  Uiso   1.00
H758   H     0.72255   0.53502   0.57328   0.00000  Uiso   1.00
N759   N     0.75000   0.62935   0.50000   0.00000  Uiso   1.00
N760   N     0.75000   0.87066   0.50000   0.00000  Uiso   1.00
O761   O     0.68573   0.79072   0.50000   0.00000  Uiso   1.00
O762   O     0.81427   0.70929   0.50000   0.00000  Uiso   1.00
O763   O     0.81427   0.79072   0.50000   0.00000  Uiso   1.00
O764   O     0.68573   0.70929   0.50000   0.00000  Uiso   1.00
O765   O     0.75000   0.79071   0.42946   0.00000  Uiso   1.00
O766   O     0.75000   0.70929   0.57054   0.00000  Uiso   1.00
O767   O     0.75000   0.79071   0.57054   0.00000  Uiso   1.00
O768   O     0.75000   0.70929   0.42946   0.00000  Uiso   1.00
C769   C     0.16492   0.25000   0.83334   0.00000  Uiso   1.00
C770   C     0.26521   0.44640   0.87426   0.00000  Uiso   1.00
C771   C     0.25000   0.25000   0.74017   0.00000  Uiso   1.00
C772   C     0.25000   0.25000   0.92650   0.00000  Uiso   1.00
C773   C     0.25000   0.02722   0.83333   0.00000  Uiso   1.00
C774   C     0.25000   0.47278   0.83333   0.00000  Uiso   1.00
C775   C     0.24999   0.25000   0.68852   0.00000  Uiso   1.00
C776   C     0.24999   0.25000   0.97815   0.00000  Uiso   1.00
C777   C     0.04682   0.28581   0.85914   0.00000  Uiso   1.00
C778   C     0.45318   0.21426   0.85923   0.00000  Uiso   1.00
C779   C     0.45319   0.28574   0.80750   0.00000  Uiso   1.00
C780   C     0.33508   0.25000   0.83333   0.00000  Uiso   1.00
C781   C     0.04681   0.21420   0.80760   0.00000  Uiso   1.00
C782   C     0.09293   0.28564   0.86030   0.00000  Uiso   1.00
C783   C     0.40706   0.21443   0.86039   0.00000  Uiso   1.00
C784   C     0.40707   0.28557   0.80631   0.00000  Uiso   1.00
C785   C     0.09292   0.21437   0.80640   0.00000  Uiso   1.00
C786   C     0.11641   0.25000   0.83335   0.00000  Uiso   1.00
C787   C     0.38359   0.25000   0.83334   0.00000  Uiso   1.00
C788   C     0.02403   0.25000   0.83338   0.00000  Uiso   1.00
C789   C     0.47597   0.25001   0.83338   0.00000  Uiso   1.00
C790   C     0.11568   0.32194   0.89138   0.00000  Uiso   1.00
C791   C     0.23468   0.10448   0.87335   0.00000  Uiso   1.00
C792   C     0.13846   0.30752   0.93406   0.00000  Uiso   1.00
C793   C     0.16172   0.34153   0.96204   0.00000  Uiso   1.00
C794   C     0.16255   0.38997   0.94749   0.00000  Uiso   1.00
C795   C     0.13977   0.40458   0.90520   0.00000  Uiso   1.00
C796   C     0.11617   0.37076   0.87732   0.00000  Uiso   1.00
C797   C     0.38430   0.17822   0.89155   0.00000  Uiso   1.00
C798   C     0.36167   0.19273   0.93430   0.00000  Uiso   1.00
C799   C     0.33842   0.15881   0.96239   0.00000  Uiso   1.00
C800   C     0.33742   0.11037   0.94787   0.00000  Uiso   1.00
C801   C     0.36003   0.09566   0.90549   0.00000  Uiso   1.00
C802   C     0.23458   0.39552   0.79336   0.00000  Uiso   1.00
C803   C     0.38364   0.12940   0.87751   0.00000  Uiso   1.00
C804   C     0.38433   0.32178   0.77513   0.00000  Uiso   1.00
C805   C     0.36164   0.30724   0.73243   0.00000  Uiso   1.00
C806   C     0.33840   0.34116   0.70432   0.00000  Uiso   1.00
C807   C     0.33749   0.38963   0.71877   0.00000  Uiso   1.00
C808   C     0.36017   0.40435   0.76109   0.00000  Uiso   1.00
C809   C     0.38376   0.37062   0.78909   0.00000  Uiso   1.00
C810   C     0.11566   0.17808   0.77528   0.00000  Uiso   1.00
C811   C     0.13849   0.19254   0.73264   0.00000  Uiso   1.00
C812   C     0.16169   0.15854   0.70460   0.00000  Uiso   1.00
C813   C     0.26531   0.10447   0.79331   0.00000  Uiso   1.00
C814   C     0.16243   0.11007   0.71905   0.00000  Uiso   1.00
C815   C     0.13960   0.09542   0.76130   0.00000  Uiso   1.00
C816   C     0.11605   0.12924   0.78924   0.00000  Uiso   1.00
C817   C     0.26542   0.39552   0.87331   0.00000  Uiso   1.00
C818   C     0.23489   0.05360   0.87431   0.00000  Uiso   1.00
C819   C     0.23478   0.44639   0.79241   0.00000  Uiso   1.00
C820   C     0.26510   0.05360   0.79235   0.00000  Uiso   1.00
Cu821  Cu    0.25000   0.29822   0.83333   0.00000  Uiso   1.00
Cu822  Cu    0.25000   0.20179   0.83333   0.00000  Uiso   1.00
H823   H     0.22212   0.12388   0.90494   0.00000  Uiso   1.00
H824   H     0.22235   0.46498   0.76014   0.00000  Uiso   1.00
H825   H     0.27744   0.03501   0.76005   0.00000  Uiso   1.00
H826   H     0.27764   0.46499   0.90653   0.00000  Uiso   1.00
H827   H     0.13855   0.26996   0.94529   0.00000  Uiso   1.00
H828   H     0.17935   0.33029   0.99480   0.00000  Uiso   1.00
H829   H     0.18090   0.41616   0.96893   0.00000  Uiso   1.00
H830   H     0.14060   0.44207   0.89388   0.00000  Uiso   1.00
H831   H     0.09905   0.38236   0.84432   0.00000  Uiso   1.00
H832   H     0.36171   0.23030   0.94552   0.00000  Uiso   1.00
H833   H     0.32091   0.17013   0.99522   0.00000  Uiso   1.00
H834   H     0.22193   0.37612   0.76181   0.00000  Uiso   1.00
H835   H     0.31906   0.08424   0.96939   0.00000  Uiso   1.00
H836   H     0.35907   0.05817   0.89419   0.00000  Uiso   1.00
H837   H     0.40065   0.11772   0.84446   0.00000  Uiso   1.00
H838   H     0.36161   0.26965   0.72127   0.00000  Uiso   1.00
H839   H     0.32085   0.32983   0.67153   0.00000  Uiso   1.00
H840   H     0.31916   0.41576   0.69722   0.00000  Uiso   1.00
H841   H     0.35928   0.44187   0.77233   0.00000  Uiso   1.00
H842   H     0.40081   0.38231   0.82210   0.00000  Uiso   1.00
H843   H     0.13864   0.23012   0.72148   0.00000  Uiso   1.00
H844   H     0.17936   0.16981   0.67187   0.00000  Uiso   1.00
H845   H     0.27788   0.12387   0.76172   0.00000  Uiso   1.00
H846   H     0.18074   0.08388   0.69756   0.00000  Uiso   1.00
H847   H     0.14036   0.05790   0.77253   0.00000  Uiso   1.00
H848   H     0.09888   0.11760   0.82220   0.00000  Uiso   1.00
H849   H     0.27807   0.37612   0.90485   0.00000  Uiso   1.00
H850   H     0.02855   0.31303   0.87947   0.00000  Uiso   1.00
H851   H     0.47144   0.18709   0.87963   0.00000  Uiso   1.00
H852   H     0.47146   0.31291   0.78711   0.00000  Uiso   1.00
H853   H     0.02854   0.18698   0.78727   0.00000  Uiso   1.00
H854   H     0.22255   0.03502   0.90661   0.00000  Uiso   1.00
N855   N     0.25000   0.12935   0.83333   0.00000  Uiso   1.00
N856   N     0.25000   0.37066   0.83333   0.00000  Uiso   1.00
O857   O     0.18573   0.29072   0.83334   0.00000  Uiso   1.00
O858   O     0.31427   0.20929   0.83333   0.00000  Uiso   1.00
O859   O     0.31427   0.29072   0.83333   0.00000  Uiso   1.00
O860   O     0.18573   0.20929   0.83334   0.00000  Uiso   1.00
O861   O     0.25000   0.29071   0.76280   0.00000  Uiso   1.00
O862   O     0.25000   0.20929   0.90387   0.00000  Uiso   1.00
O863   O     0.25000   0.29071   0.90387   0.00000  Uiso   1.00
O864   O     0.25000   0.20929   0.76280   0.00000  Uiso   1.00
C865   C     0.66492   0.25000   0.83334   0.00000  Uiso   1.00
C866   C     0.76521   0.44640   0.87426   0.00000  Uiso   1.00
C867   C     0.75000   0.25000   0.74017   0.00000  Uiso   1.00
C868   C     0.75000   0.25000   0.92650   0.00000  Uiso   1.00
C869   C     0.75000   0.02722   0.83333   0.00000  Uiso   1.00
C870   C     0.75000   0.47278   0.83333   0.00000  Uiso   1.00
C871   C     0.74999   0.25000   0.68852   0.00000  Uiso   1.00
C872   C     0.74999   0.25000   0.97815   0.00000  Uiso   1.00
C873   C     0.54682   0.28581   0.85914   0.00000  Uiso   1.00
C874   C     0.95318   0.21426   0.85923   0.00000  Uiso   1.00
C875   C     0.95319   0.28574   0.80750   0.00000  Uiso   1.00
C876   C     0.83508   0.25000   0.83333   0.00000  Uiso   1.00
C877   C     0.54681   0.21420   0.80760   0.00000  Uiso   1.00
C878   C     0.59293   0.28564   0.86030   0.00000  Uiso   1.00
C879   C     0.90706   0.21443   0.86039   0.00000  Uiso   1.00
C880   C     0.90707   0.28557   0.80631   0.00000  Uiso   1.00
C881   C     0.59292   0.21437   0.80640   0.00000  Uiso   1.00
C882   C     0.61641   0.25000   0.83335   0.00000  Uiso   1.00
C883   C     0.88359   0.25000   0.83334   0.00000  Uiso   1.00
C884   C     0.52403   0.25000   0.83338   0.00000  Uiso   1.00
C885   C     0.97597   0.25001   0.83338   0.00000  Uiso   1.00
C886   C     0.61568   0.32194   0.89138   0.00000  Uiso   1.00
C887   C     0.73468   0.10448   0.87335   0.00000  Uiso   1.00
C888   C     0.63846   0.30752   0.93406   0.00000  Uiso   1.00
C889   C     0.66172   0.34153   0.96204   0.00000  Uiso   1.00
C890   C     0.66255   0.38997   0.94749   0.00000  Uiso   1.00
C891   C     0.63977   0.40458   0.90520   0.00000  Uiso   1.00
C892   C     0.61617   0.37076   0.87732   0.00000  Uiso   1.00
C893   C     0.88430   0.17822   0.89155   0.00000  Uiso   1.00
C894   C     0.86167   0.19273   0.93430   0.00000  Uiso   1.00
C895   C     0.83842   0.15881   0.96239   0.00000  Uiso   1.00
C896   C     0.83742   0.11037   0.94787   0.00000  Uiso   1.00
C897   C     0.86003   0.09566   0.90549   0.00000  Uiso   1.00
C898   C     0.73458   0.39552   0.79336   0.00000  Uiso   1.00
C899   C     0.88364   0.12940   0.87751   0.00000  Uiso   1.00
C900   C     0.88433   0.32178   0.77513   0.00000  Uiso   1.00
C901   C     0.86164   0.30724   0.73243   0.00000  Uiso   1.00
C902   C     0.83840   0.34116   0.70432   0.00000  Uiso   1.00
C903   C     0.83749   0.38963   0.71877   0.00000  Uiso   1.00
C904   C     0.86017   0.40435   0.76109   0.00000  Uiso   1.00
C905   C     0.88376   0.37062   0.78909   0.00000  Uiso   1.00
C906   C     0.61566   0.17808   0.77528   0.00000  Uiso   1.00
C907   C     0.63849   0.19254   0.73264   0.00000  Uiso   1.00
C908   C     0.66169   0.15854   0.70460   0.00000  Uiso   1.00
C909   C     0.76531   0.10447   0.79331   0.00000  Uiso   1.00
C910   C     0.66243   0.11007   0.71905   0.00000  Uiso   1.00
C911   C     0.63960   0.09542   0.76130   0.00000  Uiso   1.00
C912   C     0.61605   0.12924   0.78924   0.00000  Uiso   1.00
C913   C     0.76542   0.39552   0.87331   0.00000  Uiso   1.00
C914   C     0.73489   0.05360   0.87431   0.00000  Uiso   1.00
C915   C     0.73478   0.44639   0.79241   0.00000  Uiso   1.00
C916   C     0.76510   0.05360   0.79235   0.00000  Uiso   1.00
Cu917  Cu    0.75000   0.29822   0.83333   0.00000  Uiso   1.00
Cu918  Cu    0.75000   0.20179   0.83333   0.00000  Uiso   1.00
H919   H     0.72212   0.12388   0.90494   0.00000  Uiso   1.00
H920   H     0.72235   0.46498   0.76014   0.00000  Uiso   1.00
H921   H     0.77744   0.03501   0.76005   0.00000  Uiso   1.00
H922   H     0.77764   0.46499   0.90653   0.00000  Uiso   1.00
H923   H     0.63855   0.26996   0.94529   0.00000  Uiso   1.00
H924   H     0.67935   0.33029   0.99480   0.00000  Uiso   1.00
H925   H     0.68090   0.41616   0.96893   0.00000  Uiso   1.00
H926   H     0.64060   0.44207   0.89388   0.00000  Uiso   1.00
H927   H     0.59905   0.38236   0.84432   0.00000  Uiso   1.00
H928   H     0.86171   0.23030   0.94552   0.00000  Uiso   1.00
H929   H     0.82091   0.17013   0.99522   0.00000  Uiso   1.00
H930   H     0.72193   0.37612   0.76181   0.00000  Uiso   1.00
H931   H     0.81906   0.08424   0.96939   0.00000  Uiso   1.00
H932   H     0.85907   0.05817   0.89419   0.00000  Uiso   1.00
H933   H     0.90065   0.11772   0.84446   0.00000  Uiso   1.00
H934   H     0.86161   0.26965   0.72127   0.00000  Uiso   1.00
H935   H     0.82085   0.32983   0.67153   0.00000  Uiso   1.00
H936   H     0.81916   0.41576   0.69722   0.00000  Uiso   1.00
H937   H     0.85928   0.44187   0.77233   0.00000  Uiso   1.00
H938   H     0.90081   0.38231   0.82210   0.00000  Uiso   1.00
H939   H     0.63864   0.23012   0.72148   0.00000  Uiso   1.00
H940   H     0.67936   0.16981   0.67187   0.00000  Uiso   1.00
H941   H     0.77788   0.12387   0.76172   0.00000  Uiso   1.00
H942   H     0.68074   0.08388   0.69756   0.00000  Uiso   1.00
H943   H     0.64036   0.05790   0.77253   0.00000  Uiso   1.00
H944   H     0.59888   0.11760   0.82220   0.00000  Uiso   1.00
H945   H     0.77807   0.37612   0.90485   0.00000  Uiso   1.00
H946   H     0.52855   0.31303   0.87947   0.00000  Uiso   1.00
H947   H     0.97144   0.18709   0.87963   0.00000  Uiso   1.00
H948   H     0.97146   0.31291   0.78711   0.00000  Uiso   1.00
H949   H     0.52854   0.18698   0.78727   0.00000  Uiso   1.00
H950   H     0.72255   0.03502   0.90661   0.00000  Uiso   1.00
N951   N     0.75000   0.12935   0.83333   0.00000  Uiso   1.00
N952   N     0.75000   0.37066   0.83333   0.00000  Uiso   1.00
O953   O     0.68573   0.29072   0.83334   0.00000  Uiso   1.00
O954   O     0.81427   0.20929   0.83333   0.00000  Uiso   1.00
O955   O     0.81427   0.29072   0.83333   0.00000  Uiso   1.00
O956   O     0.68573   0.20929   0.83334   0.00000  Uiso   1.00
O957   O     0.75000   0.29071   0.76280   0.00000  Uiso   1.00
O958   O     0.75000   0.20929   0.90387   0.00000  Uiso   1.00
O959   O     0.75000   0.29071   0.90387   0.00000  Uiso   1.00
O960   O     0.75000   0.20929   0.76280   0.00000  Uiso   1.00
C961   C     0.16492   0.75000   0.83334   0.00000  Uiso   1.00
C962   C     0.26521   0.94640   0.87426   0.00000  Uiso   1.00
C963   C     0.25000   0.75000   0.74017   0.00000  Uiso   1.00
C964   C     0.25000   0.75000   0.92650   0.00000  Uiso   1.00
C965   C     0.25000   0.52722   0.83333   0.00000  Uiso   1.00
C966   C     0.25000   0.97278   0.83333   0.00000  Uiso   1.00
C967   C     0.24999   0.75000   0.68852   0.00000  Uiso   1.00
C968   C     0.24999   0.75000   0.97815   0.00000  Uiso   1.00
C969   C     0.04682   0.78581   0.85914   0.00000  Uiso   1.00
C970   C     0.45318   0.71426   0.85923   0.00000  Uiso   1.00
C971   C     0.45319   0.78574   0.80750   0.00000  Uiso   1.00
C972   C     0.33508   0.75000   0.83333   0.00000  Uiso   1.00
C973   C     0.04681   0.71420   0.80760   0.00000  Uiso   1.00
C974   C     0.09293   0.78564   0.86030   0.00000  Uiso   1.00
C975   C     0.40706   0.71443   0.86039   0.00000  Uiso   1.00
C976   C     0.40707   0.78557   0.80631   0.00000  Uiso   1.00
C977   C     0.09292   0.71437   0.80640   0.00000  Uiso   1.00
C978   C     0.11641   0.75000   0.83335   0.00000  Uiso   1.00
C979   C     0.38359   0.75000   0.83334   0.00000  Uiso   1.00
C980   C     0.02403   0.75000   0.83338   0.00000  Uiso   1.00
C981   C     0.47597   0.75001   0.83338   0.00000  Uiso   1.00
C982   C     0.11568   0.82194   0.89138   0.00000  Uiso   1.00
C983   C     0.23468   0.60448   0.87335   0.00000  Uiso   1.00
C984   C     0.13846   0.80752   0.93406   0.00000  Uiso   1.00
C985   C     0.16172   0.84153   0.96204   0.00000  Uiso   1.00
C986   C     0.16255   0.88997   0.94749   0.00000  Uiso   1.00
C987   C     0.13977   0.90458   0.90520   0.00000  Uiso   1.00
C988   C     0.11617   0.87076   0.87732   0.00000  Uiso   1.00
C989   C     0.38430   0.67822   0.89155   0.00000  Uiso   1.00
C990   C     0.36167   0.69273   0.93430   0.00000  Uiso   1.00
C991   C     0.33842   0.65881   0.96239   0.00000  Uiso   1.00
C992   C     0.33742   0.61037   0.94787   0.00000  Uiso   1.00
C993   C     0.36003   0.59566   0.90549   0.00000  Uiso   1.00
C994   C     0.23458   0.89552   0.79336   0.00000  Uiso   1.00
C995   C     0.38364   0.62940   0.87751   0.00000  Uiso   1.00
C996   C     0.38433   0.82178   0.77513   0.00000  Uiso   1.00
C997   C     0.36164   0.80724   0.73243   0.00000  Uiso   1.00
C998   C     0.33840   0.84116   0.70432   0.00000  Uiso   1.00
C999   C     0.33749   0.88963   0.71877   0.00000  Uiso   1.00
C1000  C     0.36017   0.90435   0.76109   0.00000  Uiso   1.00
C1001  C     0.38376   0.87062   0.78909   0.00000  Uiso   1.00
C1002  C     0.11566   0.67808   0.77528   0.00000  Uiso   1.00
C1003  C     0.13849   0.69254   0.73264   0.00000  Uiso   1.00
C1004  C     0.16169   0.65854   0.70460   0.00000  Uiso   1.00
C1005  C     0.26531   0.60447   0.79331   0.00000  Uiso   1.00
C1006  C     0.16243   0.61007   0.71905   0.00000  Uiso   1.00
C1007  C     0.13960   0.59542   0.76130   0.00000  Uiso   1.00
C1008  C     0.11605   0.62924   0.78924   0.00000  Uiso   1.00
C1009  C     0.26542   0.89552   0.87331   0.00000  Uiso   1.00
C1010  C     0.23489   0.55360   0.87431   0.00000  Uiso   1.00
C1011  C     0.23478   0.94639   0.79241   0.00000  Uiso   1.00
C1012  C     0.26510   0.55360   0.79235   0.00000  Uiso   1.00
Cu1013 Cu    0.25000   0.79822   0.83333   0.00000  Uiso   1.00
Cu1014 Cu    0.25000   0.70179   0.83333   0.00000  Uiso   1.00
H1015  H     0.22212   0.62388   0.90494   0.00000  Uiso   1.00
H1016  H     0.22235   0.96498   0.76014   0.00000  Uiso   1.00
H1017  H     0.27744   0.53501   0.76005   0.00000  Uiso   1.00
H1018  H     0.27764   0.96499   0.90653   0.00000  Uiso   1.00
H1019  H     0.13855   0.76996   0.94529   0.00000  Uiso   1.00
H1020  H     0.17935   0.83029   0.99480   0.00000  Uiso   1.00
H1021  H     0.18090   0.91616   0.96893   0.00000  Uiso   1.00
H1022  H     0.14060   0.94207   0.89388   0.00000  Uiso   1.00
H1023  H     0.09905   0.88236   0.84432   0.00000  Uiso   1.00
H1024  H     0.36171   0.73030   0.94552   0.00000  Uiso   1.00
H1025  H     0.32091   0.67013   0.99522   0.00000  Uiso   1.00
H1026  H     0.22193   0.87612   0.76181   0.00000  Uiso   1.00
H1027  H     0.31906   0.58424   0.96939   0.00000  Uiso   1.00
H1028  H     0.35907   0.55817   0.89419   0.00000  Uiso   1.00
H1029  H     0.40065   0.61772   0.84446   0.00000  Uiso   1.00
H1030  H     0.36161   0.76965   0.72127   0.00000  Uiso   1.00
H1031  H     0.32085   0.82983   0.67153   0.00000  Uiso   1.00
H1032  H     0.31916   0.91576   0.69722   0.00000  Uiso   1.00
H1033  H     0.35928   0.94187   0.77233   0.00000  Uiso   1.00
H1034  H     0.40081   0.88231   0.82210   0.00000  Uiso   1.00
H1035  H     0.13864   0.73012   0.72148   0.00000  Uiso   1.00
H1036  H     0.17936   0.66981   0.67187   0.00000  Uiso   1.00
H1037  H     0.27788   0.62387   0.76172   0.00000  Uiso   1.00
H1038  H     0.18074   0.58388   0.69756   0.00000  Uiso   1.00
H1039  H     0.14036   0.55790   0.77253   0.00000  Uiso   1.00
H1040  H     0.09888   0.61760   0.82220   0.00000  Uiso   1.00
H1041  H     0.27807   0.87612   0.90485   0.00000  Uiso   1.00
H1042  H     0.02855   0.81303   0.87947   0.00000  Uiso   1.00
H1043  H     0.47144   0.68709   0.87963   0.00000  Uiso   1.00
H1044  H     0.47146   0.81291   0.78711   0.00000  Uiso   1.00
H1045  H     0.02854   0.68698   0.78727   0.00000  Uiso   1.00
H1046  H     0.22255   0.53502   0.90661   0.00000  Uiso   1.00
N1047  N     0.25000   0.62935   0.83333   0.00000  Uiso   1.00
N1048  N     0.25000   0.87066   0.83333   0.00000  Uiso   1.00
O1049  O     0.18573   0.79072   0.83334   0.00000  Uiso   1.00
O1050  O     0.31427   0.70929   0.83333   0.00000  Uiso   1.00
O1051  O     0.31427   0.79072   0.83333   0.00000  Uiso   1.00
O1052  O     0.18573   0.70929   0.83334   0.00000  Uiso   1.00
O1053  O     0.25000   0.79071   0.76280   0.00000  Uiso   1.00
O1054  O     0.25000   0.70929   0.90387   0.00000  Uiso   1.00
O1055  O     0.25000   0.79071   0.90387   0.00000  Uiso   1.00
O1056  O     0.25000   0.70929   0.76280   0.00000  Uiso   1.00
C1057  C     0.66492   0.75000   0.83334   0.00000  Uiso   1.00
C1058  C     0.76521   0.94640   0.87426   0.00000  Uiso   1.00
C1059  C     0.75000   0.75000   0.74017   0.00000  Uiso   1.00
C1060  C     0.75000   0.75000   0.92650   0.00000  Uiso   1.00
C1061  C     0.75000   0.52722   0.83333   0.00000  Uiso   1.00
C1062  C     0.75000   0.97278   0.83333   0.00000  Uiso   1.00
C1063  C     0.74999   0.75000   0.68852   0.00000  Uiso   1.00
C1064  C     0.74999   0.75000   0.97815   0.00000  Uiso   1.00
C1065  C     0.54682   0.78581   0.85914   0.00000  Uiso   1.00
C1066  C     0.95318   0.71426   0.85923   0.00000  Uiso   1.00
C1067  C     0.95319   0.78574   0.80750   0.00000  Uiso   1.00
C1068  C     0.83508   0.75000   0.83333   0.00000  Uiso   1.00
C1069  C     0.54681   0.71420   0.80760   0.00000  Uiso   1.00
C1070  C     0.59293   0.78564   0.86030   0.00000  Uiso   1.00
C1071  C     0.90706   0.71443   0.86039   0.00000  Uiso   1.00
C1072  C     0.90707   0.78557   0.80631   0.00000  Uiso   1.00
C1073  C     0.59292   0.71437   0.80640   0.00000  Uiso   1.00
C1074  C     0.61641   0.75000   0.83335   0.00000  Uiso   1.00
C1075  C     0.88359   0.75000   0.83334   0.00000  Uiso   1.00
C1076  C     0.52403   0.75000   0.83338   0.00000  Uiso   1.00
C1077  C     0.97597   0.75001   0.83338   0.00000  Uiso   1.00
C1078  C     0.61568   0.82194   0.89138   0.00000  Uiso   1.00
C1079  C     0.73468   0.60448   0.87335   0.00000  Uiso   1.00
C1080  C     0.63846   0.80752   0.93406   0.00000  Uiso   1.00
C1081  C     0.66172   0.84153   0.96204   0.00000  Uiso   1.00
C1082  C     0.66255   0.88997   0.94749   0.00000  Uiso   1.00
C1083  C     0.63977   0.90458   0.90520   0.00000  Uiso   1.00
C1084  C     0.61617   0.87076   0.87732   0.00000  Uiso   1.00
C1085  C     0.88430   0.67822   0.89155   0.00000  Uiso   1.00
C1086  C     0.86167   0.69273   0.93430   0.00000  Uiso   1.00
C1087  C     0.83842   0.65881   0.96239   0.00000  Uiso   1.00
C1088  C     0.83742   0.61037   0.94787   0.00000  Uiso   1.00
C1089  C     0.86003   0.59566   0.90549   0.00000  Uiso   1.00
C1090  C     0.73458   0.89552   0.79336   0.00000  Uiso   1.00
C1091  C     0.88364   0.62940   0.87751   0.00000  Uiso   1.00
C1092  C     0.88433   0.82178   0.77513   0.00000  Uiso   1.00
C1093  C     0.86164   0.80724   0.73243   0.00000  Uiso   1.00
C1094  C     0.83840   0.84116   0.70432   0.00000  Uiso   1.00
C1095  C     0.83749   0.88963   0.71877   0.00000  Uiso   1.00
C1096  C     0.86017   0.90435   0.76109   0.00000  Uiso   1.00
C1097  C     0.88376   0.87062   0.78909   0.00000  Uiso   1.00
C1098  C     0.61566   0.67808   0.77528   0.00000  Uiso   1.00
C1099  C     0.63849   0.69254   0.73264   0.00000  Uiso   1.00
C1100  C     0.66169   0.65854   0.70460   0.00000  Uiso   1.00
C1101  C     0.76531   0.60447   0.79331   0.00000  Uiso   1.00
C1102  C     0.66243   0.61007   0.71905   0.00000  Uiso   1.00
C1103  C     0.63960   0.59542   0.76130   0.00000  Uiso   1.00
C1104  C     0.61605   0.62924   0.78924   0.00000  Uiso   1.00
C1105  C     0.76542   0.89552   0.87331   0.00000  Uiso   1.00
C1106  C     0.73489   0.55360   0.87431   0.00000  Uiso   1.00
C1107  C     0.73478   0.94639   0.79241   0.00000  Uiso   1.00
C1108  C     0.76510   0.55360   0.79235   0.00000  Uiso   1.00
Cu1109 Cu    0.75000   0.79822   0.83333   0.00000  Uiso   1.00
Cu1110 Cu    0.75000   0.70179   0.83333   0.00000  Uiso   1.00
H1111  H     0.72212   0.62388   0.90494   0.00000  Uiso   1.00
H1112  H     0.72235   0.96498   0.76014   0.00000  Uiso   1.00
H1113  H     0.77744   0.53501   0.76005   0.00000  Uiso   1.00
H1114  H     0.77764   0.96499   0.90653   0.00000  Uiso   1.00
H1115  H     0.63855   0.76996   0.94529   0.00000  Uiso   1.00
H1116  H     0.67935   0.83029   0.99480   0.00000  Uiso   1.00
H1117  H     0.68090   0.91616   0.96893   0.00000  Uiso   1.00
H1118  H     0.64060   0.94207   0.89388   0.00000  Uiso   1.00
H1119  H     0.59905   0.88236   0.84432   0.00000  Uiso   1.00
H1120  H     0.86171   0.73030   0.94552   0.00000  Uiso   1.00
H1121  H     0.82091   0.67013   0.99522   0.00000  Uiso   1.00
H1122  H     0.72193   0.87612   0.76181   0.00000  Uiso   1.00
H1123  H     0.81906   0.58424   0.96939   0.00000  Uiso   1.00
H1124  H     0.85907   0.55817   0.89419   0.00000  Uiso   1.00
H1125  H     0.90065   0.61772   0.84446   0.00000  Uiso   1.00
H1126  H     0.86161   0.76965   0.72127   0.00000  Uiso   1.00
H1127  H     0.82085   0.82983   0.67153   0.00000  Uiso   1.00
H1128  H     0.81916   0.91576   0.69722   0.00000  Uiso   1.00
H1129  H     0.85928   0.94187   0.77233   0.00000  Uiso   1.00
H1130  H     0.90081   0.88231   0.82210   0.00000  Uiso   1.00
H1131  H     0.63864   0.73012   0.72148   0.00000  Uiso   1.00
H1132  H     0.67936   0.66981   0.67187   0.00000  Uiso   1.00
H1133  H     0.77788   0.62387   0.76172   0.00000  Uiso   1.00
H1134  H     0.68074   0.58388   0.69756   0.00000  Uiso   1.00
H1135  H     0.64036   0.55790   0.77253   0.00000  Uiso   1.00
H1136  H     0.59888   0.61760   0.82220   0.00000  Uiso   1.00
H1137  H     0.77807   0.87612   0.90485   0.00000  Uiso   1.00
H1138  H     0.52855   0.81303   0.87947   0.00000  Uiso   1.00
H1139  H     0.97144   0.68709   0.87963   0.00000  Uiso   1.00
H1140  H     0.97146   0.81291   0.78711   0.00000  Uiso   1.00
H1141  H     0.52854   0.68698   0.78727   0.00000  Uiso   1.00
H1142  H     0.72255   0.53502   0.90661   0.00000  Uiso   1.00
N1143  N     0.75000   0.62935   0.83333   0.00000  Uiso   1.00
N1144  N     0.75000   0.87066   0.83333   0.00000  Uiso   1.00
O1145  O     0.68573   0.79072   0.83334   0.00000  Uiso   1.00
O1146  O     0.81427   0.70929   0.83333   0.00000  Uiso   1.00
O1147  O     0.81427   0.79072   0.83333   0.00000  Uiso   1.00
O1148  O     0.68573   0.70929   0.83334   0.00000  Uiso   1.00
O1149  O     0.75000   0.79071   0.76280   0.00000  Uiso   1.00
O1150  O     0.75000   0.70929   0.90387   0.00000  Uiso   1.00
O1151  O     0.75000   0.79071   0.90387   0.00000  Uiso   1.00
O1152  O     0.75000   0.70929   0.76280   0.00000  Uiso   1.00
loop_
_geom_bond_atom_site_label_1
_geom_bond_atom_site_label_2
_geom_bond_distance
_geom_bond_site_symmetry_2
_ccdc_geom_bond_type
C1     C18     1.465   .     S
C1     O92     1.290   .     A
C1     O89     1.290   .     A
C2     C49     1.408   .     A
C2     C6      1.407   .     A
C2     H58     1.083   .     S
C3     C7      1.402   .     S
C3     O96     1.283   .     A
C3     O93     1.283   .     A
C4     C8      1.402   .     S
C4     O95     1.283   .     A
C4     O94     1.283   .     A
C5     C52     1.407   .     A
C5     C50     1.407   .     A
C5     C198    1.507   1_545 S
C6     C51     1.407   .     A
C6     C197    1.507   .     S
C7     C776    1.186   1_554 S
C8     C391    1.186   .     S
C9     H82     1.085   .     S
C9     C14     1.393   .     A
C9     C20     1.395   .     A
C10    C15     1.393   .     A
C10    H83     1.085   .     S
C10    C21     1.395   .     A
C11    C21     1.395   .     A
C11    C16     1.393   .     A
C11    H84     1.085   .     S
C12    O91     1.290   .     A
C12    O90     1.290   .     A
C12    C19     1.465   .     S
C13    C20     1.395   .     A
C13    C17     1.393   .     A
C13    H85     1.085   .     S
C14    C18     1.418   .     A
C14    C22     1.481   .     S
C15    C19     1.418   .     A
C15    C29     1.481   .     S
C16    C36     1.481   .     S
C16    C19     1.418   .     A
C17    C42     1.481   .     S
C17    C18     1.418   .     A
C20    C117    1.452   1_455 S
C21    C116    1.452   .     S
C22    C28     1.404   .     A
C22    C24     1.405   .     A
C23    N87     1.367   .     A
C23    C50     1.408   .     A
C23    H55     1.081   .     S
C24    H59     1.083   .     S
C24    C25     1.399   .     A
C25    H60     1.082   .     S
C25    C26     1.398   .     A
C26    H61     1.082   .     S
C26    C27     1.398   .     A
C27    H62     1.082   .     S
C27    C28     1.399   .     A
C28    H63     1.083   .     S
C29    C30     1.405   .     A
C29    C35     1.404   .     A
C30    H64     1.083   .     S
C30    C31     1.399   .     A
C31    C32     1.398   .     A
C31    H65     1.082   .     S
C32    H67     1.082   .     S
C32    C33     1.398   .     A
C33    C35     1.399   .     A
C33    H68     1.082   .     S
C34    H66     1.081   .     S
C34    N88     1.367   .     A
C34    C51     1.408   .     A
C35    H69     1.083   .     S
C36    C37     1.405   .     A
C36    C41     1.404   .     A
C37    H70     1.083   .     S
C37    C38     1.399   .     A
C38    C39     1.398   .     A
C38    H71     1.082   .     S
C39    H72     1.082   .     S
C39    C40     1.398   .     A
C40    H73     1.082   .     S
C40    C41     1.399   .     A
C41    H74     1.083   .     S
C42    C48     1.404   .     A
C42    C43     1.405   .     A
C43    H75     1.083   .     S
C43    C44     1.399   .     A
C44    H76     1.082   .     S
C44    C46     1.398   .     A
C45    C52     1.408   .     A
C45    N87     1.367   .     A
C45    H77     1.081   .     S
C46    C47     1.398   .     A
C46    H78     1.082   .     S
C47    H79     1.082   .     S
C47    C48     1.399   .     A
C48    H80     1.083   .     S
C49    H81     1.081   .     S
C49    N88     1.367   .     A
C50    H86     1.083   .     S
C51    H56     1.083   .     S
C52    H57     1.083   .     S
Cu53   O95     1.926   .     S
Cu53   Cu54    2.669   .     S
Cu53   O91     1.952   .     S
Cu53   O93     1.926   .     S
Cu53   O89     1.952   .     S
Cu53   N88     2.005   .     S
Cu54   O90     1.952   .     S
Cu54   O96     1.926   .     S
Cu54   O92     1.952   .     S
Cu54   N87     2.005   .     S
Cu54   O94     1.926   .     S
C97    C114    1.465   .     S
C97    O188    1.290   .     A
C97    O185    1.290   .     A
C98    C145    1.408   .     A
C98    C102    1.407   .     A
C98    H154    1.083   .     S
C99    C103    1.402   .     S
C99    O192    1.283   .     A
C99    O189    1.283   .     A
C100   C104    1.402   .     S
C100   O191    1.283   .     A
C100   O190    1.283   .     A
C101   C148    1.407   .     A
C101   C146    1.407   .     A
C101   C294    1.507   1_545 S
C102   C147    1.407   .     A
C102   C293    1.507   .     S
C103   C872    1.186   1_554 S
C104   C487    1.186   .     S
C105   H178    1.085   .     S
C105   C110    1.393   .     A
C105   C116    1.395   .     A
C106   C111    1.393   .     A
C106   H179    1.085   .     S
C106   C117    1.395   .     A
C107   C117    1.395   .     A
C107   C112    1.393   .     A
C107   H180    1.085   .     S
C108   O187    1.290   .     A
C108   O186    1.290   .     A
C108   C115    1.465   .     S
C109   C116    1.395   .     A
C109   C113    1.393   .     A
C109   H181    1.085   .     S
C110   C114    1.418   .     A
C110   C118    1.481   .     S
C111   C115    1.418   .     A
C111   C125    1.481   .     S
C112   C132    1.481   .     S
C112   C115    1.418   .     A
C113   C138    1.481   .     S
C113   C114    1.418   .     A
C117   C20     1.452   1_655 S
C118   C124    1.404   .     A
C118   C120    1.405   .     A
C119   N183    1.367   .     A
C119   C146    1.408   .     A
C119   H151    1.081   .     S
C120   H155    1.083   .     S
C120   C121    1.399   .     A
C121   H156    1.082   .     S
C121   C122    1.398   .     A
C122   H157    1.082   .     S
C122   C123    1.398   .     A
C123   H158    1.082   .     S
C123   C124    1.399   .     A
C124   H159    1.083   .     S
C125   C126    1.405   .     A
C125   C131    1.404   .     A
C126   H160    1.083   .     S
C126   C127    1.399   .     A
C127   C128    1.398   .     A
C127   H161    1.082   .     S
C128   H163    1.082   .     S
C128   C129    1.398   .     A
C129   C131    1.399   .     A
C129   H164    1.082   .     S
C130   H162    1.081   .     S
C130   N184    1.367   .     A
C130   C147    1.408   .     A
C131   H165    1.083   .     S
C132   C133    1.405   .     A
C132   C137    1.404   .     A
C133   H166    1.083   .     S
C133   C134    1.399   .     A
C134   C135    1.398   .     A
C134   H167    1.082   .     S
C135   H168    1.082   .     S
C135   C136    1.398   .     A
C136   H169    1.082   .     S
C136   C137    1.399   .     A
C137   H170    1.083   .     S
C138   C144    1.404   .     A
C138   C139    1.405   .     A
C139   H171    1.083   .     S
C139   C140    1.399   .     A
C140   H172    1.082   .     S
C140   C142    1.398   .     A
C141   C148    1.408   .     A
C141   N183    1.367   .     A
C141   H173    1.081   .     S
C142   C143    1.398   .     A
C142   H174    1.082   .     S
C143   H175    1.082   .     S
C143   C144    1.399   .     A
C144   H176    1.083   .     S
C145   H177    1.081   .     S
C145   N184    1.367   .     A
C146   H182    1.083   .     S
C147   H152    1.083   .     S
C148   H153    1.083   .     S
Cu149  O191    1.926   .     S
Cu149  Cu150   2.669   .     S
Cu149  O187    1.952   .     S
Cu149  O189    1.926   .     S
Cu149  O185    1.952   .     S
Cu149  N184    2.005   .     S
Cu150  O186    1.952   .     S
Cu150  O192    1.926   .     S
Cu150  O188    1.952   .     S
Cu150  N183    2.005   .     S
Cu150  O190    1.926   .     S
C193   C210    1.465   .     S
C193   O284    1.290   .     A
C193   O281    1.290   .     A
C194   C241    1.408   .     A
C194   C198    1.407   .     A
C194   H250    1.083   .     S
C195   C199    1.402   .     S
C195   O288    1.283   .     A
C195   O285    1.283   .     A
C196   C200    1.402   .     S
C196   O287    1.283   .     A
C196   O286    1.283   .     A
C197   C244    1.407   .     A
C197   C242    1.407   .     A
C198   C243    1.407   .     A
C198   C5      1.507   1_565 S
C199   C968    1.186   1_554 S
C200   C583    1.186   .     S
C201   H274    1.085   .     S
C201   C206    1.393   .     A
C201   C212    1.395   .     A
C202   C207    1.393   .     A
C202   H275    1.085   .     S
C202   C213    1.395   .     A
C203   C213    1.395   .     A
C203   C208    1.393   .     A
C203   H276    1.085   .     S
C204   O283    1.290   .     A
C204   O282    1.290   .     A
C204   C211    1.465   .     S
C205   C212    1.395   .     A
C205   C209    1.393   .     A
C205   H277    1.085   .     S
C206   C210    1.418   .     A
C206   C214    1.481   .     S
C207   C211    1.418   .     A
C207   C221    1.481   .     S
C208   C228    1.481   .     S
C208   C211    1.418   .     A
C209   C234    1.481   .     S
C209   C210    1.418   .     A
C212   C309    1.452   1_455 S
C213   C308    1.452   .     S
C214   C220    1.404   .     A
C214   C216    1.405   .     A
C215   N279    1.367   .     A
C215   C242    1.408   .     A
C215   H247    1.081   .     S
C216   H251    1.083   .     S
C216   C217    1.399   .     A
C217   H252    1.082   .     S
C217   C218    1.398   .     A
C218   H253    1.082   .     S
C218   C219    1.398   .     A
C219   H254    1.082   .     S
C219   C220    1.399   .     A
C220   H255    1.083   .     S
C221   C222    1.405   .     A
C221   C227    1.404   .     A
C222   H256    1.083   .     S
C222   C223    1.399   .     A
C223   C224    1.398   .     A
C223   H257    1.082   .     S
C224   H259    1.082   .     S
C224   C225    1.398   .     A
C225   C227    1.399   .     A
C225   H260    1.082   .     S
C226   H258    1.081   .     S
C226   N280    1.367   .     A
C226   C243    1.408   .     A
C227   H261    1.083   .     S
C228   C229    1.405   .     A
C228   C233    1.404   .     A
C229   H262    1.083   .     S
C229   C230    1.399   .     A
C230   C231    1.398   .     A
C230   H263    1.082   .     S
C231   H264    1.082   .     S
C231   C232    1.398   .     A
C232   H265    1.082   .     S
C232   C233    1.399   .     A
C233   H266    1.083   .     S
C234   C240    1.404   .     A
C234   C235    1.405   .     A
C235   H267    1.083   .     S
C235   C236    1.399   .     A
C236   H268    1.082   .     S
C236   C238    1.398   .     A
C237   C244    1.408   .     A
C237   N279    1.367   .     A
C237   H269    1.081   .     S
C238   C239    1.398   .     A
C238   H270    1.082   .     S
C239   H271    1.082   .     S
C239   C240    1.399   .     A
C240   H272    1.083   .     S
C241   H273    1.081   .     S
C241   N280    1.367   .     A
C242   H278    1.083   .     S
C243   H248    1.083   .     S
C244   H249    1.083   .     S
Cu245  O287    1.926   .     S
Cu245  Cu246   2.669   .     S
Cu245  O283    1.952   .     S
Cu245  O285    1.926   .     S
Cu245  O281    1.952   .     S
Cu245  N280    2.005   .     S
Cu246  O282    1.952   .     S
Cu246  O288    1.926   .     S
Cu246  O284    1.952   .     S
Cu246  N279    2.005   .     S
Cu246  O286    1.926   .     S
C289   C306    1.465   .     S
C289   O380    1.290   .     A
C289   O377    1.290   .     A
C290   C337    1.408   .     A
C290   C294    1.407   .     A
C290   H346    1.083   .     S
C291   C295    1.402   .     S
C291   O384    1.283   .     A
C291   O381    1.283   .     A
C292   C296    1.402   .     S
C292   O383    1.283   .     A
C292   O382    1.283   .     A
C293   C340    1.407   .     A
C293   C338    1.407   .     A
C294   C339    1.407   .     A
C294   C101    1.507   1_565 S
C295   C1064   1.186   1_554 S
C296   C679    1.186   .     S
C297   H370    1.085   .     S
C297   C302    1.393   .     A
C297   C308    1.395   .     A
C298   C303    1.393   .     A
C298   H371    1.085   .     S
C298   C309    1.395   .     A
C299   C309    1.395   .     A
C299   C304    1.393   .     A
C299   H372    1.085   .     S
C300   O379    1.290   .     A
C300   O378    1.290   .     A
C300   C307    1.465   .     S
C301   C308    1.395   .     A
C301   C305    1.393   .     A
C301   H373    1.085   .     S
C302   C306    1.418   .     A
C302   C310    1.481   .     S
C303   C307    1.418   .     A
C303   C317    1.481   .     S
C304   C324    1.481   .     S
C304   C307    1.418   .     A
C305   C330    1.481   .     S
C305   C306    1.418   .     A
C309   C212    1.452   1_655 S
C310   C316    1.404   .     A
C310   C312    1.405   .     A
C311   N375    1.367   .     A
C311   C338    1.408   .     A
C311   H343    1.081   .     S
C312   H347    1.083   .     S
C312   C313    1.399   .     A
C313   H348    1.082   .     S
C313   C314    1.398   .     A
C314   H349    1.082   .     S
C314   C315    1.398   .     A
C315   H350    1.082   .     S
C315   C316    1.399   .     A
C316   H351    1.083   .     S
C317   C318    1.405   .     A
C317   C323    1.404   .     A
C318   H352    1.083   .     S
C318   C319    1.399   .     A
C319   C320    1.398   .     A
C319   H353    1.082   .     S
C320   H355    1.082   .     S
C320   C321    1.398   .     A
C321   C323    1.399   .     A
C321   H356    1.082   .     S
C322   H354    1.081   .     S
C322   N376    1.367   .     A
C322   C339    1.408   .     A
C323   H357    1.083   .     S
C324   C325    1.405   .     A
C324   C329    1.404   .     A
C325   H358    1.083   .     S
C325   C326    1.399   .     A
C326   C327    1.398   .     A
C326   H359    1.082   .     S
C327   H360    1.082   .     S
C327   C328    1.398   .     A
C328   H361    1.082   .     S
C328   C329    1.399   .     A
C329   H362    1.083   .     S
C330   C336    1.404   .     A
C330   C331    1.405   .     A
C331   H363    1.083   .     S
C331   C332    1.399   .     A
C332   H364    1.082   .     S
C332   C334    1.398   .     A
C333   C340    1.408   .     A
C333   N375    1.367   .     A
C333   H365    1.081   .     S
C334   C335    1.398   .     A
C334   H366    1.082   .     S
C335   H367    1.082   .     S
C335   C336    1.399   .     A
C336   H368    1.083   .     S
C337   H369    1.081   .     S
C337   N376    1.367   .     A
C338   H374    1.083   .     S
C339   H344    1.083   .     S
C340   H345    1.083   .     S
Cu341  O383    1.926   .     S
Cu341  Cu342   2.669   .     S
Cu341  O379    1.952   .     S
Cu341  O381    1.926   .     S
Cu341  O377    1.952   .     S
Cu341  N376    2.005   .     S
Cu342  O378    1.952   .     S
Cu342  O384    1.926   .     S
Cu342  O380    1.952   .     S
Cu342  N375    2.005   .     S
Cu342  O382    1.926   .     S
C385   C402    1.465   .     S
C385   O476    1.290   .     A
C385   O473    1.290   .     A
C386   C433    1.408   .     A
C386   C390    1.407   .     A
C386   H442    1.083   .     S
C387   C391    1.402   .     S
C387   O480    1.283   .     A
C387   O477    1.283   .     A
C388   C392    1.402   .     S
C388   O479    1.283   .     A
C388   O478    1.283   .     A
C389   C436    1.407   .     A
C389   C434    1.407   .     A
C389   C582    1.507   1_545 S
C390   C435    1.407   .     A
C390   C581    1.507   .     S
C392   C775    1.186   .     S
C393   H466    1.085   .     S
C393   C398    1.393   .     A
C393   C404    1.395   .     A
C394   C399    1.393   .     A
C394   H467    1.085   .     S
C394   C405    1.395   .     A
C395   C405    1.395   .     A
C395   C400    1.393   .     A
C395   H468    1.085   .     S
C396   O475    1.290   .     A
C396   O474    1.290   .     A
C396   C403    1.465   .     S
C397   C404    1.395   .     A
C397   C401    1.393   .     A
C397   H469    1.085   .     S
C398   C402    1.418   .     A
C398   C406    1.481   .     S
C399   C403    1.418   .     A
C399   C413    1.481   .     S
C400   C420    1.481   .     S
C400   C403    1.418   .     A
C401   C426    1.481   .     S
C401   C402    1.418   .     A
C404   C501    1.452   1_455 S
C405   C500    1.452   .     S
C406   C412    1.404   .     A
C406   C408    1.405   .     A
C407   N471    1.367   .     A
C407   C434    1.408   .     A
C407   H439    1.081   .     S
C408   H443    1.083   .     S
C408   C409    1.399   .     A
C409   H444    1.082   .     S
C409   C410    1.398   .     A
C410   H445    1.082   .     S
C410   C411    1.398   .     A
C411   H446    1.082   .     S
C411   C412    1.399   .     A
C412   H447    1.083   .     S
C413   C414    1.405   .     A
C413   C419    1.404   .     A
C414   H448    1.083   .     S
C414   C415    1.399   .     A
C415   C416    1.398   .     A
C415   H449    1.082   .     S
C416   H451    1.082   .     S
C416   C417    1.398   .     A
C417   C419    1.399   .     A
C417   H452    1.082   .     S
C418   H450    1.081   .     S
C418   N472    1.367   .     A
C418   C435    1.408   .     A
C419   H453    1.083   .     S
C420   C421    1.405   .     A
C420   C425    1.404   .     A
C421   H454    1.083   .     S
C421   C422    1.399   .     A
C422   C423    1.398   .     A
C422   H455    1.082   .     S
C423   H456    1.082   .     S
C423   C424    1.398   .     A
C424   H457    1.082   .     S
C424   C425    1.399   .     A
C425   H458    1.083   .     S
C426   C432    1.404   .     A
C426   C427    1.405   .     A
C427   H459    1.083   .     S
C427   C428    1.399   .     A
C428   H460    1.082   .     S
C428   C430    1.398   .     A
C429   C436    1.408   .     A
C429   N471    1.367   .     A
C429   H461    1.081   .     S
C430   C431    1.398   .     A
C430   H462    1.082   .     S
C431   H463    1.082   .     S
C431   C432    1.399   .     A
C432   H464    1.083   .     S
C433   H465    1.081   .     S
C433   N472    1.367   .     A
C434   H470    1.083   .     S
C435   H440    1.083   .     S
C436   H441    1.083   .     S
Cu437  O479    1.926   .     S
Cu437  Cu438   2.669   .     S
Cu437  O475    1.952   .     S
Cu437  O477    1.926   .     S
Cu437  O473    1.952   .     S
Cu437  N472    2.005   .     S
Cu438  O474    1.952   .     S
Cu438  O480    1.926   .     S
Cu438  O476    1.952   .     S
Cu438  N471    2.005   .     S
Cu438  O478    1.926   .     S
C481   C498    1.465   .     S
C481   O572    1.290   .     A
C481   O569    1.290   .     A
C482   C529    1.408   .     A
C482   C486    1.407   .     A
C482   H538    1.083   .     S
C483   C487    1.402   .     S
C483   O576    1.283   .     A
C483   O573    1.283   .     A
C484   C488    1.402   .     S
C484   O575    1.283   .     A
C484   O574    1.283   .     A
C485   C532    1.407   .     A
C485   C530    1.407   .     A
C485   C678    1.507   1_545 S
C486   C531    1.407   .     A
C486   C677    1.507   .     S
C488   C871    1.186   .     S
C489   H562    1.085   .     S
C489   C494    1.393   .     A
C489   C500    1.395   .     A
C490   C495    1.393   .     A
C490   H563    1.085   .     S
C490   C501    1.395   .     A
C491   C501    1.395   .     A
C491   C496    1.393   .     A
C491   H564    1.085   .     S
C492   O571    1.290   .     A
C492   O570    1.290   .     A
C492   C499    1.465   .     S
C493   C500    1.395   .     A
C493   C497    1.393   .     A
C493   H565    1.085   .     S
C494   C498    1.418   .     A
C494   C502    1.481   .     S
C495   C499    1.418   .     A
C495   C509    1.481   .     S
C496   C516    1.481   .     S
C496   C499    1.418   .     A
C497   C522    1.481   .     S
C497   C498    1.418   .     A
C501   C404    1.452   1_655 S
C502   C508    1.404   .     A
C502   C504    1.405   .     A
C503   N567    1.367   .     A
C503   C530    1.408   .     A
C503   H535    1.081   .     S
C504   H539    1.083   .     S
C504   C505    1.399   .     A
C505   H540    1.082   .     S
C505   C506    1.398   .     A
C506   H541    1.082   .     S
C506   C507    1.398   .     A
C507   H542    1.082   .     S
C507   C508    1.399   .     A
C508   H543    1.083   .     S
C509   C510    1.405   .     A
C509   C515    1.404   .     A
C510   H544    1.083   .     S
C510   C511    1.399   .     A
C511   C512    1.398   .     A
C511   H545    1.082   .     S
C512   H547    1.082   .     S
C512   C513    1.398   .     A
C513   C515    1.399   .     A
C513   H548    1.082   .     S
C514   H546    1.081   .     S
C514   N568    1.367   .     A
C514   C531    1.408   .     A
C515   H549    1.083   .     S
C516   C517    1.405   .     A
C516   C521    1.404   .     A
C517   H550    1.083   .     S
C517   C518    1.399   .     A
C518   C519    1.398   .     A
C518   H551    1.082   .     S
C519   H552    1.082   .     S
C519   C520    1.398   .     A
C520   H553    1.082   .     S
C520   C521    1.399   .     A
C521   H554    1.083   .     S
C522   C528    1.404   .     A
C522   C523    1.405   .     A
C523   H555    1.083   .     S
C523   C524    1.399   .     A
C524   H556    1.082   .     S
C524   C526    1.398   .     A
C525   C532    1.408   .     A
C525   N567    1.367   .     A
C525   H557    1.081   .     S
C526   C527    1.398   .     A
C526   H558    1.082   .     S
C527   H559    1.082   .     S
C527   C528    1.399   .     A
C528   H560    1.083   .     S
C529   H561    1.081   .     S
C529   N568    1.367   .     A
C530   H566    1.083   .     S
C531   H536    1.083   .     S
C532   H537    1.083   .     S
Cu533  O575    1.926   .     S
Cu533  Cu534   2.669   .     S
Cu533  O571    1.952   .     S
Cu533  O573    1.926   .     S
Cu533  O569    1.952   .     S
Cu533  N568    2.005   .     S
Cu534  O570    1.952   .     S
Cu534  O576    1.926   .     S
Cu534  O572    1.952   .     S
Cu534  N567    2.005   .     S
Cu534  O574    1.926   .     S
C577   C594    1.465   .     S
C577   O668    1.290   .     A
C577   O665    1.290   .     A
C578   C625    1.408   .     A
C578   C582    1.407   .     A
C578   H634    1.083   .     S
C579   C583    1.402   .     S
C579   O672    1.283   .     A
C579   O669    1.283   .     A
C580   C584    1.402   .     S
C580   O671    1.283   .     A
C580   O670    1.283   .     A
C581   C628    1.407   .     A
C581   C626    1.407   .     A
C582   C627    1.407   .     A
C582   C389    1.507   1_565 S
C584   C967    1.186   .     S
C585   H658    1.085   .     S
C585   C590    1.393   .     A
C585   C596    1.395   .     A
C586   C591    1.393   .     A
C586   H659    1.085   .     S
C586   C597    1.395   .     A
C587   C597    1.395   .     A
C587   C592    1.393   .     A
C587   H660    1.085   .     S
C588   O667    1.290   .     A
C588   O666    1.290   .     A
C588   C595    1.465   .     S
C589   C596    1.395   .     A
C589   C593    1.393   .     A
C589   H661    1.085   .     S
C590   C594    1.418   .     A
C590   C598    1.481   .     S
C591   C595    1.418   .     A
C591   C605    1.481   .     S
C592   C612    1.481   .     S
C592   C595    1.418   .     A
C593   C618    1.481   .     S
C593   C594    1.418   .     A
C596   C693    1.452   1_455 S
C597   C692    1.452   .     S
C598   C604    1.404   .     A
C598   C600    1.405   .     A
C599   N663    1.367   .     A
C599   C626    1.408   .     A
C599   H631    1.081   .     S
C600   H635    1.083   .     S
C600   C601    1.399   .     A
C601   H636    1.082   .     S
C601   C602    1.398   .     A
C602   H637    1.082   .     S
C602   C603    1.398   .     A
C603   H638    1.082   .     S
C603   C604    1.399   .     A
C604   H639    1.083   .     S
C605   C606    1.405   .     A
C605   C611    1.404   .     A
C606   H640    1.083   .     S
C606   C607    1.399   .     A
C607   C608    1.398   .     A
C607   H641    1.082   .     S
C608   H643    1.082   .     S
C608   C609    1.398   .     A
C609   C611    1.399   .     A
C609   H644    1.082   .     S
C610   H642    1.081   .     S
C610   N664    1.367   .     A
C610   C627    1.408   .     A
C611   H645    1.083   .     S
C612   C613    1.405   .     A
C612   C617    1.404   .     A
C613   H646    1.083   .     S
C613   C614    1.399   .     A
C614   C615    1.398   .     A
C614   H647    1.082   .     S
C615   H648    1.082   .     S
C615   C616    1.398   .     A
C616   H649    1.082   .     S
C616   C617    1.399   .     A
C617   H650    1.083   .     S
C618   C624    1.404   .     A
C618   C619    1.405   .     A
C619   H651    1.083   .     S
C619   C620    1.399   .     A
C620   H652    1.082   .     S
C620   C622    1.398   .     A
C621   C628    1.408   .     A
C621   N663    1.367   .     A
C621   H653    1.081   .     S
C622   C623    1.398   .     A
C622   H654    1.082   .     S
C623   H655    1.082   .     S
C623   C624    1.399   .     A
C624   H656    1.083   .     S
C625   H657    1.081   .     S
C625   N664    1.367   .     A
C626   H662    1.083   .     S
C627   H632    1.083   .     S
C628   H633    1.083   .     S
Cu629  O671    1.926   .     S
Cu629  Cu630   2.669   .     S
Cu629  O667    1.952   .     S
Cu629  O669    1.926   .     S
Cu629  O665    1.952   .     S
Cu629  N664    2.005   .     S
Cu630  O666    1.952   .     S
Cu630  O672    1.926   .     S
Cu630  O668    1.952   .     S
Cu630  N663    2.005   .     S
Cu630  O670    1.926   .     S
C673   C690    1.465   .     S
C673   O764    1.290   .     A
C673   O761    1.290   .     A
C674   C721    1.408   .     A
C674   C678    1.407   .     A
C674   H730    1.083   .     S
C675   C679    1.402   .     S
C675   O768    1.283   .     A
C675   O765    1.283   .     A
C676   C680    1.402   .     S
C676   O767    1.283   .     A
C676   O766    1.283   .     A
C677   C724    1.407   .     A
C677   C722    1.407   .     A
C678   C723    1.407   .     A
C678   C485    1.507   1_565 S
C680   C1063   1.186   .     S
C681   H754    1.085   .     S
C681   C686    1.393   .     A
C681   C692    1.395   .     A
C682   C687    1.393   .     A
C682   H755    1.085   .     S
C682   C693    1.395   .     A
C683   C693    1.395   .     A
C683   C688    1.393   .     A
C683   H756    1.085   .     S
C684   O763    1.290   .     A
C684   O762    1.290   .     A
C684   C691    1.465   .     S
C685   C692    1.395   .     A
C685   C689    1.393   .     A
C685   H757    1.085   .     S
C686   C690    1.418   .     A
C686   C694    1.481   .     S
C687   C691    1.418   .     A
C687   C701    1.481   .     S
C688   C708    1.481   .     S
C688   C691    1.418   .     A
C689   C714    1.481   .     S
C689   C690    1.418   .     A
C693   C596    1.452   1_655 S
C694   C700    1.404   .     A
C694   C696    1.405   .     A
C695   N759    1.367   .     A
C695   C722    1.408   .     A
C695   H727    1.081   .     S
C696   H731    1.083   .     S
C696   C697    1.399   .     A
C697   H732    1.082   .     S
C697   C698    1.398   .     A
C698   H733    1.082   .     S
C698   C699    1.398   .     A
C699   H734    1.082   .     S
C699   C700    1.399   .     A
C700   H735    1.083   .     S
C701   C702    1.405   .     A
C701   C707    1.404   .     A
C702   H736    1.083   .     S
C702   C703    1.399   .     A
C703   C704    1.398   .     A
C703   H737    1.082   .     S
C704   H739    1.082   .     S
C704   C705    1.398   .     A
C705   C707    1.399   .     A
C705   H740    1.082   .     S
C706   H738    1.081   .     S
C706   N760    1.367   .     A
C706   C723    1.408   .     A
C707   H741    1.083   .     S
C708   C709    1.405   .     A
C708   C713    1.404   .     A
C709   H742    1.083   .     S
C709   C710    1.399   .     A
C710   C711    1.398   .     A
C710   H743    1.082   .     S
C711   H744    1.082   .     S
C711   C712    1.398   .     A
C712   H745    1.082   .     S
C712   C713    1.399   .     A
C713   H746    1.083   .     S
C714   C720    1.404   .     A
C714   C715    1.405   .     A
C715   H747    1.083   .     S
C715   C716    1.399   .     A
C716   H748    1.082   .     S
C716   C718    1.398   .     A
C717   C724    1.408   .     A
C717   N759    1.367   .     A
C717   H749    1.081   .     S
C718   C719    1.398   .     A
C718   H750    1.082   .     S
C719   H751    1.082   .     S
C719   C720    1.399   .     A
C720   H752    1.083   .     S
C721   H753    1.081   .     S
C721   N760    1.367   .     A
C722   H758    1.083   .     S
C723   H728    1.083   .     S
C724   H729    1.083   .     S
Cu725  O767    1.926   .     S
Cu725  Cu726   2.669   .     S
Cu725  O763    1.952   .     S
Cu725  O765    1.926   .     S
Cu725  O761    1.952   .     S
Cu725  N760    2.005   .     S
Cu726  O762    1.952   .     S
Cu726  O768    1.926   .     S
Cu726  O764    1.952   .     S
Cu726  N759    2.005   .     S
Cu726  O766    1.926   .     S
C769   C786    1.465   .     S
C769   O860    1.290   .     A
C769   O857    1.290   .     A
C770   C817    1.408   .     A
C770   C774    1.407   .     A
C770   H826    1.083   .     S
C771   C775    1.402   .     S
C771   O864    1.283   .     A
C771   O861    1.283   .     A
C772   C776    1.402   .     S
C772   O863    1.283   .     A
C772   O862    1.283   .     A
C773   C820    1.407   .     A
C773   C818    1.407   .     A
C773   C966    1.507   1_545 S
C774   C819    1.407   .     A
C774   C965    1.507   .     S
C776   C7      1.186   1_556 S
C777   H850    1.085   .     S
C777   C782    1.393   .     A
C777   C788    1.395   .     A
C778   C783    1.393   .     A
C778   H851    1.085   .     S
C778   C789    1.395   .     A
C779   C789    1.395   .     A
C779   C784    1.393   .     A
C779   H852    1.085   .     S
C780   O859    1.290   .     A
C780   O858    1.290   .     A
C780   C787    1.465   .     S
C781   C788    1.395   .     A
C781   C785    1.393   .     A
C781   H853    1.085   .     S
C782   C786    1.418   .     A
C782   C790    1.481   .     S
C783   C787    1.418   .     A
C783   C797    1.481   .     S
C784   C804    1.481   .     S
C784   C787    1.418   .     A
C785   C810    1.481   .     S
C785   C786    1.418   .     A
C788   C885    1.452   1_455 S
C789   C884    1.452   .     S
C790   C796    1.404   .     A
C790   C792    1.405   .     A
C791   N855    1.367   .     A
C791   C818    1.408   .     A
C791   H823    1.081   .     S
C792   H827    1.083   .     S
C792   C793    1.399   .     A
C793   H828    1.082   .     S
C793   C794    1.398   .     A
C794   H829    1.082   .     S
C794   C795    1.398   .     A
C795   H830    1.082   .     S
C795   C796    1.399   .     A
C796   H831    1.083   .     S
C797   C798    1.405   .     A
C797   C803    1.404   .     A
C798   H832    1.083   .     S
C798   C799    1.399   .     A
C799   C800    1.398   .     A
C799   H833    1.082   .     S
C800   H835    1.082   .     S
C800   C801    1.398   .     A
C801   C803    1.399   .     A
C801   H836    1.082   .     S
C802   H834    1.081   .     S
C802   N856    1.367   .     A
C802   C819    1.408   .     A
C803   H837    1.083   .     S
C804   C805    1.405   .     A
C804   C809    1.404   .     A
C805   H838    1.083   .     S
C805   C806    1.399   .     A
C806   C807    1.398   .     A
C806   H839    1.082   .     S
C807   H840    1.082   .     S
C807   C808    1.398   .     A
C808   H841    1.082   .     S
C808   C809    1.399   .     A
C809   H842    1.083   .     S
C810   C816    1.404   .     A
C810   C811    1.405   .     A
C811   H843    1.083   .     S
C811   C812    1.399   .     A
C812   H844    1.082   .     S
C812   C814    1.398   .     A
C813   C820    1.408   .     A
C813   N855    1.367   .     A
C813   H845    1.081   .     S
C814   C815    1.398   .     A
C814   H846    1.082   .     S
C815   H847    1.082   .     S
C815   C816    1.399   .     A
C816   H848    1.083   .     S
C817   H849    1.081   .     S
C817   N856    1.367   .     A
C818   H854    1.083   .     S
C819   H824    1.083   .     S
C820   H825    1.083   .     S
Cu821  O863    1.926   .     S
Cu821  Cu822   2.669   .     S
Cu821  O859    1.952   .     S
Cu821  O861    1.926   .     S
Cu821  O857    1.952   .     S
Cu821  N856    2.005   .     S
Cu822  O858    1.952   .     S
Cu822  O864    1.926   .     S
Cu822  O860    1.952   .     S
Cu822  N855    2.005   .     S
Cu822  O862    1.926   .     S
C865   C882    1.465   .     S
C865   O956    1.290   .     A
C865   O953    1.290   .     A
C866   C913    1.408   .     A
C866   C870    1.407   .     A
C866   H922    1.083   .     S
C867   C871    1.402   .     S
C867   O960    1.283   .     A
C867   O957    1.283   .     A
C868   C872    1.402   .     S
C868   O959    1.283   .     A
C868   O958    1.283   .     A
C869   C916    1.407   .     A
C869   C914    1.407   .     A
C869   C1062   1.507   1_545 S
C870   C915    1.407   .     A
C870   C1061   1.507   .     S
C872   C103    1.186   1_556 S
C873   H946    1.085   .     S
C873   C878    1.393   .     A
C873   C884    1.395   .     A
C874   C879    1.393   .     A
C874   H947    1.085   .     S
C874   C885    1.395   .     A
C875   C885    1.395   .     A
C875   C880    1.393   .     A
C875   H948    1.085   .     S
C876   O955    1.290   .     A
C876   O954    1.290   .     A
C876   C883    1.465   .     S
C877   C884    1.395   .     A
C877   C881    1.393   .     A
C877   H949    1.085   .     S
C878   C882    1.418   .     A
C878   C886    1.481   .     S
C879   C883    1.418   .     A
C879   C893    1.481   .     S
C880   C900    1.481   .     S
C880   C883    1.418   .     A
C881   C906    1.481   .     S
C881   C882    1.418   .     A
C885   C788    1.452   1_655 S
C886   C892    1.404   .     A
C886   C888    1.405   .     A
C887   N951    1.367   .     A
C887   C914    1.408   .     A
C887   H919    1.081   .     S
C888   H923    1.083   .     S
C888   C889    1.399   .     A
C889   H924    1.082   .     S
C889   C890    1.398   .     A
C890   H925    1.082   .     S
C890   C891    1.398   .     A
C891   H926    1.082   .     S
C891   C892    1.399   .     A
C892   H927    1.083   .     S
C893   C894    1.405   .     A
C893   C899    1.404   .     A
C894   H928    1.083   .     S
C894   C895    1.399   .     A
C895   C896    1.398   .     A
C895   H929    1.082   .     S
C896   H931    1.082   .     S
C896   C897    1.398   .     A
C897   C899    1.399   .     A
C897   H932    1.082   .     S
C898   H930    1.081   .     S
C898   N952    1.367   .     A
C898   C915    1.408   .     A
C899   H933    1.083   .     S
C900   C901    1.405   .     A
C900   C905    1.404   .     A
C901   H934    1.083   .     S
C901   C902    1.399   .     A
C902   C903    1.398   .     A
C902   H935    1.082   .     S
C903   H936    1.082   .     S
C903   C904    1.398   .     A
C904   H937    1.082   .     S
C904   C905    1.399   .     A
C905   H938    1.083   .     S
C906   C912    1.404   .     A
C906   C907    1.405   .     A
C907   H939    1.083   .     S
C907   C908    1.399   .     A
C908   H940    1.082   .     S
C908   C910    1.398   .     A
C909   C916    1.408   .     A
C909   N951    1.367   .     A
C909   H941    1.081   .     S
C910   C911    1.398   .     A
C910   H942    1.082   .     S
C911   H943    1.082   .     S
C911   C912    1.399   .     A
C912   H944    1.083   .     S
C913   H945    1.081   .     S
C913   N952    1.367   .     A
C914   H950    1.083   .     S
C915   H920    1.083   .     S
C916   H921    1.083   .     S
Cu917  O959    1.926   .     S
Cu917  Cu918   2.669   .     S
Cu917  O955    1.952   .     S
Cu917  O957    1.926   .     S
Cu917  O953    1.952   .     S
Cu917  N952    2.005   .     S
Cu918  O954    1.952   .     S
Cu918  O960    1.926   .     S
Cu918  O956    1.952   .     S
Cu918  N951    2.005   .     S
Cu918  O958    1.926   .     S
C961   C978    1.465   .     S
C961   O1052   1.290   .     A
C961   O1049   1.290   .     A
C962   C1009   1.408   .     A
C962   C966    1.407   .     A
C962   H1018   1.083   .     S
C963   C967    1.402   .     S
C963   O1056   1.283   .     A
C963   O1053   1.283   .     A
C964   C968    1.402   .     S
C964   O1055   1.283   .     A
C964   O1054   1.283   .     A
C965   C1012   1.407   .     A
C965   C1010   1.407   .     A
C966   C1011   1.407   .     A
C966   C773    1.507   1_565 S
C968   C199    1.186   1_556 S
C969   H1042   1.085   .     S
C969   C974    1.393   .     A
C969   C980    1.395   .     A
C970   C975    1.393   .     A
C970   H1043   1.085   .     S
C970   C981    1.395   .     A
C971   C981    1.395   .     A
C971   C976    1.393   .     A
C971   H1044   1.085   .     S
C972   O1051   1.290   .     A
C972   O1050   1.290   .     A
C972   C979    1.465   .     S
C973   C980    1.395   .     A
C973   C977    1.393   .     A
C973   H1045   1.085   .     S
C974   C978    1.418   .     A
C974   C982    1.481   .     S
C975   C979    1.418   .     A
C975   C989    1.481   .     S
C976   C996    1.481   .     S
C976   C979    1.418   .     A
C977   C1002   1.481   .     S
C977   C978    1.418   .     A
C980   C1077   1.452   1_455 S
C981   C1076   1.452   .     S
C982   C988    1.404   .     A
C982   C984    1.405   .     A
C983   N1047   1.367   .     A
C983   C1010   1.408   .     A
C983   H1015   1.081   .     S
C984   H1019   1.083   .     S
C984   C985    1.399   .     A
C985   H1020   1.082   .     S
C985   C986    1.398   .     A
C986   H1021   1.082   .     S
C986   C987    1.398   .     A
C987   H1022   1.082   .     S
C987   C988    1.399   .     A
C988   H1023   1.083   .     S
C989   C990    1.405   .     A
C989   C995    1.404   .     A
C990   H1024   1.083   .     S
C990   C991    1.399   .     A
C991   C992    1.398   .     A
C991   H1025   1.082   .     S
C992   H1027   1.082   .     S
C992   C993    1.398   .     A
C993   C995    1.399   .     A
C993   H1028   1.082   .     S
C994   H1026   1.081   .     S
C994   N1048   1.367   .     A
C994   C1011   1.408   .     A
C995   H1029   1.083   .     S
C996   C997    1.405   .     A
C996   C1001   1.404   .     A
C997   H1030   1.083   .     S
C997   C998    1.399   .     A
C998   C999    1.398   .     A
C998   H1031   1.082   .     S
C999   H1032   1.082   .     S
C999   C1000   1.398   .     A
C1000  H1033   1.082   .     S
C1000  C1001   1.399   .     A
C1001  H1034   1.083   .     S
C1002  C1008   1.404   .     A
C1002  C1003   1.405   .     A
C1003  H1035   1.083   .     S
C1003  C1004   1.399   .     A
C1004  H1036   1.082   .     S
C1004  C1006   1.398   .     A
C1005  C1012   1.408   .     A
C1005  N1047   1.367   .     A
C1005  H1037   1.081   .     S
C1006  C1007   1.398   .     A
C1006  H1038   1.082   .     S
C1007  H1039   1.082   .     S
C1007  C1008   1.399   .     A
C1008  H1040   1.083   .     S
C1009  H1041   1.081   .     S
C1009  N1048   1.367   .     A
C1010  H1046   1.083   .     S
C1011  H1016   1.083   .     S
C1012  H1017   1.083   .     S
Cu1013 O1055   1.926   .     S
Cu1013 Cu1014  2.669   .     S
Cu1013 O1051   1.952   .     S
Cu1013 O1053   1.926   .     S
Cu1013 O1049   1.952   .     S
Cu1013 N1048   2.005   .     S
Cu1014 O1050   1.952   .     S
Cu1014 O1056   1.926   .     S
Cu1014 O1052   1.952   .     S
Cu1014 N1047   2.005   .     S
Cu1014 O1054   1.926   .     S
C1057  C1074   1.465   .     S
C1057  O1148   1.290   .     A
C1057  O1145   1.290   .     A
C1058  C1105   1.408   .     A
C1058  C1062   1.407   .     A
C1058  H1114   1.083   .     S
C1059  C1063   1.402   .     S
C1059  O1152   1.283   .     A
C1059  O1149   1.283   .     A
C1060  C1064   1.402   .     S
C1060  O1151   1.283   .     A
C1060  O1150   1.283   .     A
C1061  C1108   1.407   .     A
C1061  C1106   1.407   .     A
C1062  C1107   1.407   .     A
C1062  C869    1.507   1_565 S
C1064  C295    1.186   1_556 S
C1065  H1138   1.085   .     S
C1065  C1070   1.393   .     A
C1065  C1076   1.395   .     A
C1066  C1071   1.393   .     A
C1066  H1139   1.085   .     S
C1066  C1077   1.395   .     A
C1067  C1077   1.395   .     A
C1067  C1072   1.393   .     A
C1067  H1140   1.085   .     S
C1068  O1147   1.290   .     A
C1068  O1146   1.290   .     A
C1068  C1075   1.465   .     S
C1069  C1076   1.395   .     A
C1069  C1073   1.393   .     A
C1069  H1141   1.085   .     S
C1070  C1074   1.418   .     A
C1070  C1078   1.481   .     S
C1071  C1075   1.418   .     A
C1071  C1085   1.481   .     S
C1072  C1092   1.481   .     S
C1072  C1075   1.418   .     A
C1073  C1098   1.481   .     S
C1073  C1074   1.418   .     A
C1077  C980    1.452   1_655 S
C1078  C1084   1.404   .     A
C1078  C1080   1.405   .     A
C1079  N1143   1.367   .     A
C1079  C1106   1.408   .     A
C1079  H1111   1.081   .     S
C1080  H1115   1.083   .     S
C1080  C1081   1.399   .     A
C1081  H1116   1.082   .     S
C1081  C1082   1.398   .     A
C1082  H1117   1.082   .     S
C1082  C1083   1.398   .     A
C1083  H1118   1.082   .     S
C1083  C1084   1.399   .     A
C1084  H1119   1.083   .     S
C1085  C1086   1.405   .     A
C1085  C1091   1.404   .     A
C1086  H1120   1.083   .     S
C1086  C1087   1.399   .     A
C1087  C1088   1.398   .     A
C1087  H1121   1.082   .     S
C1088  H1123   1.082   .     S
C1088  C1089   1.398   .     A
C1089  C1091   1.399   .     A
C1089  H1124   1.082   .     S
C1090  H1122   1.081   .     S
C1090  N1144   1.367   .     A
C1090  C1107   1.408   .     A
C1091  H1125   1.083   .     S
C1092  C1093   1.405   .     A
C1092  C1097   1.404   .     A
C1093  H1126   1.083   .     S
C1093  C1094   1.399   .     A
C1094  C1095   1.398   .     A
C1094  H1127   1.082   .     S
C1095  H1128   1.082   .     S
C1095  C1096   1.398   .     A
C1096  H1129   1.082   .     S
C1096  C1097   1.399   .     A
C1097  H1130   1.083   .     S
C1098  C1104   1.404   .     A
C1098  C1099   1.405   .     A
C1099  H1131   1.083   .     S
C1099  C1100   1.399   .     A
C1100  H1132   1.082   .     S
C1100  C1102   1.398   .     A
C1101  C1108   1.408   .     A
C1101  N1143   1.367   .     A
C1101  H1133   1.081   .     S
C1102  C1103   1.398   .     A
C1102  H1134   1.082   .     S
C1103  H1135   1.082   .     S
C1103  C1104   1.399   .     A
C1104  H1136   1.083   .     S
C1105  H1137   1.081   .     S
C1105  N1144   1.367   .     A
C1106  H1142   1.083   .     S
C1107  H1112   1.083   .     S
C1108  H1113   1.083   .     S
Cu1109 O1151   1.926   .     S
Cu1109 Cu1110  2.669   .     S
Cu1109 O1147   1.952   .     S
Cu1109 O1149   1.926   .     S
Cu1109 O1145   1.952   .     S
Cu1109 N1144   2.005   .     S
Cu1110 O1146   1.952   .     S
Cu1110 O1152   1.926   .     S
Cu1110 O1148   1.952   .     S
Cu1110 N1143   2.005   .     S
Cu1110 O1150   1.926   .     S
