data_str_m2_o10_o17_pcu_sym.169
_audit_creation_date              2020-01-03
_audit_creation_method            'Materials Studio'
_symmetry_space_group_name_H-M    'P1'
_symmetry_Int_Tables_number       1
_symmetry_cell_setting            triclinic
loop_
_symmetry_equiv_pos_as_xyz
  x,y,z
_cell_length_a                    30.1133
_cell_length_b                    25.9935
_cell_length_c                    22.3570
_cell_angle_alpha                 102.8785
_cell_angle_beta                  94.1158
_cell_angle_gamma                 92.0660
loop_
_atom_site_label
_atom_site_type_symbol
_atom_site_fract_x
_atom_site_fract_y
_atom_site_fract_z
_atom_site_U_iso_or_equiv
_atom_site_adp_type
_atom_site_occupancy
C1     C     0.24816   0.06659   0.15113   0.00000  Uiso   1.00
C2     C     0.25184   0.26675   0.18220   0.00000  Uiso   1.00
C3     C     0.01879   0.07051   0.14132   0.00000  Uiso   1.00
C4     C     0.48120   0.26282   0.19205   0.00000  Uiso   1.00
C5     C     0.24733   0.01060   0.14238   0.00000  Uiso   1.00
C6     C     0.25267   0.32274   0.19095   0.00000  Uiso   1.00
C7     C     0.16475   0.16707   0.16759   0.00000  Uiso   1.00
C8     C     0.33525   0.16626   0.16575   0.00000  Uiso   1.00
C9     C     0.40832   0.21498   0.18065   0.00000  Uiso   1.00
C10    C     0.09168   0.11835   0.15268   0.00000  Uiso   1.00
C11    C     0.38336   0.16635   0.16418   0.00000  Uiso   1.00
C12    C     0.11664   0.16698   0.16916   0.00000  Uiso   1.00
C13    C     0.40405   0.11789   0.14922   0.00000  Uiso   1.00
C14    C     0.09595   0.21544   0.18414   0.00000  Uiso   1.00
C15    C     0.45085   0.11803   0.15090   0.00000  Uiso   1.00
C16    C     0.04915   0.21530   0.18246   0.00000  Uiso   1.00
C17    C     0.47644   0.16665   0.16609   0.00000  Uiso   1.00
C18    C     0.02356   0.16668   0.16727   0.00000  Uiso   1.00
C19    C     0.45514   0.21521   0.18017   0.00000  Uiso   1.00
C20    C     0.04486   0.11812   0.15318   0.00000  Uiso   1.00
C21    C     0.47280   0.07045   0.13974   0.00000  Uiso   1.00
C22    C     0.02720   0.26288   0.19364   0.00000  Uiso   1.00
Cu23   Cu    0.25500   0.17246   0.22813   0.00000  Uiso   1.00
Cu24   Cu    0.24499   0.16087   0.10521   0.00000  Uiso   1.00
H25    H     0.45483   0.03237   0.13034   0.00000  Uiso   1.00
H26    H     0.04516   0.30096   0.20305   0.00000  Uiso   1.00
H27    H     0.03340   0.03250   0.13384   0.00000  Uiso   1.00
H28    H     0.46659   0.30083   0.19955   0.00000  Uiso   1.00
H29    H     0.24252   0.32006   0.09558   0.00000  Uiso   1.00
H30    H     0.25748   0.01327   0.23775   0.00000  Uiso   1.00
H31    H     0.21519   0.12603   0.31618   0.00000  Uiso   1.00
H32    H     0.28481   0.20730   0.01715   0.00000  Uiso   1.00
N33    N     0.23744   0.15214   0.01284   0.00000  Uiso   1.00
N34    N     0.26255   0.18119   0.32049   0.00000  Uiso   1.00
O35    O     0.25325   0.09538   0.20659   0.00000  Uiso   1.00
O36    O     0.24674   0.23796   0.12674   0.00000  Uiso   1.00
O37    O     0.24480   0.08559   0.10279   0.00000  Uiso   1.00
O38    O     0.25520   0.24774   0.23055   0.00000  Uiso   1.00
O39    O     0.18935   0.17155   0.21857   0.00000  Uiso   1.00
O40    O     0.31064   0.16179   0.11476   0.00000  Uiso   1.00
O41    O     0.18090   0.16176   0.11477   0.00000  Uiso   1.00
O42    O     0.31910   0.17157   0.21857   0.00000  Uiso   1.00
C43    C     0.38443   0.26474   0.19847   0.00000  Uiso   1.00
H44    H     0.35419   0.27039   0.17180   0.00000  Uiso   1.00
O45    O     0.39683   0.29822   0.24485   0.00000  Uiso   1.00
C46    C     0.11557   0.06858   0.13479   0.00000  Uiso   1.00
H47    H     0.14587   0.06294   0.16139   0.00000  Uiso   1.00
O48    O     0.10311   0.03510   0.08843   0.00000  Uiso   1.00
C49    C     0.37680   0.06707   0.13291   0.00000  Uiso   1.00
H50    H     0.38276   0.03733   0.09222   0.00000  Uiso   1.00
O51    O     0.34873   0.05739   0.16612   0.00000  Uiso   1.00
C52    C     0.12320   0.26626   0.20043   0.00000  Uiso   1.00
H53    H     0.11724   0.29601   0.24110   0.00000  Uiso   1.00
O54    O     0.15127   0.27594   0.16723   0.00000  Uiso   1.00
C55    C     0.74816   0.06659   0.15113   0.00000  Uiso   1.00
C56    C     0.75184   0.26675   0.18220   0.00000  Uiso   1.00
C57    C     0.51879   0.07051   0.14132   0.00000  Uiso   1.00
C58    C     0.98120   0.26282   0.19205   0.00000  Uiso   1.00
C59    C     0.74733   0.01060   0.14238   0.00000  Uiso   1.00
C60    C     0.75267   0.32274   0.19095   0.00000  Uiso   1.00
C61    C     0.66475   0.16707   0.16759   0.00000  Uiso   1.00
C62    C     0.83525   0.16626   0.16575   0.00000  Uiso   1.00
C63    C     0.90832   0.21498   0.18065   0.00000  Uiso   1.00
C64    C     0.59168   0.11835   0.15268   0.00000  Uiso   1.00
C65    C     0.88336   0.16635   0.16418   0.00000  Uiso   1.00
C66    C     0.61664   0.16698   0.16916   0.00000  Uiso   1.00
C67    C     0.90405   0.11789   0.14922   0.00000  Uiso   1.00
C68    C     0.59595   0.21544   0.18414   0.00000  Uiso   1.00
C69    C     0.95085   0.11803   0.15090   0.00000  Uiso   1.00
C70    C     0.54915   0.21530   0.18246   0.00000  Uiso   1.00
C71    C     0.97644   0.16665   0.16609   0.00000  Uiso   1.00
C72    C     0.52356   0.16668   0.16727   0.00000  Uiso   1.00
C73    C     0.95514   0.21521   0.18017   0.00000  Uiso   1.00
C74    C     0.54486   0.11812   0.15318   0.00000  Uiso   1.00
C75    C     0.97280   0.07045   0.13974   0.00000  Uiso   1.00
C76    C     0.52720   0.26288   0.19364   0.00000  Uiso   1.00
Cu77   Cu    0.75500   0.17246   0.22813   0.00000  Uiso   1.00
Cu78   Cu    0.74499   0.16087   0.10521   0.00000  Uiso   1.00
H79    H     0.95483   0.03237   0.13034   0.00000  Uiso   1.00
H80    H     0.54516   0.30096   0.20305   0.00000  Uiso   1.00
H81    H     0.53340   0.03250   0.13384   0.00000  Uiso   1.00
H82    H     0.96659   0.30083   0.19955   0.00000  Uiso   1.00
H83    H     0.74252   0.32006   0.09558   0.00000  Uiso   1.00
H84    H     0.75748   0.01327   0.23775   0.00000  Uiso   1.00
H85    H     0.71519   0.12603   0.31618   0.00000  Uiso   1.00
H86    H     0.78481   0.20730   0.01715   0.00000  Uiso   1.00
N87    N     0.73744   0.15214   0.01284   0.00000  Uiso   1.00
N88    N     0.76255   0.18119   0.32049   0.00000  Uiso   1.00
O89    O     0.75325   0.09538   0.20659   0.00000  Uiso   1.00
O90    O     0.74674   0.23796   0.12674   0.00000  Uiso   1.00
O91    O     0.74480   0.08559   0.10279   0.00000  Uiso   1.00
O92    O     0.75520   0.24774   0.23055   0.00000  Uiso   1.00
O93    O     0.68935   0.17155   0.21857   0.00000  Uiso   1.00
O94    O     0.81064   0.16179   0.11476   0.00000  Uiso   1.00
O95    O     0.68090   0.16176   0.11477   0.00000  Uiso   1.00
O96    O     0.81910   0.17157   0.21857   0.00000  Uiso   1.00
C97    C     0.88443   0.26474   0.19847   0.00000  Uiso   1.00
H98    H     0.85419   0.27039   0.17180   0.00000  Uiso   1.00
O99    O     0.89683   0.29822   0.24485   0.00000  Uiso   1.00
C100   C     0.61557   0.06858   0.13479   0.00000  Uiso   1.00
H101   H     0.64587   0.06294   0.16139   0.00000  Uiso   1.00
O102   O     0.60311   0.03510   0.08843   0.00000  Uiso   1.00
C103   C     0.87680   0.06707   0.13291   0.00000  Uiso   1.00
H104   H     0.88276   0.03733   0.09222   0.00000  Uiso   1.00
O105   O     0.84873   0.05739   0.16612   0.00000  Uiso   1.00
C106   C     0.62320   0.26626   0.20043   0.00000  Uiso   1.00
H107   H     0.61724   0.29601   0.24110   0.00000  Uiso   1.00
O108   O     0.65127   0.27594   0.16723   0.00000  Uiso   1.00
C109   C     0.24816   0.39992   0.15113   0.00000  Uiso   1.00
C110   C     0.25184   0.60008   0.18220   0.00000  Uiso   1.00
C111   C     0.01879   0.40384   0.14132   0.00000  Uiso   1.00
C112   C     0.48120   0.59615   0.19205   0.00000  Uiso   1.00
C113   C     0.24733   0.34393   0.14238   0.00000  Uiso   1.00
C114   C     0.25267   0.65607   0.19095   0.00000  Uiso   1.00
C115   C     0.16475   0.50040   0.16759   0.00000  Uiso   1.00
C116   C     0.33525   0.49960   0.16575   0.00000  Uiso   1.00
C117   C     0.40832   0.54831   0.18065   0.00000  Uiso   1.00
C118   C     0.09168   0.45168   0.15268   0.00000  Uiso   1.00
C119   C     0.38336   0.49968   0.16418   0.00000  Uiso   1.00
C120   C     0.11664   0.50031   0.16916   0.00000  Uiso   1.00
C121   C     0.40405   0.45122   0.14922   0.00000  Uiso   1.00
C122   C     0.09595   0.54878   0.18414   0.00000  Uiso   1.00
C123   C     0.45085   0.45136   0.15090   0.00000  Uiso   1.00
C124   C     0.04915   0.54864   0.18246   0.00000  Uiso   1.00
C125   C     0.47644   0.49998   0.16609   0.00000  Uiso   1.00
C126   C     0.02356   0.50001   0.16727   0.00000  Uiso   1.00
C127   C     0.45514   0.54854   0.18017   0.00000  Uiso   1.00
C128   C     0.04486   0.45145   0.15318   0.00000  Uiso   1.00
C129   C     0.47280   0.40378   0.13974   0.00000  Uiso   1.00
C130   C     0.02720   0.59622   0.19364   0.00000  Uiso   1.00
Cu131  Cu    0.25500   0.50579   0.22813   0.00000  Uiso   1.00
Cu132  Cu    0.24499   0.49421   0.10521   0.00000  Uiso   1.00
H133   H     0.45483   0.36570   0.13034   0.00000  Uiso   1.00
H134   H     0.04516   0.63430   0.20305   0.00000  Uiso   1.00
H135   H     0.03340   0.36584   0.13384   0.00000  Uiso   1.00
H136   H     0.46659   0.63416   0.19955   0.00000  Uiso   1.00
H137   H     0.24252   0.65340   0.09558   0.00000  Uiso   1.00
H138   H     0.25748   0.34660   0.23775   0.00000  Uiso   1.00
H139   H     0.21519   0.45936   0.31618   0.00000  Uiso   1.00
H140   H     0.28481   0.54064   0.01715   0.00000  Uiso   1.00
N141   N     0.23744   0.48547   0.01284   0.00000  Uiso   1.00
N142   N     0.26255   0.51453   0.32049   0.00000  Uiso   1.00
O143   O     0.25325   0.42871   0.20659   0.00000  Uiso   1.00
O144   O     0.24674   0.57129   0.12674   0.00000  Uiso   1.00
O145   O     0.24480   0.41892   0.10279   0.00000  Uiso   1.00
O146   O     0.25520   0.58108   0.23055   0.00000  Uiso   1.00
O147   O     0.18935   0.50488   0.21857   0.00000  Uiso   1.00
O148   O     0.31064   0.49512   0.11476   0.00000  Uiso   1.00
O149   O     0.18090   0.49510   0.11477   0.00000  Uiso   1.00
O150   O     0.31910   0.50490   0.21857   0.00000  Uiso   1.00
C151   C     0.38443   0.59807   0.19847   0.00000  Uiso   1.00
H152   H     0.35419   0.60372   0.17180   0.00000  Uiso   1.00
O153   O     0.39683   0.63155   0.24485   0.00000  Uiso   1.00
C154   C     0.11557   0.40192   0.13479   0.00000  Uiso   1.00
H155   H     0.14587   0.39627   0.16139   0.00000  Uiso   1.00
O156   O     0.10311   0.36843   0.08843   0.00000  Uiso   1.00
C157   C     0.37680   0.40040   0.13291   0.00000  Uiso   1.00
H158   H     0.38276   0.37067   0.09222   0.00000  Uiso   1.00
O159   O     0.34873   0.39072   0.16612   0.00000  Uiso   1.00
C160   C     0.12320   0.59960   0.20043   0.00000  Uiso   1.00
H161   H     0.11724   0.62934   0.24110   0.00000  Uiso   1.00
O162   O     0.15127   0.60927   0.16723   0.00000  Uiso   1.00
C163   C     0.74816   0.39992   0.15113   0.00000  Uiso   1.00
C164   C     0.75184   0.60008   0.18220   0.00000  Uiso   1.00
C165   C     0.51879   0.40384   0.14132   0.00000  Uiso   1.00
C166   C     0.98120   0.59615   0.19205   0.00000  Uiso   1.00
C167   C     0.74733   0.34393   0.14238   0.00000  Uiso   1.00
C168   C     0.75267   0.65607   0.19095   0.00000  Uiso   1.00
C169   C     0.66475   0.50040   0.16759   0.00000  Uiso   1.00
C170   C     0.83525   0.49960   0.16575   0.00000  Uiso   1.00
C171   C     0.90832   0.54831   0.18065   0.00000  Uiso   1.00
C172   C     0.59168   0.45168   0.15268   0.00000  Uiso   1.00
C173   C     0.88336   0.49968   0.16418   0.00000  Uiso   1.00
C174   C     0.61664   0.50031   0.16916   0.00000  Uiso   1.00
C175   C     0.90405   0.45122   0.14922   0.00000  Uiso   1.00
C176   C     0.59595   0.54878   0.18414   0.00000  Uiso   1.00
C177   C     0.95085   0.45136   0.15090   0.00000  Uiso   1.00
C178   C     0.54915   0.54864   0.18246   0.00000  Uiso   1.00
C179   C     0.97644   0.49998   0.16609   0.00000  Uiso   1.00
C180   C     0.52356   0.50001   0.16727   0.00000  Uiso   1.00
C181   C     0.95514   0.54854   0.18017   0.00000  Uiso   1.00
C182   C     0.54486   0.45145   0.15318   0.00000  Uiso   1.00
C183   C     0.97280   0.40378   0.13974   0.00000  Uiso   1.00
C184   C     0.52720   0.59622   0.19364   0.00000  Uiso   1.00
Cu185  Cu    0.75500   0.50579   0.22813   0.00000  Uiso   1.00
Cu186  Cu    0.74499   0.49421   0.10521   0.00000  Uiso   1.00
H187   H     0.95483   0.36570   0.13034   0.00000  Uiso   1.00
H188   H     0.54516   0.63430   0.20305   0.00000  Uiso   1.00
H189   H     0.53340   0.36584   0.13384   0.00000  Uiso   1.00
H190   H     0.96659   0.63416   0.19955   0.00000  Uiso   1.00
H191   H     0.74252   0.65340   0.09558   0.00000  Uiso   1.00
H192   H     0.75748   0.34660   0.23775   0.00000  Uiso   1.00
H193   H     0.71519   0.45936   0.31618   0.00000  Uiso   1.00
H194   H     0.78481   0.54064   0.01715   0.00000  Uiso   1.00
N195   N     0.73744   0.48547   0.01284   0.00000  Uiso   1.00
N196   N     0.76255   0.51453   0.32049   0.00000  Uiso   1.00
O197   O     0.75325   0.42871   0.20659   0.00000  Uiso   1.00
O198   O     0.74674   0.57129   0.12674   0.00000  Uiso   1.00
O199   O     0.74480   0.41892   0.10279   0.00000  Uiso   1.00
O200   O     0.75520   0.58108   0.23055   0.00000  Uiso   1.00
O201   O     0.68935   0.50488   0.21857   0.00000  Uiso   1.00
O202   O     0.81064   0.49512   0.11476   0.00000  Uiso   1.00
O203   O     0.68090   0.49510   0.11477   0.00000  Uiso   1.00
O204   O     0.81910   0.50490   0.21857   0.00000  Uiso   1.00
C205   C     0.88443   0.59807   0.19847   0.00000  Uiso   1.00
H206   H     0.85419   0.60372   0.17180   0.00000  Uiso   1.00
O207   O     0.89683   0.63155   0.24485   0.00000  Uiso   1.00
C208   C     0.61557   0.40192   0.13479   0.00000  Uiso   1.00
H209   H     0.64587   0.39627   0.16139   0.00000  Uiso   1.00
O210   O     0.60311   0.36843   0.08843   0.00000  Uiso   1.00
C211   C     0.87680   0.40040   0.13291   0.00000  Uiso   1.00
H212   H     0.88276   0.37067   0.09222   0.00000  Uiso   1.00
O213   O     0.84873   0.39072   0.16612   0.00000  Uiso   1.00
C214   C     0.62320   0.59960   0.20043   0.00000  Uiso   1.00
H215   H     0.61724   0.62934   0.24110   0.00000  Uiso   1.00
O216   O     0.65127   0.60927   0.16723   0.00000  Uiso   1.00
C217   C     0.24816   0.73325   0.15113   0.00000  Uiso   1.00
C218   C     0.25184   0.93341   0.18220   0.00000  Uiso   1.00
C219   C     0.01879   0.73718   0.14132   0.00000  Uiso   1.00
C220   C     0.48120   0.92949   0.19205   0.00000  Uiso   1.00
C221   C     0.24733   0.67726   0.14238   0.00000  Uiso   1.00
C222   C     0.25267   0.98940   0.19095   0.00000  Uiso   1.00
C223   C     0.16475   0.83373   0.16759   0.00000  Uiso   1.00
C224   C     0.33525   0.83293   0.16575   0.00000  Uiso   1.00
C225   C     0.40832   0.88165   0.18065   0.00000  Uiso   1.00
C226   C     0.09168   0.78501   0.15268   0.00000  Uiso   1.00
C227   C     0.38336   0.83302   0.16418   0.00000  Uiso   1.00
C228   C     0.11664   0.83365   0.16916   0.00000  Uiso   1.00
C229   C     0.40405   0.78456   0.14922   0.00000  Uiso   1.00
C230   C     0.09595   0.88211   0.18414   0.00000  Uiso   1.00
C231   C     0.45085   0.78469   0.15090   0.00000  Uiso   1.00
C232   C     0.04915   0.88197   0.18246   0.00000  Uiso   1.00
C233   C     0.47644   0.83332   0.16609   0.00000  Uiso   1.00
C234   C     0.02356   0.83335   0.16727   0.00000  Uiso   1.00
C235   C     0.45514   0.88188   0.18017   0.00000  Uiso   1.00
C236   C     0.04486   0.78478   0.15318   0.00000  Uiso   1.00
C237   C     0.47280   0.73712   0.13974   0.00000  Uiso   1.00
C238   C     0.02720   0.92955   0.19364   0.00000  Uiso   1.00
Cu239  Cu    0.25500   0.83913   0.22813   0.00000  Uiso   1.00
Cu240  Cu    0.24499   0.82754   0.10521   0.00000  Uiso   1.00
H241   H     0.45483   0.69904   0.13034   0.00000  Uiso   1.00
H242   H     0.04516   0.96763   0.20305   0.00000  Uiso   1.00
H243   H     0.03340   0.69917   0.13384   0.00000  Uiso   1.00
H244   H     0.46659   0.96749   0.19955   0.00000  Uiso   1.00
H245   H     0.24252   0.98673   0.09558   0.00000  Uiso   1.00
H246   H     0.25748   0.67994   0.23775   0.00000  Uiso   1.00
H247   H     0.21519   0.79270   0.31618   0.00000  Uiso   1.00
H248   H     0.28481   0.87397   0.01715   0.00000  Uiso   1.00
N249   N     0.23744   0.81881   0.01284   0.00000  Uiso   1.00
N250   N     0.26255   0.84786   0.32049   0.00000  Uiso   1.00
O251   O     0.25325   0.76204   0.20659   0.00000  Uiso   1.00
O252   O     0.24674   0.90462   0.12674   0.00000  Uiso   1.00
O253   O     0.24480   0.75226   0.10279   0.00000  Uiso   1.00
O254   O     0.25520   0.91441   0.23055   0.00000  Uiso   1.00
O255   O     0.18935   0.83821   0.21857   0.00000  Uiso   1.00
O256   O     0.31064   0.82845   0.11476   0.00000  Uiso   1.00
O257   O     0.18090   0.82843   0.11477   0.00000  Uiso   1.00
O258   O     0.31910   0.83824   0.21857   0.00000  Uiso   1.00
C259   C     0.38443   0.93141   0.19847   0.00000  Uiso   1.00
H260   H     0.35419   0.93705   0.17180   0.00000  Uiso   1.00
O261   O     0.39683   0.96489   0.24485   0.00000  Uiso   1.00
C262   C     0.11557   0.73525   0.13479   0.00000  Uiso   1.00
H263   H     0.14587   0.72961   0.16139   0.00000  Uiso   1.00
O264   O     0.10311   0.70176   0.08843   0.00000  Uiso   1.00
C265   C     0.37680   0.73373   0.13291   0.00000  Uiso   1.00
H266   H     0.38276   0.70400   0.09222   0.00000  Uiso   1.00
O267   O     0.34873   0.72406   0.16612   0.00000  Uiso   1.00
C268   C     0.12320   0.93293   0.20043   0.00000  Uiso   1.00
H269   H     0.11724   0.96267   0.24110   0.00000  Uiso   1.00
O270   O     0.15127   0.94261   0.16723   0.00000  Uiso   1.00
C271   C     0.74816   0.73325   0.15113   0.00000  Uiso   1.00
C272   C     0.75184   0.93341   0.18220   0.00000  Uiso   1.00
C273   C     0.51879   0.73718   0.14132   0.00000  Uiso   1.00
C274   C     0.98120   0.92949   0.19205   0.00000  Uiso   1.00
C275   C     0.74733   0.67726   0.14238   0.00000  Uiso   1.00
C276   C     0.75267   0.98940   0.19095   0.00000  Uiso   1.00
C277   C     0.66475   0.83373   0.16759   0.00000  Uiso   1.00
C278   C     0.83525   0.83293   0.16575   0.00000  Uiso   1.00
C279   C     0.90832   0.88165   0.18065   0.00000  Uiso   1.00
C280   C     0.59168   0.78501   0.15268   0.00000  Uiso   1.00
C281   C     0.88336   0.83302   0.16418   0.00000  Uiso   1.00
C282   C     0.61664   0.83365   0.16916   0.00000  Uiso   1.00
C283   C     0.90405   0.78456   0.14922   0.00000  Uiso   1.00
C284   C     0.59595   0.88211   0.18414   0.00000  Uiso   1.00
C285   C     0.95085   0.78469   0.15090   0.00000  Uiso   1.00
C286   C     0.54915   0.88197   0.18246   0.00000  Uiso   1.00
C287   C     0.97644   0.83332   0.16609   0.00000  Uiso   1.00
C288   C     0.52356   0.83335   0.16727   0.00000  Uiso   1.00
C289   C     0.95514   0.88188   0.18017   0.00000  Uiso   1.00
C290   C     0.54486   0.78478   0.15318   0.00000  Uiso   1.00
C291   C     0.97280   0.73712   0.13974   0.00000  Uiso   1.00
C292   C     0.52720   0.92955   0.19364   0.00000  Uiso   1.00
Cu293  Cu    0.75500   0.83913   0.22813   0.00000  Uiso   1.00
Cu294  Cu    0.74499   0.82754   0.10521   0.00000  Uiso   1.00
H295   H     0.95483   0.69904   0.13034   0.00000  Uiso   1.00
H296   H     0.54516   0.96763   0.20305   0.00000  Uiso   1.00
H297   H     0.53340   0.69917   0.13384   0.00000  Uiso   1.00
H298   H     0.96659   0.96749   0.19955   0.00000  Uiso   1.00
H299   H     0.74252   0.98673   0.09558   0.00000  Uiso   1.00
H300   H     0.75748   0.67994   0.23775   0.00000  Uiso   1.00
H301   H     0.71519   0.79270   0.31618   0.00000  Uiso   1.00
H302   H     0.78481   0.87397   0.01715   0.00000  Uiso   1.00
N303   N     0.73744   0.81881   0.01284   0.00000  Uiso   1.00
N304   N     0.76255   0.84786   0.32049   0.00000  Uiso   1.00
O305   O     0.75325   0.76204   0.20659   0.00000  Uiso   1.00
O306   O     0.74674   0.90462   0.12674   0.00000  Uiso   1.00
O307   O     0.74480   0.75226   0.10279   0.00000  Uiso   1.00
O308   O     0.75520   0.91441   0.23055   0.00000  Uiso   1.00
O309   O     0.68935   0.83821   0.21857   0.00000  Uiso   1.00
O310   O     0.81064   0.82845   0.11476   0.00000  Uiso   1.00
O311   O     0.68090   0.82843   0.11477   0.00000  Uiso   1.00
O312   O     0.81910   0.83824   0.21857   0.00000  Uiso   1.00
C313   C     0.88443   0.93141   0.19847   0.00000  Uiso   1.00
H314   H     0.85419   0.93705   0.17180   0.00000  Uiso   1.00
O315   O     0.89683   0.96489   0.24485   0.00000  Uiso   1.00
C316   C     0.61557   0.73525   0.13479   0.00000  Uiso   1.00
H317   H     0.64587   0.72961   0.16139   0.00000  Uiso   1.00
O318   O     0.60311   0.70176   0.08843   0.00000  Uiso   1.00
C319   C     0.87680   0.73373   0.13291   0.00000  Uiso   1.00
H320   H     0.88276   0.70400   0.09222   0.00000  Uiso   1.00
O321   O     0.84873   0.72406   0.16612   0.00000  Uiso   1.00
C322   C     0.62320   0.93293   0.20043   0.00000  Uiso   1.00
H323   H     0.61724   0.96267   0.24110   0.00000  Uiso   1.00
O324   O     0.65127   0.94261   0.16723   0.00000  Uiso   1.00
C325   C     0.24816   0.06659   0.48447   0.00000  Uiso   1.00
C326   C     0.25184   0.26675   0.51553   0.00000  Uiso   1.00
C327   C     0.01879   0.07051   0.47465   0.00000  Uiso   1.00
C328   C     0.48120   0.26282   0.52538   0.00000  Uiso   1.00
C329   C     0.24733   0.01060   0.47572   0.00000  Uiso   1.00
C330   C     0.25267   0.32274   0.52428   0.00000  Uiso   1.00
C331   C     0.16475   0.16707   0.50092   0.00000  Uiso   1.00
C332   C     0.33525   0.16626   0.49908   0.00000  Uiso   1.00
C333   C     0.40832   0.21498   0.51398   0.00000  Uiso   1.00
C334   C     0.09168   0.11835   0.48601   0.00000  Uiso   1.00
C335   C     0.38336   0.16635   0.49751   0.00000  Uiso   1.00
C336   C     0.11664   0.16698   0.50249   0.00000  Uiso   1.00
C337   C     0.40405   0.11789   0.48255   0.00000  Uiso   1.00
C338   C     0.09595   0.21544   0.51747   0.00000  Uiso   1.00
C339   C     0.45085   0.11803   0.48423   0.00000  Uiso   1.00
C340   C     0.04915   0.21530   0.51580   0.00000  Uiso   1.00
C341   C     0.47644   0.16665   0.49943   0.00000  Uiso   1.00
C342   C     0.02356   0.16668   0.50060   0.00000  Uiso   1.00
C343   C     0.45514   0.21521   0.51351   0.00000  Uiso   1.00
C344   C     0.04486   0.11812   0.48651   0.00000  Uiso   1.00
C345   C     0.47280   0.07045   0.47307   0.00000  Uiso   1.00
C346   C     0.02720   0.26288   0.52697   0.00000  Uiso   1.00
Cu347  Cu    0.25500   0.17246   0.56146   0.00000  Uiso   1.00
Cu348  Cu    0.24499   0.16087   0.43854   0.00000  Uiso   1.00
H349   H     0.45483   0.03237   0.46367   0.00000  Uiso   1.00
H350   H     0.04516   0.30096   0.53638   0.00000  Uiso   1.00
H351   H     0.03340   0.03250   0.46717   0.00000  Uiso   1.00
H352   H     0.46659   0.30083   0.53288   0.00000  Uiso   1.00
H353   H     0.24252   0.32006   0.42891   0.00000  Uiso   1.00
H354   H     0.25748   0.01327   0.57109   0.00000  Uiso   1.00
H355   H     0.21519   0.12603   0.64952   0.00000  Uiso   1.00
H356   H     0.28481   0.20730   0.35048   0.00000  Uiso   1.00
N357   N     0.23744   0.15214   0.34617   0.00000  Uiso   1.00
N358   N     0.26255   0.18119   0.65383   0.00000  Uiso   1.00
O359   O     0.25325   0.09538   0.53992   0.00000  Uiso   1.00
O360   O     0.24674   0.23796   0.46008   0.00000  Uiso   1.00
O361   O     0.24480   0.08559   0.43612   0.00000  Uiso   1.00
O362   O     0.25520   0.24774   0.56388   0.00000  Uiso   1.00
O363   O     0.18935   0.17155   0.55191   0.00000  Uiso   1.00
O364   O     0.31064   0.16179   0.44809   0.00000  Uiso   1.00
O365   O     0.18090   0.16176   0.44810   0.00000  Uiso   1.00
O366   O     0.31910   0.17157   0.55190   0.00000  Uiso   1.00
C367   C     0.38443   0.26474   0.53181   0.00000  Uiso   1.00
H368   H     0.35419   0.27039   0.50513   0.00000  Uiso   1.00
O369   O     0.39683   0.29822   0.57818   0.00000  Uiso   1.00
C370   C     0.11557   0.06858   0.46812   0.00000  Uiso   1.00
H371   H     0.14587   0.06294   0.49472   0.00000  Uiso   1.00
O372   O     0.10311   0.03510   0.42176   0.00000  Uiso   1.00
C373   C     0.37680   0.06707   0.46624   0.00000  Uiso   1.00
H374   H     0.38276   0.03733   0.42556   0.00000  Uiso   1.00
O375   O     0.34873   0.05739   0.49945   0.00000  Uiso   1.00
C376   C     0.12320   0.26626   0.53377   0.00000  Uiso   1.00
H377   H     0.11724   0.29601   0.57444   0.00000  Uiso   1.00
O378   O     0.15127   0.27594   0.50056   0.00000  Uiso   1.00
C379   C     0.74816   0.06659   0.48447   0.00000  Uiso   1.00
C380   C     0.75184   0.26675   0.51553   0.00000  Uiso   1.00
C381   C     0.51879   0.07051   0.47465   0.00000  Uiso   1.00
C382   C     0.98120   0.26282   0.52538   0.00000  Uiso   1.00
C383   C     0.74733   0.01060   0.47572   0.00000  Uiso   1.00
C384   C     0.75267   0.32274   0.52428   0.00000  Uiso   1.00
C385   C     0.66475   0.16707   0.50092   0.00000  Uiso   1.00
C386   C     0.83525   0.16626   0.49908   0.00000  Uiso   1.00
C387   C     0.90832   0.21498   0.51398   0.00000  Uiso   1.00
C388   C     0.59168   0.11835   0.48601   0.00000  Uiso   1.00
C389   C     0.88336   0.16635   0.49751   0.00000  Uiso   1.00
C390   C     0.61664   0.16698   0.50249   0.00000  Uiso   1.00
C391   C     0.90405   0.11789   0.48255   0.00000  Uiso   1.00
C392   C     0.59595   0.21544   0.51747   0.00000  Uiso   1.00
C393   C     0.95085   0.11803   0.48423   0.00000  Uiso   1.00
C394   C     0.54915   0.21530   0.51580   0.00000  Uiso   1.00
C395   C     0.97644   0.16665   0.49943   0.00000  Uiso   1.00
C396   C     0.52356   0.16668   0.50060   0.00000  Uiso   1.00
C397   C     0.95514   0.21521   0.51351   0.00000  Uiso   1.00
C398   C     0.54486   0.11812   0.48651   0.00000  Uiso   1.00
C399   C     0.97280   0.07045   0.47307   0.00000  Uiso   1.00
C400   C     0.52720   0.26288   0.52697   0.00000  Uiso   1.00
Cu401  Cu    0.75500   0.17246   0.56146   0.00000  Uiso   1.00
Cu402  Cu    0.74499   0.16087   0.43854   0.00000  Uiso   1.00
H403   H     0.95483   0.03237   0.46367   0.00000  Uiso   1.00
H404   H     0.54516   0.30096   0.53638   0.00000  Uiso   1.00
H405   H     0.53340   0.03250   0.46717   0.00000  Uiso   1.00
H406   H     0.96659   0.30083   0.53288   0.00000  Uiso   1.00
H407   H     0.74252   0.32006   0.42891   0.00000  Uiso   1.00
H408   H     0.75748   0.01327   0.57109   0.00000  Uiso   1.00
H409   H     0.71519   0.12603   0.64952   0.00000  Uiso   1.00
H410   H     0.78481   0.20730   0.35048   0.00000  Uiso   1.00
N411   N     0.73744   0.15214   0.34617   0.00000  Uiso   1.00
N412   N     0.76255   0.18119   0.65383   0.00000  Uiso   1.00
O413   O     0.75325   0.09538   0.53992   0.00000  Uiso   1.00
O414   O     0.74674   0.23796   0.46008   0.00000  Uiso   1.00
O415   O     0.74480   0.08559   0.43612   0.00000  Uiso   1.00
O416   O     0.75520   0.24774   0.56388   0.00000  Uiso   1.00
O417   O     0.68935   0.17155   0.55191   0.00000  Uiso   1.00
O418   O     0.81064   0.16179   0.44809   0.00000  Uiso   1.00
O419   O     0.68090   0.16176   0.44810   0.00000  Uiso   1.00
O420   O     0.81910   0.17157   0.55190   0.00000  Uiso   1.00
C421   C     0.88443   0.26474   0.53181   0.00000  Uiso   1.00
H422   H     0.85419   0.27039   0.50513   0.00000  Uiso   1.00
O423   O     0.89683   0.29822   0.57818   0.00000  Uiso   1.00
C424   C     0.61557   0.06858   0.46812   0.00000  Uiso   1.00
H425   H     0.64587   0.06294   0.49472   0.00000  Uiso   1.00
O426   O     0.60311   0.03510   0.42176   0.00000  Uiso   1.00
C427   C     0.87680   0.06707   0.46624   0.00000  Uiso   1.00
H428   H     0.88276   0.03733   0.42556   0.00000  Uiso   1.00
O429   O     0.84873   0.05739   0.49945   0.00000  Uiso   1.00
C430   C     0.62320   0.26626   0.53377   0.00000  Uiso   1.00
H431   H     0.61724   0.29601   0.57444   0.00000  Uiso   1.00
O432   O     0.65127   0.27594   0.50056   0.00000  Uiso   1.00
C433   C     0.24816   0.39992   0.48447   0.00000  Uiso   1.00
C434   C     0.25184   0.60008   0.51553   0.00000  Uiso   1.00
C435   C     0.01879   0.40384   0.47465   0.00000  Uiso   1.00
C436   C     0.48120   0.59615   0.52538   0.00000  Uiso   1.00
C437   C     0.24733   0.34393   0.47572   0.00000  Uiso   1.00
C438   C     0.25267   0.65607   0.52428   0.00000  Uiso   1.00
C439   C     0.16475   0.50040   0.50092   0.00000  Uiso   1.00
C440   C     0.33525   0.49960   0.49908   0.00000  Uiso   1.00
C441   C     0.40832   0.54831   0.51398   0.00000  Uiso   1.00
C442   C     0.09168   0.45168   0.48601   0.00000  Uiso   1.00
C443   C     0.38336   0.49968   0.49751   0.00000  Uiso   1.00
C444   C     0.11664   0.50031   0.50249   0.00000  Uiso   1.00
C445   C     0.40405   0.45122   0.48255   0.00000  Uiso   1.00
C446   C     0.09595   0.54878   0.51747   0.00000  Uiso   1.00
C447   C     0.45085   0.45136   0.48423   0.00000  Uiso   1.00
C448   C     0.04915   0.54864   0.51580   0.00000  Uiso   1.00
C449   C     0.47644   0.49998   0.49943   0.00000  Uiso   1.00
C450   C     0.02356   0.50001   0.50060   0.00000  Uiso   1.00
C451   C     0.45514   0.54854   0.51351   0.00000  Uiso   1.00
C452   C     0.04486   0.45145   0.48651   0.00000  Uiso   1.00
C453   C     0.47280   0.40378   0.47307   0.00000  Uiso   1.00
C454   C     0.02720   0.59622   0.52697   0.00000  Uiso   1.00
Cu455  Cu    0.25500   0.50579   0.56146   0.00000  Uiso   1.00
Cu456  Cu    0.24499   0.49421   0.43854   0.00000  Uiso   1.00
H457   H     0.45483   0.36570   0.46367   0.00000  Uiso   1.00
H458   H     0.04516   0.63430   0.53638   0.00000  Uiso   1.00
H459   H     0.03340   0.36584   0.46717   0.00000  Uiso   1.00
H460   H     0.46659   0.63416   0.53288   0.00000  Uiso   1.00
H461   H     0.24252   0.65340   0.42891   0.00000  Uiso   1.00
H462   H     0.25748   0.34660   0.57109   0.00000  Uiso   1.00
H463   H     0.21519   0.45936   0.64952   0.00000  Uiso   1.00
H464   H     0.28481   0.54064   0.35048   0.00000  Uiso   1.00
N465   N     0.23744   0.48547   0.34617   0.00000  Uiso   1.00
N466   N     0.26255   0.51453   0.65383   0.00000  Uiso   1.00
O467   O     0.25325   0.42871   0.53992   0.00000  Uiso   1.00
O468   O     0.24674   0.57129   0.46008   0.00000  Uiso   1.00
O469   O     0.24480   0.41892   0.43612   0.00000  Uiso   1.00
O470   O     0.25520   0.58108   0.56388   0.00000  Uiso   1.00
O471   O     0.18935   0.50488   0.55191   0.00000  Uiso   1.00
O472   O     0.31064   0.49512   0.44809   0.00000  Uiso   1.00
O473   O     0.18090   0.49510   0.44810   0.00000  Uiso   1.00
O474   O     0.31910   0.50490   0.55190   0.00000  Uiso   1.00
C475   C     0.38443   0.59807   0.53181   0.00000  Uiso   1.00
H476   H     0.35419   0.60372   0.50513   0.00000  Uiso   1.00
O477   O     0.39683   0.63155   0.57818   0.00000  Uiso   1.00
C478   C     0.11557   0.40192   0.46812   0.00000  Uiso   1.00
H479   H     0.14587   0.39627   0.49472   0.00000  Uiso   1.00
O480   O     0.10311   0.36843   0.42176   0.00000  Uiso   1.00
C481   C     0.37680   0.40040   0.46624   0.00000  Uiso   1.00
H482   H     0.38276   0.37067   0.42556   0.00000  Uiso   1.00
O483   O     0.34873   0.39072   0.49945   0.00000  Uiso   1.00
C484   C     0.12320   0.59960   0.53377   0.00000  Uiso   1.00
H485   H     0.11724   0.62934   0.57444   0.00000  Uiso   1.00
O486   O     0.15127   0.60927   0.50056   0.00000  Uiso   1.00
C487   C     0.74816   0.39992   0.48447   0.00000  Uiso   1.00
C488   C     0.75184   0.60008   0.51553   0.00000  Uiso   1.00
C489   C     0.51879   0.40384   0.47465   0.00000  Uiso   1.00
C490   C     0.98120   0.59615   0.52538   0.00000  Uiso   1.00
C491   C     0.74733   0.34393   0.47572   0.00000  Uiso   1.00
C492   C     0.75267   0.65607   0.52428   0.00000  Uiso   1.00
C493   C     0.66475   0.50040   0.50092   0.00000  Uiso   1.00
C494   C     0.83525   0.49960   0.49908   0.00000  Uiso   1.00
C495   C     0.90832   0.54831   0.51398   0.00000  Uiso   1.00
C496   C     0.59168   0.45168   0.48601   0.00000  Uiso   1.00
C497   C     0.88336   0.49968   0.49751   0.00000  Uiso   1.00
C498   C     0.61664   0.50031   0.50249   0.00000  Uiso   1.00
C499   C     0.90405   0.45122   0.48255   0.00000  Uiso   1.00
C500   C     0.59595   0.54878   0.51747   0.00000  Uiso   1.00
C501   C     0.95085   0.45136   0.48423   0.00000  Uiso   1.00
C502   C     0.54915   0.54864   0.51580   0.00000  Uiso   1.00
C503   C     0.97644   0.49998   0.49943   0.00000  Uiso   1.00
C504   C     0.52356   0.50001   0.50060   0.00000  Uiso   1.00
C505   C     0.95514   0.54854   0.51351   0.00000  Uiso   1.00
C506   C     0.54486   0.45145   0.48651   0.00000  Uiso   1.00
C507   C     0.97280   0.40378   0.47307   0.00000  Uiso   1.00
C508   C     0.52720   0.59622   0.52697   0.00000  Uiso   1.00
Cu509  Cu    0.75500   0.50579   0.56146   0.00000  Uiso   1.00
Cu510  Cu    0.74499   0.49421   0.43854   0.00000  Uiso   1.00
H511   H     0.95483   0.36570   0.46367   0.00000  Uiso   1.00
H512   H     0.54516   0.63430   0.53638   0.00000  Uiso   1.00
H513   H     0.53340   0.36584   0.46717   0.00000  Uiso   1.00
H514   H     0.96659   0.63416   0.53288   0.00000  Uiso   1.00
H515   H     0.74252   0.65340   0.42891   0.00000  Uiso   1.00
H516   H     0.75748   0.34660   0.57109   0.00000  Uiso   1.00
H517   H     0.71519   0.45936   0.64952   0.00000  Uiso   1.00
H518   H     0.78481   0.54064   0.35048   0.00000  Uiso   1.00
N519   N     0.73744   0.48547   0.34617   0.00000  Uiso   1.00
N520   N     0.76255   0.51453   0.65383   0.00000  Uiso   1.00
O521   O     0.75325   0.42871   0.53992   0.00000  Uiso   1.00
O522   O     0.74674   0.57129   0.46008   0.00000  Uiso   1.00
O523   O     0.74480   0.41892   0.43612   0.00000  Uiso   1.00
O524   O     0.75520   0.58108   0.56388   0.00000  Uiso   1.00
O525   O     0.68935   0.50488   0.55191   0.00000  Uiso   1.00
O526   O     0.81064   0.49512   0.44809   0.00000  Uiso   1.00
O527   O     0.68090   0.49510   0.44810   0.00000  Uiso   1.00
O528   O     0.81910   0.50490   0.55190   0.00000  Uiso   1.00
C529   C     0.88443   0.59807   0.53181   0.00000  Uiso   1.00
H530   H     0.85419   0.60372   0.50513   0.00000  Uiso   1.00
O531   O     0.89683   0.63155   0.57818   0.00000  Uiso   1.00
C532   C     0.61557   0.40192   0.46812   0.00000  Uiso   1.00
H533   H     0.64587   0.39627   0.49472   0.00000  Uiso   1.00
O534   O     0.60311   0.36843   0.42176   0.00000  Uiso   1.00
C535   C     0.87680   0.40040   0.46624   0.00000  Uiso   1.00
H536   H     0.88276   0.37067   0.42556   0.00000  Uiso   1.00
O537   O     0.84873   0.39072   0.49945   0.00000  Uiso   1.00
C538   C     0.62320   0.59960   0.53377   0.00000  Uiso   1.00
H539   H     0.61724   0.62934   0.57444   0.00000  Uiso   1.00
O540   O     0.65127   0.60927   0.50056   0.00000  Uiso   1.00
C541   C     0.24816   0.73325   0.48447   0.00000  Uiso   1.00
C542   C     0.25184   0.93341   0.51553   0.00000  Uiso   1.00
C543   C     0.01879   0.73718   0.47465   0.00000  Uiso   1.00
C544   C     0.48120   0.92949   0.52538   0.00000  Uiso   1.00
C545   C     0.24733   0.67726   0.47572   0.00000  Uiso   1.00
C546   C     0.25267   0.98940   0.52428   0.00000  Uiso   1.00
C547   C     0.16475   0.83373   0.50092   0.00000  Uiso   1.00
C548   C     0.33525   0.83293   0.49908   0.00000  Uiso   1.00
C549   C     0.40832   0.88165   0.51398   0.00000  Uiso   1.00
C550   C     0.09168   0.78501   0.48601   0.00000  Uiso   1.00
C551   C     0.38336   0.83302   0.49751   0.00000  Uiso   1.00
C552   C     0.11664   0.83365   0.50249   0.00000  Uiso   1.00
C553   C     0.40405   0.78456   0.48255   0.00000  Uiso   1.00
C554   C     0.09595   0.88211   0.51747   0.00000  Uiso   1.00
C555   C     0.45085   0.78469   0.48423   0.00000  Uiso   1.00
C556   C     0.04915   0.88197   0.51580   0.00000  Uiso   1.00
C557   C     0.47644   0.83332   0.49943   0.00000  Uiso   1.00
C558   C     0.02356   0.83335   0.50060   0.00000  Uiso   1.00
C559   C     0.45514   0.88188   0.51351   0.00000  Uiso   1.00
C560   C     0.04486   0.78478   0.48651   0.00000  Uiso   1.00
C561   C     0.47280   0.73712   0.47307   0.00000  Uiso   1.00
C562   C     0.02720   0.92955   0.52697   0.00000  Uiso   1.00
Cu563  Cu    0.25500   0.83913   0.56146   0.00000  Uiso   1.00
Cu564  Cu    0.24499   0.82754   0.43854   0.00000  Uiso   1.00
H565   H     0.45483   0.69904   0.46367   0.00000  Uiso   1.00
H566   H     0.04516   0.96763   0.53638   0.00000  Uiso   1.00
H567   H     0.03340   0.69917   0.46717   0.00000  Uiso   1.00
H568   H     0.46659   0.96749   0.53288   0.00000  Uiso   1.00
H569   H     0.24252   0.98673   0.42891   0.00000  Uiso   1.00
H570   H     0.25748   0.67994   0.57109   0.00000  Uiso   1.00
H571   H     0.21519   0.79270   0.64952   0.00000  Uiso   1.00
H572   H     0.28481   0.87397   0.35048   0.00000  Uiso   1.00
N573   N     0.23744   0.81881   0.34617   0.00000  Uiso   1.00
N574   N     0.26255   0.84786   0.65383   0.00000  Uiso   1.00
O575   O     0.25325   0.76204   0.53992   0.00000  Uiso   1.00
O576   O     0.24674   0.90462   0.46008   0.00000  Uiso   1.00
O577   O     0.24480   0.75226   0.43612   0.00000  Uiso   1.00
O578   O     0.25520   0.91441   0.56388   0.00000  Uiso   1.00
O579   O     0.18935   0.83821   0.55191   0.00000  Uiso   1.00
O580   O     0.31064   0.82845   0.44809   0.00000  Uiso   1.00
O581   O     0.18090   0.82843   0.44810   0.00000  Uiso   1.00
O582   O     0.31910   0.83824   0.55190   0.00000  Uiso   1.00
C583   C     0.38443   0.93141   0.53181   0.00000  Uiso   1.00
H584   H     0.35419   0.93705   0.50513   0.00000  Uiso   1.00
O585   O     0.39683   0.96489   0.57818   0.00000  Uiso   1.00
C586   C     0.11557   0.73525   0.46812   0.00000  Uiso   1.00
H587   H     0.14587   0.72961   0.49472   0.00000  Uiso   1.00
O588   O     0.10311   0.70176   0.42176   0.00000  Uiso   1.00
C589   C     0.37680   0.73373   0.46624   0.00000  Uiso   1.00
H590   H     0.38276   0.70400   0.42556   0.00000  Uiso   1.00
O591   O     0.34873   0.72406   0.49945   0.00000  Uiso   1.00
C592   C     0.12320   0.93293   0.53377   0.00000  Uiso   1.00
H593   H     0.11724   0.96267   0.57444   0.00000  Uiso   1.00
O594   O     0.15127   0.94261   0.50056   0.00000  Uiso   1.00
C595   C     0.74816   0.73325   0.48447   0.00000  Uiso   1.00
C596   C     0.75184   0.93341   0.51553   0.00000  Uiso   1.00
C597   C     0.51879   0.73718   0.47465   0.00000  Uiso   1.00
C598   C     0.98120   0.92949   0.52538   0.00000  Uiso   1.00
C599   C     0.74733   0.67726   0.47572   0.00000  Uiso   1.00
C600   C     0.75267   0.98940   0.52428   0.00000  Uiso   1.00
C601   C     0.66475   0.83373   0.50092   0.00000  Uiso   1.00
C602   C     0.83525   0.83293   0.49908   0.00000  Uiso   1.00
C603   C     0.90832   0.88165   0.51398   0.00000  Uiso   1.00
C604   C     0.59168   0.78501   0.48601   0.00000  Uiso   1.00
C605   C     0.88336   0.83302   0.49751   0.00000  Uiso   1.00
C606   C     0.61664   0.83365   0.50249   0.00000  Uiso   1.00
C607   C     0.90405   0.78456   0.48255   0.00000  Uiso   1.00
C608   C     0.59595   0.88211   0.51747   0.00000  Uiso   1.00
C609   C     0.95085   0.78469   0.48423   0.00000  Uiso   1.00
C610   C     0.54915   0.88197   0.51580   0.00000  Uiso   1.00
C611   C     0.97644   0.83332   0.49943   0.00000  Uiso   1.00
C612   C     0.52356   0.83335   0.50060   0.00000  Uiso   1.00
C613   C     0.95514   0.88188   0.51351   0.00000  Uiso   1.00
C614   C     0.54486   0.78478   0.48651   0.00000  Uiso   1.00
C615   C     0.97280   0.73712   0.47307   0.00000  Uiso   1.00
C616   C     0.52720   0.92955   0.52697   0.00000  Uiso   1.00
Cu617  Cu    0.75500   0.83913   0.56146   0.00000  Uiso   1.00
Cu618  Cu    0.74499   0.82754   0.43854   0.00000  Uiso   1.00
H619   H     0.95483   0.69904   0.46367   0.00000  Uiso   1.00
H620   H     0.54516   0.96763   0.53638   0.00000  Uiso   1.00
H621   H     0.53340   0.69917   0.46717   0.00000  Uiso   1.00
H622   H     0.96659   0.96749   0.53288   0.00000  Uiso   1.00
H623   H     0.74252   0.98673   0.42891   0.00000  Uiso   1.00
H624   H     0.75748   0.67994   0.57109   0.00000  Uiso   1.00
H625   H     0.71519   0.79270   0.64952   0.00000  Uiso   1.00
H626   H     0.78481   0.87397   0.35048   0.00000  Uiso   1.00
N627   N     0.73744   0.81881   0.34617   0.00000  Uiso   1.00
N628   N     0.76255   0.84786   0.65383   0.00000  Uiso   1.00
O629   O     0.75325   0.76204   0.53992   0.00000  Uiso   1.00
O630   O     0.74674   0.90462   0.46008   0.00000  Uiso   1.00
O631   O     0.74480   0.75226   0.43612   0.00000  Uiso   1.00
O632   O     0.75520   0.91441   0.56388   0.00000  Uiso   1.00
O633   O     0.68935   0.83821   0.55191   0.00000  Uiso   1.00
O634   O     0.81064   0.82845   0.44809   0.00000  Uiso   1.00
O635   O     0.68090   0.82843   0.44810   0.00000  Uiso   1.00
O636   O     0.81910   0.83824   0.55190   0.00000  Uiso   1.00
C637   C     0.88443   0.93141   0.53181   0.00000  Uiso   1.00
H638   H     0.85419   0.93705   0.50513   0.00000  Uiso   1.00
O639   O     0.89683   0.96489   0.57818   0.00000  Uiso   1.00
C640   C     0.61557   0.73525   0.46812   0.00000  Uiso   1.00
H641   H     0.64587   0.72961   0.49472   0.00000  Uiso   1.00
O642   O     0.60311   0.70176   0.42176   0.00000  Uiso   1.00
C643   C     0.87680   0.73373   0.46624   0.00000  Uiso   1.00
H644   H     0.88276   0.70400   0.42556   0.00000  Uiso   1.00
O645   O     0.84873   0.72406   0.49945   0.00000  Uiso   1.00
C646   C     0.62320   0.93293   0.53377   0.00000  Uiso   1.00
H647   H     0.61724   0.96267   0.57444   0.00000  Uiso   1.00
O648   O     0.65127   0.94261   0.50056   0.00000  Uiso   1.00
C649   C     0.24816   0.06659   0.81780   0.00000  Uiso   1.00
C650   C     0.25184   0.26675   0.84887   0.00000  Uiso   1.00
C651   C     0.01879   0.07051   0.80799   0.00000  Uiso   1.00
C652   C     0.48120   0.26282   0.85872   0.00000  Uiso   1.00
C653   C     0.24733   0.01060   0.80905   0.00000  Uiso   1.00
C654   C     0.25267   0.32274   0.85761   0.00000  Uiso   1.00
C655   C     0.16475   0.16707   0.83425   0.00000  Uiso   1.00
C656   C     0.33525   0.16626   0.83241   0.00000  Uiso   1.00
C657   C     0.40832   0.21498   0.84731   0.00000  Uiso   1.00
C658   C     0.09168   0.11835   0.81934   0.00000  Uiso   1.00
C659   C     0.38336   0.16635   0.83084   0.00000  Uiso   1.00
C660   C     0.11664   0.16698   0.83582   0.00000  Uiso   1.00
C661   C     0.40405   0.11789   0.81588   0.00000  Uiso   1.00
C662   C     0.09595   0.21544   0.85080   0.00000  Uiso   1.00
C663   C     0.45085   0.11803   0.81757   0.00000  Uiso   1.00
C664   C     0.04915   0.21530   0.84913   0.00000  Uiso   1.00
C665   C     0.47644   0.16665   0.83276   0.00000  Uiso   1.00
C666   C     0.02356   0.16668   0.83394   0.00000  Uiso   1.00
C667   C     0.45514   0.21521   0.84684   0.00000  Uiso   1.00
C668   C     0.04486   0.11812   0.81985   0.00000  Uiso   1.00
C669   C     0.47280   0.07045   0.80640   0.00000  Uiso   1.00
C670   C     0.02720   0.26288   0.86031   0.00000  Uiso   1.00
Cu671  Cu    0.25500   0.17246   0.89479   0.00000  Uiso   1.00
Cu672  Cu    0.24499   0.16087   0.77187   0.00000  Uiso   1.00
H673   H     0.45483   0.03237   0.79701   0.00000  Uiso   1.00
H674   H     0.04516   0.30096   0.86971   0.00000  Uiso   1.00
H675   H     0.03340   0.03250   0.80051   0.00000  Uiso   1.00
H676   H     0.46659   0.30083   0.86621   0.00000  Uiso   1.00
H677   H     0.24252   0.32006   0.76225   0.00000  Uiso   1.00
H678   H     0.25748   0.01327   0.90442   0.00000  Uiso   1.00
H679   H     0.21519   0.12603   0.98285   0.00000  Uiso   1.00
H680   H     0.28481   0.20730   0.68382   0.00000  Uiso   1.00
N681   N     0.23744   0.15214   0.67951   0.00000  Uiso   1.00
N682   N     0.26255   0.18119   0.98716   0.00000  Uiso   1.00
O683   O     0.25325   0.09538   0.87326   0.00000  Uiso   1.00
O684   O     0.24674   0.23796   0.79341   0.00000  Uiso   1.00
O685   O     0.24480   0.08559   0.76945   0.00000  Uiso   1.00
O686   O     0.25520   0.24774   0.89721   0.00000  Uiso   1.00
O687   O     0.18935   0.17155   0.88524   0.00000  Uiso   1.00
O688   O     0.31064   0.16179   0.78143   0.00000  Uiso   1.00
O689   O     0.18090   0.16176   0.78143   0.00000  Uiso   1.00
O690   O     0.31910   0.17157   0.88523   0.00000  Uiso   1.00
C691   C     0.38443   0.26474   0.86514   0.00000  Uiso   1.00
H692   H     0.35419   0.27039   0.83847   0.00000  Uiso   1.00
O693   O     0.39683   0.29822   0.91152   0.00000  Uiso   1.00
C694   C     0.11557   0.06858   0.80145   0.00000  Uiso   1.00
H695   H     0.14587   0.06294   0.82805   0.00000  Uiso   1.00
O696   O     0.10311   0.03510   0.75510   0.00000  Uiso   1.00
C697   C     0.37680   0.06707   0.79958   0.00000  Uiso   1.00
H698   H     0.38276   0.03733   0.75889   0.00000  Uiso   1.00
O699   O     0.34873   0.05739   0.83278   0.00000  Uiso   1.00
C700   C     0.12320   0.26626   0.86710   0.00000  Uiso   1.00
H701   H     0.11724   0.29601   0.90777   0.00000  Uiso   1.00
O702   O     0.15127   0.27594   0.83390   0.00000  Uiso   1.00
C703   C     0.74816   0.06659   0.81780   0.00000  Uiso   1.00
C704   C     0.75184   0.26675   0.84887   0.00000  Uiso   1.00
C705   C     0.51879   0.07051   0.80799   0.00000  Uiso   1.00
C706   C     0.98120   0.26282   0.85872   0.00000  Uiso   1.00
C707   C     0.74733   0.01060   0.80905   0.00000  Uiso   1.00
C708   C     0.75267   0.32274   0.85761   0.00000  Uiso   1.00
C709   C     0.66475   0.16707   0.83425   0.00000  Uiso   1.00
C710   C     0.83525   0.16626   0.83241   0.00000  Uiso   1.00
C711   C     0.90832   0.21498   0.84731   0.00000  Uiso   1.00
C712   C     0.59168   0.11835   0.81934   0.00000  Uiso   1.00
C713   C     0.88336   0.16635   0.83084   0.00000  Uiso   1.00
C714   C     0.61664   0.16698   0.83582   0.00000  Uiso   1.00
C715   C     0.90405   0.11789   0.81588   0.00000  Uiso   1.00
C716   C     0.59595   0.21544   0.85080   0.00000  Uiso   1.00
C717   C     0.95085   0.11803   0.81757   0.00000  Uiso   1.00
C718   C     0.54915   0.21530   0.84913   0.00000  Uiso   1.00
C719   C     0.97644   0.16665   0.83276   0.00000  Uiso   1.00
C720   C     0.52356   0.16668   0.83394   0.00000  Uiso   1.00
C721   C     0.95514   0.21521   0.84684   0.00000  Uiso   1.00
C722   C     0.54486   0.11812   0.81985   0.00000  Uiso   1.00
C723   C     0.97280   0.07045   0.80640   0.00000  Uiso   1.00
C724   C     0.52720   0.26288   0.86031   0.00000  Uiso   1.00
Cu725  Cu    0.75500   0.17246   0.89479   0.00000  Uiso   1.00
Cu726  Cu    0.74499   0.16087   0.77187   0.00000  Uiso   1.00
H727   H     0.95483   0.03237   0.79701   0.00000  Uiso   1.00
H728   H     0.54516   0.30096   0.86971   0.00000  Uiso   1.00
H729   H     0.53340   0.03250   0.80051   0.00000  Uiso   1.00
H730   H     0.96659   0.30083   0.86621   0.00000  Uiso   1.00
H731   H     0.74252   0.32006   0.76225   0.00000  Uiso   1.00
H732   H     0.75748   0.01327   0.90442   0.00000  Uiso   1.00
H733   H     0.71519   0.12603   0.98285   0.00000  Uiso   1.00
H734   H     0.78481   0.20730   0.68382   0.00000  Uiso   1.00
N735   N     0.73744   0.15214   0.67951   0.00000  Uiso   1.00
N736   N     0.76255   0.18119   0.98716   0.00000  Uiso   1.00
O737   O     0.75325   0.09538   0.87326   0.00000  Uiso   1.00
O738   O     0.74674   0.23796   0.79341   0.00000  Uiso   1.00
O739   O     0.74480   0.08559   0.76945   0.00000  Uiso   1.00
O740   O     0.75520   0.24774   0.89721   0.00000  Uiso   1.00
O741   O     0.68935   0.17155   0.88524   0.00000  Uiso   1.00
O742   O     0.81064   0.16179   0.78143   0.00000  Uiso   1.00
O743   O     0.68090   0.16176   0.78143   0.00000  Uiso   1.00
O744   O     0.81910   0.17157   0.88523   0.00000  Uiso   1.00
C745   C     0.88443   0.26474   0.86514   0.00000  Uiso   1.00
H746   H     0.85419   0.27039   0.83847   0.00000  Uiso   1.00
O747   O     0.89683   0.29822   0.91152   0.00000  Uiso   1.00
C748   C     0.61557   0.06858   0.80145   0.00000  Uiso   1.00
H749   H     0.64587   0.06294   0.82805   0.00000  Uiso   1.00
O750   O     0.60311   0.03510   0.75510   0.00000  Uiso   1.00
C751   C     0.87680   0.06707   0.79958   0.00000  Uiso   1.00
H752   H     0.88276   0.03733   0.75889   0.00000  Uiso   1.00
O753   O     0.84873   0.05739   0.83278   0.00000  Uiso   1.00
C754   C     0.62320   0.26626   0.86710   0.00000  Uiso   1.00
H755   H     0.61724   0.29601   0.90777   0.00000  Uiso   1.00
O756   O     0.65127   0.27594   0.83390   0.00000  Uiso   1.00
C757   C     0.24816   0.39992   0.81780   0.00000  Uiso   1.00
C758   C     0.25184   0.60008   0.84887   0.00000  Uiso   1.00
C759   C     0.01879   0.40384   0.80799   0.00000  Uiso   1.00
C760   C     0.48120   0.59615   0.85872   0.00000  Uiso   1.00
C761   C     0.24733   0.34393   0.80905   0.00000  Uiso   1.00
C762   C     0.25267   0.65607   0.85761   0.00000  Uiso   1.00
C763   C     0.16475   0.50040   0.83425   0.00000  Uiso   1.00
C764   C     0.33525   0.49960   0.83241   0.00000  Uiso   1.00
C765   C     0.40832   0.54831   0.84731   0.00000  Uiso   1.00
C766   C     0.09168   0.45168   0.81934   0.00000  Uiso   1.00
C767   C     0.38336   0.49968   0.83084   0.00000  Uiso   1.00
C768   C     0.11664   0.50031   0.83582   0.00000  Uiso   1.00
C769   C     0.40405   0.45122   0.81588   0.00000  Uiso   1.00
C770   C     0.09595   0.54878   0.85080   0.00000  Uiso   1.00
C771   C     0.45085   0.45136   0.81757   0.00000  Uiso   1.00
C772   C     0.04915   0.54864   0.84913   0.00000  Uiso   1.00
C773   C     0.47644   0.49998   0.83276   0.00000  Uiso   1.00
C774   C     0.02356   0.50001   0.83394   0.00000  Uiso   1.00
C775   C     0.45514   0.54854   0.84684   0.00000  Uiso   1.00
C776   C     0.04486   0.45145   0.81985   0.00000  Uiso   1.00
C777   C     0.47280   0.40378   0.80640   0.00000  Uiso   1.00
C778   C     0.02720   0.59622   0.86031   0.00000  Uiso   1.00
Cu779  Cu    0.25500   0.50579   0.89479   0.00000  Uiso   1.00
Cu780  Cu    0.24499   0.49421   0.77187   0.00000  Uiso   1.00
H781   H     0.45483   0.36570   0.79701   0.00000  Uiso   1.00
H782   H     0.04516   0.63430   0.86971   0.00000  Uiso   1.00
H783   H     0.03340   0.36584   0.80051   0.00000  Uiso   1.00
H784   H     0.46659   0.63416   0.86621   0.00000  Uiso   1.00
H785   H     0.24252   0.65340   0.76225   0.00000  Uiso   1.00
H786   H     0.25748   0.34660   0.90442   0.00000  Uiso   1.00
H787   H     0.21519   0.45936   0.98285   0.00000  Uiso   1.00
H788   H     0.28481   0.54064   0.68382   0.00000  Uiso   1.00
N789   N     0.23744   0.48547   0.67951   0.00000  Uiso   1.00
N790   N     0.26255   0.51453   0.98716   0.00000  Uiso   1.00
O791   O     0.25325   0.42871   0.87326   0.00000  Uiso   1.00
O792   O     0.24674   0.57129   0.79341   0.00000  Uiso   1.00
O793   O     0.24480   0.41892   0.76945   0.00000  Uiso   1.00
O794   O     0.25520   0.58108   0.89721   0.00000  Uiso   1.00
O795   O     0.18935   0.50488   0.88524   0.00000  Uiso   1.00
O796   O     0.31064   0.49512   0.78143   0.00000  Uiso   1.00
O797   O     0.18090   0.49510   0.78143   0.00000  Uiso   1.00
O798   O     0.31910   0.50490   0.88523   0.00000  Uiso   1.00
C799   C     0.38443   0.59807   0.86514   0.00000  Uiso   1.00
H800   H     0.35419   0.60372   0.83847   0.00000  Uiso   1.00
O801   O     0.39683   0.63155   0.91152   0.00000  Uiso   1.00
C802   C     0.11557   0.40192   0.80145   0.00000  Uiso   1.00
H803   H     0.14587   0.39627   0.82805   0.00000  Uiso   1.00
O804   O     0.10311   0.36843   0.75510   0.00000  Uiso   1.00
C805   C     0.37680   0.40040   0.79958   0.00000  Uiso   1.00
H806   H     0.38276   0.37067   0.75889   0.00000  Uiso   1.00
O807   O     0.34873   0.39072   0.83278   0.00000  Uiso   1.00
C808   C     0.12320   0.59960   0.86710   0.00000  Uiso   1.00
H809   H     0.11724   0.62934   0.90777   0.00000  Uiso   1.00
O810   O     0.15127   0.60927   0.83390   0.00000  Uiso   1.00
C811   C     0.74816   0.39992   0.81780   0.00000  Uiso   1.00
C812   C     0.75184   0.60008   0.84887   0.00000  Uiso   1.00
C813   C     0.51879   0.40384   0.80799   0.00000  Uiso   1.00
C814   C     0.98120   0.59615   0.85872   0.00000  Uiso   1.00
C815   C     0.74733   0.34393   0.80905   0.00000  Uiso   1.00
C816   C     0.75267   0.65607   0.85761   0.00000  Uiso   1.00
C817   C     0.66475   0.50040   0.83425   0.00000  Uiso   1.00
C818   C     0.83525   0.49960   0.83241   0.00000  Uiso   1.00
C819   C     0.90832   0.54831   0.84731   0.00000  Uiso   1.00
C820   C     0.59168   0.45168   0.81934   0.00000  Uiso   1.00
C821   C     0.88336   0.49968   0.83084   0.00000  Uiso   1.00
C822   C     0.61664   0.50031   0.83582   0.00000  Uiso   1.00
C823   C     0.90405   0.45122   0.81588   0.00000  Uiso   1.00
C824   C     0.59595   0.54878   0.85080   0.00000  Uiso   1.00
C825   C     0.95085   0.45136   0.81757   0.00000  Uiso   1.00
C826   C     0.54915   0.54864   0.84913   0.00000  Uiso   1.00
C827   C     0.97644   0.49998   0.83276   0.00000  Uiso   1.00
C828   C     0.52356   0.50001   0.83394   0.00000  Uiso   1.00
C829   C     0.95514   0.54854   0.84684   0.00000  Uiso   1.00
C830   C     0.54486   0.45145   0.81985   0.00000  Uiso   1.00
C831   C     0.97280   0.40378   0.80640   0.00000  Uiso   1.00
C832   C     0.52720   0.59622   0.86031   0.00000  Uiso   1.00
Cu833  Cu    0.75500   0.50579   0.89479   0.00000  Uiso   1.00
Cu834  Cu    0.74499   0.49421   0.77187   0.00000  Uiso   1.00
H835   H     0.95483   0.36570   0.79701   0.00000  Uiso   1.00
H836   H     0.54516   0.63430   0.86971   0.00000  Uiso   1.00
H837   H     0.53340   0.36584   0.80051   0.00000  Uiso   1.00
H838   H     0.96659   0.63416   0.86621   0.00000  Uiso   1.00
H839   H     0.74252   0.65340   0.76225   0.00000  Uiso   1.00
H840   H     0.75748   0.34660   0.90442   0.00000  Uiso   1.00
H841   H     0.71519   0.45936   0.98285   0.00000  Uiso   1.00
H842   H     0.78481   0.54064   0.68382   0.00000  Uiso   1.00
N843   N     0.73744   0.48547   0.67951   0.00000  Uiso   1.00
N844   N     0.76255   0.51453   0.98716   0.00000  Uiso   1.00
O845   O     0.75325   0.42871   0.87326   0.00000  Uiso   1.00
O846   O     0.74674   0.57129   0.79341   0.00000  Uiso   1.00
O847   O     0.74480   0.41892   0.76945   0.00000  Uiso   1.00
O848   O     0.75520   0.58108   0.89721   0.00000  Uiso   1.00
O849   O     0.68935   0.50488   0.88524   0.00000  Uiso   1.00
O850   O     0.81064   0.49512   0.78143   0.00000  Uiso   1.00
O851   O     0.68090   0.49510   0.78143   0.00000  Uiso   1.00
O852   O     0.81910   0.50490   0.88523   0.00000  Uiso   1.00
C853   C     0.88443   0.59807   0.86514   0.00000  Uiso   1.00
H854   H     0.85419   0.60372   0.83847   0.00000  Uiso   1.00
O855   O     0.89683   0.63155   0.91152   0.00000  Uiso   1.00
C856   C     0.61557   0.40192   0.80145   0.00000  Uiso   1.00
H857   H     0.64587   0.39627   0.82805   0.00000  Uiso   1.00
O858   O     0.60311   0.36843   0.75510   0.00000  Uiso   1.00
C859   C     0.87680   0.40040   0.79958   0.00000  Uiso   1.00
H860   H     0.88276   0.37067   0.75889   0.00000  Uiso   1.00
O861   O     0.84873   0.39072   0.83278   0.00000  Uiso   1.00
C862   C     0.62320   0.59960   0.86710   0.00000  Uiso   1.00
H863   H     0.61724   0.62934   0.90777   0.00000  Uiso   1.00
O864   O     0.65127   0.60927   0.83390   0.00000  Uiso   1.00
C865   C     0.24816   0.73325   0.81780   0.00000  Uiso   1.00
C866   C     0.25184   0.93341   0.84887   0.00000  Uiso   1.00
C867   C     0.01879   0.73718   0.80799   0.00000  Uiso   1.00
C868   C     0.48120   0.92949   0.85872   0.00000  Uiso   1.00
C869   C     0.24733   0.67726   0.80905   0.00000  Uiso   1.00
C870   C     0.25267   0.98940   0.85761   0.00000  Uiso   1.00
C871   C     0.16475   0.83373   0.83425   0.00000  Uiso   1.00
C872   C     0.33525   0.83293   0.83241   0.00000  Uiso   1.00
C873   C     0.40832   0.88165   0.84731   0.00000  Uiso   1.00
C874   C     0.09168   0.78501   0.81934   0.00000  Uiso   1.00
C875   C     0.38336   0.83302   0.83084   0.00000  Uiso   1.00
C876   C     0.11664   0.83365   0.83582   0.00000  Uiso   1.00
C877   C     0.40405   0.78456   0.81588   0.00000  Uiso   1.00
C878   C     0.09595   0.88211   0.85080   0.00000  Uiso   1.00
C879   C     0.45085   0.78469   0.81757   0.00000  Uiso   1.00
C880   C     0.04915   0.88197   0.84913   0.00000  Uiso   1.00
C881   C     0.47644   0.83332   0.83276   0.00000  Uiso   1.00
C882   C     0.02356   0.83335   0.83394   0.00000  Uiso   1.00
C883   C     0.45514   0.88188   0.84684   0.00000  Uiso   1.00
C884   C     0.04486   0.78478   0.81985   0.00000  Uiso   1.00
C885   C     0.47280   0.73712   0.80640   0.00000  Uiso   1.00
C886   C     0.02720   0.92955   0.86031   0.00000  Uiso   1.00
Cu887  Cu    0.25500   0.83913   0.89479   0.00000  Uiso   1.00
Cu888  Cu    0.24499   0.82754   0.77187   0.00000  Uiso   1.00
H889   H     0.45483   0.69904   0.79701   0.00000  Uiso   1.00
H890   H     0.04516   0.96763   0.86971   0.00000  Uiso   1.00
H891   H     0.03340   0.69917   0.80051   0.00000  Uiso   1.00
H892   H     0.46659   0.96749   0.86621   0.00000  Uiso   1.00
H893   H     0.24252   0.98673   0.76225   0.00000  Uiso   1.00
H894   H     0.25748   0.67994   0.90442   0.00000  Uiso   1.00
H895   H     0.21519   0.79270   0.98285   0.00000  Uiso   1.00
H896   H     0.28481   0.87397   0.68382   0.00000  Uiso   1.00
N897   N     0.23744   0.81881   0.67951   0.00000  Uiso   1.00
N898   N     0.26255   0.84786   0.98716   0.00000  Uiso   1.00
O899   O     0.25325   0.76204   0.87326   0.00000  Uiso   1.00
O900   O     0.24674   0.90462   0.79341   0.00000  Uiso   1.00
O901   O     0.24480   0.75226   0.76945   0.00000  Uiso   1.00
O902   O     0.25520   0.91441   0.89721   0.00000  Uiso   1.00
O903   O     0.18935   0.83821   0.88524   0.00000  Uiso   1.00
O904   O     0.31064   0.82845   0.78143   0.00000  Uiso   1.00
O905   O     0.18090   0.82843   0.78143   0.00000  Uiso   1.00
O906   O     0.31910   0.83824   0.88523   0.00000  Uiso   1.00
C907   C     0.38443   0.93141   0.86514   0.00000  Uiso   1.00
H908   H     0.35419   0.93705   0.83847   0.00000  Uiso   1.00
O909   O     0.39683   0.96489   0.91152   0.00000  Uiso   1.00
C910   C     0.11557   0.73525   0.80145   0.00000  Uiso   1.00
H911   H     0.14587   0.72961   0.82805   0.00000  Uiso   1.00
O912   O     0.10311   0.70176   0.75510   0.00000  Uiso   1.00
C913   C     0.37680   0.73373   0.79958   0.00000  Uiso   1.00
H914   H     0.38276   0.70400   0.75889   0.00000  Uiso   1.00
O915   O     0.34873   0.72406   0.83278   0.00000  Uiso   1.00
C916   C     0.12320   0.93293   0.86710   0.00000  Uiso   1.00
H917   H     0.11724   0.96267   0.90777   0.00000  Uiso   1.00
O918   O     0.15127   0.94261   0.83390   0.00000  Uiso   1.00
C919   C     0.74816   0.73325   0.81780   0.00000  Uiso   1.00
C920   C     0.75184   0.93341   0.84887   0.00000  Uiso   1.00
C921   C     0.51879   0.73718   0.80799   0.00000  Uiso   1.00
C922   C     0.98120   0.92949   0.85872   0.00000  Uiso   1.00
C923   C     0.74733   0.67726   0.80905   0.00000  Uiso   1.00
C924   C     0.75267   0.98940   0.85761   0.00000  Uiso   1.00
C925   C     0.66475   0.83373   0.83425   0.00000  Uiso   1.00
C926   C     0.83525   0.83293   0.83241   0.00000  Uiso   1.00
C927   C     0.90832   0.88165   0.84731   0.00000  Uiso   1.00
C928   C     0.59168   0.78501   0.81934   0.00000  Uiso   1.00
C929   C     0.88336   0.83302   0.83084   0.00000  Uiso   1.00
C930   C     0.61664   0.83365   0.83582   0.00000  Uiso   1.00
C931   C     0.90405   0.78456   0.81588   0.00000  Uiso   1.00
C932   C     0.59595   0.88211   0.85080   0.00000  Uiso   1.00
C933   C     0.95085   0.78469   0.81757   0.00000  Uiso   1.00
C934   C     0.54915   0.88197   0.84913   0.00000  Uiso   1.00
C935   C     0.97644   0.83332   0.83276   0.00000  Uiso   1.00
C936   C     0.52356   0.83335   0.83394   0.00000  Uiso   1.00
C937   C     0.95514   0.88188   0.84684   0.00000  Uiso   1.00
C938   C     0.54486   0.78478   0.81985   0.00000  Uiso   1.00
C939   C     0.97280   0.73712   0.80640   0.00000  Uiso   1.00
C940   C     0.52720   0.92955   0.86031   0.00000  Uiso   1.00
Cu941  Cu    0.75500   0.83913   0.89479   0.00000  Uiso   1.00
Cu942  Cu    0.74499   0.82754   0.77187   0.00000  Uiso   1.00
H943   H     0.95483   0.69904   0.79701   0.00000  Uiso   1.00
H944   H     0.54516   0.96763   0.86971   0.00000  Uiso   1.00
H945   H     0.53340   0.69917   0.80051   0.00000  Uiso   1.00
H946   H     0.96659   0.96749   0.86621   0.00000  Uiso   1.00
H947   H     0.74252   0.98673   0.76225   0.00000  Uiso   1.00
H948   H     0.75748   0.67994   0.90442   0.00000  Uiso   1.00
H949   H     0.71519   0.79270   0.98285   0.00000  Uiso   1.00
H950   H     0.78481   0.87397   0.68382   0.00000  Uiso   1.00
N951   N     0.73744   0.81881   0.67951   0.00000  Uiso   1.00
N952   N     0.76255   0.84786   0.98716   0.00000  Uiso   1.00
O953   O     0.75325   0.76204   0.87326   0.00000  Uiso   1.00
O954   O     0.74674   0.90462   0.79341   0.00000  Uiso   1.00
O955   O     0.74480   0.75226   0.76945   0.00000  Uiso   1.00
O956   O     0.75520   0.91441   0.89721   0.00000  Uiso   1.00
O957   O     0.68935   0.83821   0.88524   0.00000  Uiso   1.00
O958   O     0.81064   0.82845   0.78143   0.00000  Uiso   1.00
O959   O     0.68090   0.82843   0.78143   0.00000  Uiso   1.00
O960   O     0.81910   0.83824   0.88523   0.00000  Uiso   1.00
C961   C     0.88443   0.93141   0.86514   0.00000  Uiso   1.00
H962   H     0.85419   0.93705   0.83847   0.00000  Uiso   1.00
O963   O     0.89683   0.96489   0.91152   0.00000  Uiso   1.00
C964   C     0.61557   0.73525   0.80145   0.00000  Uiso   1.00
H965   H     0.64587   0.72961   0.82805   0.00000  Uiso   1.00
O966   O     0.60311   0.70176   0.75510   0.00000  Uiso   1.00
C967   C     0.87680   0.73373   0.79958   0.00000  Uiso   1.00
H968   H     0.88276   0.70400   0.75889   0.00000  Uiso   1.00
O969   O     0.84873   0.72406   0.83278   0.00000  Uiso   1.00
C970   C     0.62320   0.93293   0.86710   0.00000  Uiso   1.00
H971   H     0.61724   0.96267   0.90777   0.00000  Uiso   1.00
O972   O     0.65127   0.94261   0.83390   0.00000  Uiso   1.00
loop_
_geom_bond_atom_site_label_1
_geom_bond_atom_site_label_2
_geom_bond_distance
_geom_bond_site_symmetry_2
_ccdc_geom_bond_type
C1     C5      1.424   .     S
C1     O37     1.284   .     A
C1     O35     1.293   .     A
C2     O38     1.284   .     A
C2     C6      1.424   .     S
C2     O36     1.293   .     A
C3     H27     1.080   .     S
C3     C20     1.404   .     A
C3     C75     1.383   1_455 S
C4     C19     1.404   .     A
C4     H28     1.080   .     S
C4     C76     1.383   .     S
C5     C222    1.325   1_545 S
C5     H245    1.088   1_545 S
C6     C113    1.325   .     S
C6     H138    1.088   .     S
C7     C12     1.451   .     S
C7     O39     1.294   .     A
C7     O41     1.290   .     A
C8     C11     1.451   .     S
C8     O40     1.294   .     A
C8     O42     1.290   .     A
C9     C11     1.408   .     A
C9     C43     1.493   .     S
C9     C19     1.411   .     A
C10    C46     1.493   .     S
C10    C20     1.411   .     A
C10    C12     1.408   .     A
C11    C13     1.409   .     A
C12    C14     1.409   .     A
C13    C15     1.407   .     A
C13    C49     1.488   .     S
C14    C16     1.407   .     A
C14    C52     1.488   .     S
C15    C21     1.405   .     A
C15    C17     1.417   .     A
C16    C22     1.405   .     A
C16    C18     1.417   .     A
C17    C19     1.419   .     A
C17    C72     1.417   .     S
C18    C20     1.419   .     A
C18    C71     1.417   1_455 S
C21    H25     1.081   .     S
C21    C57     1.383   .     S
C22    H26     1.081   .     S
C22    C58     1.383   1_455 S
Cu23   Cu24    2.691   .     S
Cu23   O39     1.972   .     S
Cu23   O38     1.945   .     S
Cu23   O35     1.951   .     S
Cu23   N34     2.022   .     S
Cu23   O42     1.957   .     S
Cu24   N33     2.022   .     S
Cu24   O37     1.945   .     S
Cu24   O41     1.957   .     S
Cu24   O36     1.951   .     S
Cu24   O40     1.972   .     S
H29    C113    1.088   .     S
H30    C222    1.088   1_545 S
H31    N357    1.029   .     S
H32    N682    1.029   1_554 S
N33    H679    1.029   1_554 S
N33    N682    1.299   1_554 S
N34    N357    1.299   .     S
N34    H356    1.029   .     S
C43    H44     1.085   .     S
C43    O45     1.221   .     D
C46    O48     1.221   .     D
C46    H47     1.085   .     S
C49    H50     1.085   .     S
C49    O51     1.220   .     D
C52    O54     1.220   .     D
C52    H53     1.085   .     S
C55    C59     1.424   .     S
C55    O91     1.284   .     A
C55    O89     1.293   .     A
C56    O92     1.284   .     A
C56    C60     1.424   .     S
C56    O90     1.293   .     A
C57    H81     1.080   .     S
C57    C74     1.404   .     A
C58    C73     1.404   .     A
C58    H82     1.080   .     S
C58    C22     1.383   1_655 S
C59    C276    1.325   1_545 S
C59    H299    1.088   1_545 S
C60    C167    1.325   .     S
C60    H192    1.088   .     S
C61    C66     1.451   .     S
C61    O93     1.294   .     A
C61    O95     1.290   .     A
C62    C65     1.451   .     S
C62    O94     1.294   .     A
C62    O96     1.290   .     A
C63    C65     1.408   .     A
C63    C97     1.493   .     S
C63    C73     1.411   .     A
C64    C100    1.493   .     S
C64    C74     1.411   .     A
C64    C66     1.408   .     A
C65    C67     1.409   .     A
C66    C68     1.409   .     A
C67    C69     1.407   .     A
C67    C103    1.488   .     S
C68    C70     1.407   .     A
C68    C106    1.488   .     S
C69    C75     1.405   .     A
C69    C71     1.417   .     A
C70    C76     1.405   .     A
C70    C72     1.417   .     A
C71    C73     1.419   .     A
C71    C18     1.417   1_655 S
C72    C74     1.419   .     A
C75    H79     1.081   .     S
C75    C3      1.383   1_655 S
C76    H80     1.081   .     S
Cu77   Cu78    2.691   .     S
Cu77   O93     1.972   .     S
Cu77   O92     1.945   .     S
Cu77   O89     1.951   .     S
Cu77   N88     2.022   .     S
Cu77   O96     1.957   .     S
Cu78   N87     2.022   .     S
Cu78   O91     1.945   .     S
Cu78   O95     1.957   .     S
Cu78   O90     1.951   .     S
Cu78   O94     1.972   .     S
H83    C167    1.088   .     S
H84    C276    1.088   1_545 S
H85    N411    1.029   .     S
H86    N736    1.029   1_554 S
N87    H733    1.029   1_554 S
N87    N736    1.299   1_554 S
N88    N411    1.299   .     S
N88    H410    1.029   .     S
C97    H98     1.085   .     S
C97    O99     1.221   .     D
C100   O102    1.221   .     D
C100   H101    1.085   .     S
C103   H104    1.085   .     S
C103   O105    1.220   .     D
C106   O108    1.220   .     D
C106   H107    1.085   .     S
C109   C113    1.424   .     S
C109   O145    1.284   .     A
C109   O143    1.293   .     A
C110   O146    1.284   .     A
C110   C114    1.424   .     S
C110   O144    1.293   .     A
C111   H135    1.080   .     S
C111   C128    1.404   .     A
C111   C183    1.383   1_455 S
C112   C127    1.404   .     A
C112   H136    1.080   .     S
C112   C184    1.383   .     S
C114   C221    1.325   .     S
C114   H246    1.088   .     S
C115   C120    1.451   .     S
C115   O147    1.294   .     A
C115   O149    1.290   .     A
C116   C119    1.451   .     S
C116   O148    1.294   .     A
C116   O150    1.290   .     A
C117   C119    1.408   .     A
C117   C151    1.493   .     S
C117   C127    1.411   .     A
C118   C154    1.493   .     S
C118   C128    1.411   .     A
C118   C120    1.408   .     A
C119   C121    1.409   .     A
C120   C122    1.409   .     A
C121   C123    1.407   .     A
C121   C157    1.488   .     S
C122   C124    1.407   .     A
C122   C160    1.488   .     S
C123   C129    1.405   .     A
C123   C125    1.417   .     A
C124   C130    1.405   .     A
C124   C126    1.417   .     A
C125   C127    1.419   .     A
C125   C180    1.417   .     S
C126   C128    1.419   .     A
C126   C179    1.417   1_455 S
C129   H133    1.081   .     S
C129   C165    1.383   .     S
C130   H134    1.081   .     S
C130   C166    1.383   1_455 S
Cu131  Cu132   2.691   .     S
Cu131  O147    1.972   .     S
Cu131  O146    1.945   .     S
Cu131  O143    1.951   .     S
Cu131  N142    2.022   .     S
Cu131  O150    1.957   .     S
Cu132  N141    2.022   .     S
Cu132  O145    1.945   .     S
Cu132  O149    1.957   .     S
Cu132  O144    1.951   .     S
Cu132  O148    1.972   .     S
H137   C221    1.088   .     S
H139   N465    1.029   .     S
H140   N790    1.029   1_554 S
N141   H787    1.029   1_554 S
N141   N790    1.299   1_554 S
N142   N465    1.299   .     S
N142   H464    1.029   .     S
C151   H152    1.085   .     S
C151   O153    1.221   .     D
C154   O156    1.221   .     D
C154   H155    1.085   .     S
C157   H158    1.085   .     S
C157   O159    1.220   .     D
C160   O162    1.220   .     D
C160   H161    1.085   .     S
C163   C167    1.424   .     S
C163   O199    1.284   .     A
C163   O197    1.293   .     A
C164   O200    1.284   .     A
C164   C168    1.424   .     S
C164   O198    1.293   .     A
C165   H189    1.080   .     S
C165   C182    1.404   .     A
C166   C181    1.404   .     A
C166   H190    1.080   .     S
C166   C130    1.383   1_655 S
C168   C275    1.325   .     S
C168   H300    1.088   .     S
C169   C174    1.451   .     S
C169   O201    1.294   .     A
C169   O203    1.290   .     A
C170   C173    1.451   .     S
C170   O202    1.294   .     A
C170   O204    1.290   .     A
C171   C173    1.408   .     A
C171   C205    1.493   .     S
C171   C181    1.411   .     A
C172   C208    1.493   .     S
C172   C182    1.411   .     A
C172   C174    1.408   .     A
C173   C175    1.409   .     A
C174   C176    1.409   .     A
C175   C177    1.407   .     A
C175   C211    1.488   .     S
C176   C178    1.407   .     A
C176   C214    1.488   .     S
C177   C183    1.405   .     A
C177   C179    1.417   .     A
C178   C184    1.405   .     A
C178   C180    1.417   .     A
C179   C181    1.419   .     A
C179   C126    1.417   1_655 S
C180   C182    1.419   .     A
C183   H187    1.081   .     S
C183   C111    1.383   1_655 S
C184   H188    1.081   .     S
Cu185  Cu186   2.691   .     S
Cu185  O201    1.972   .     S
Cu185  O200    1.945   .     S
Cu185  O197    1.951   .     S
Cu185  N196    2.022   .     S
Cu185  O204    1.957   .     S
Cu186  N195    2.022   .     S
Cu186  O199    1.945   .     S
Cu186  O203    1.957   .     S
Cu186  O198    1.951   .     S
Cu186  O202    1.972   .     S
H191   C275    1.088   .     S
H193   N519    1.029   .     S
H194   N844    1.029   1_554 S
N195   H841    1.029   1_554 S
N195   N844    1.299   1_554 S
N196   N519    1.299   .     S
N196   H518    1.029   .     S
C205   H206    1.085   .     S
C205   O207    1.221   .     D
C208   O210    1.221   .     D
C208   H209    1.085   .     S
C211   H212    1.085   .     S
C211   O213    1.220   .     D
C214   O216    1.220   .     D
C214   H215    1.085   .     S
C217   C221    1.424   .     S
C217   O253    1.284   .     A
C217   O251    1.293   .     A
C218   O254    1.284   .     A
C218   C222    1.424   .     S
C218   O252    1.293   .     A
C219   H243    1.080   .     S
C219   C236    1.404   .     A
C219   C291    1.383   1_455 S
C220   C235    1.404   .     A
C220   H244    1.080   .     S
C220   C292    1.383   .     S
C222   C5      1.325   1_565 S
C222   H30     1.088   1_565 S
C223   C228    1.451   .     S
C223   O255    1.294   .     A
C223   O257    1.290   .     A
C224   C227    1.451   .     S
C224   O256    1.294   .     A
C224   O258    1.290   .     A
C225   C227    1.408   .     A
C225   C259    1.493   .     S
C225   C235    1.411   .     A
C226   C262    1.493   .     S
C226   C236    1.411   .     A
C226   C228    1.408   .     A
C227   C229    1.409   .     A
C228   C230    1.409   .     A
C229   C231    1.407   .     A
C229   C265    1.488   .     S
C230   C232    1.407   .     A
C230   C268    1.488   .     S
C231   C237    1.405   .     A
C231   C233    1.417   .     A
C232   C238    1.405   .     A
C232   C234    1.417   .     A
C233   C235    1.419   .     A
C233   C288    1.417   .     S
C234   C236    1.419   .     A
C234   C287    1.417   1_455 S
C237   H241    1.081   .     S
C237   C273    1.383   .     S
C238   H242    1.081   .     S
C238   C274    1.383   1_455 S
Cu239  Cu240   2.691   .     S
Cu239  O255    1.972   .     S
Cu239  O254    1.945   .     S
Cu239  O251    1.951   .     S
Cu239  N250    2.022   .     S
Cu239  O258    1.957   .     S
Cu240  N249    2.022   .     S
Cu240  O253    1.945   .     S
Cu240  O257    1.957   .     S
Cu240  O252    1.951   .     S
Cu240  O256    1.972   .     S
H245   C5      1.088   1_565 S
H247   N573    1.029   .     S
H248   N898    1.029   1_554 S
N249   H895    1.029   1_554 S
N249   N898    1.299   1_554 S
N250   N573    1.299   .     S
N250   H572    1.029   .     S
C259   H260    1.085   .     S
C259   O261    1.221   .     D
C262   O264    1.221   .     D
C262   H263    1.085   .     S
C265   H266    1.085   .     S
C265   O267    1.220   .     D
C268   O270    1.220   .     D
C268   H269    1.085   .     S
C271   C275    1.424   .     S
C271   O307    1.284   .     A
C271   O305    1.293   .     A
C272   O308    1.284   .     A
C272   C276    1.424   .     S
C272   O306    1.293   .     A
C273   H297    1.080   .     S
C273   C290    1.404   .     A
C274   C289    1.404   .     A
C274   H298    1.080   .     S
C274   C238    1.383   1_655 S
C276   C59     1.325   1_565 S
C276   H84     1.088   1_565 S
C277   C282    1.451   .     S
C277   O309    1.294   .     A
C277   O311    1.290   .     A
C278   C281    1.451   .     S
C278   O310    1.294   .     A
C278   O312    1.290   .     A
C279   C281    1.408   .     A
C279   C313    1.493   .     S
C279   C289    1.411   .     A
C280   C316    1.493   .     S
C280   C290    1.411   .     A
C280   C282    1.408   .     A
C281   C283    1.409   .     A
C282   C284    1.409   .     A
C283   C285    1.407   .     A
C283   C319    1.488   .     S
C284   C286    1.407   .     A
C284   C322    1.488   .     S
C285   C291    1.405   .     A
C285   C287    1.417   .     A
C286   C292    1.405   .     A
C286   C288    1.417   .     A
C287   C289    1.419   .     A
C287   C234    1.417   1_655 S
C288   C290    1.419   .     A
C291   H295    1.081   .     S
C291   C219    1.383   1_655 S
C292   H296    1.081   .     S
Cu293  Cu294   2.691   .     S
Cu293  O309    1.972   .     S
Cu293  O308    1.945   .     S
Cu293  O305    1.951   .     S
Cu293  N304    2.022   .     S
Cu293  O312    1.957   .     S
Cu294  N303    2.022   .     S
Cu294  O307    1.945   .     S
Cu294  O311    1.957   .     S
Cu294  O306    1.951   .     S
Cu294  O310    1.972   .     S
H299   C59     1.088   1_565 S
H301   N627    1.029   .     S
H302   N952    1.029   1_554 S
N303   H949    1.029   1_554 S
N303   N952    1.299   1_554 S
N304   N627    1.299   .     S
N304   H626    1.029   .     S
C313   H314    1.085   .     S
C313   O315    1.221   .     D
C316   O318    1.221   .     D
C316   H317    1.085   .     S
C319   H320    1.085   .     S
C319   O321    1.220   .     D
C322   O324    1.220   .     D
C322   H323    1.085   .     S
C325   C329    1.424   .     S
C325   O361    1.284   .     A
C325   O359    1.293   .     A
C326   O362    1.284   .     A
C326   C330    1.424   .     S
C326   O360    1.293   .     A
C327   H351    1.080   .     S
C327   C344    1.404   .     A
C327   C399    1.383   1_455 S
C328   C343    1.404   .     A
C328   H352    1.080   .     S
C328   C400    1.383   .     S
C329   C546    1.325   1_545 S
C329   H569    1.088   1_545 S
C330   C437    1.325   .     S
C330   H462    1.088   .     S
C331   C336    1.451   .     S
C331   O363    1.294   .     A
C331   O365    1.290   .     A
C332   C335    1.451   .     S
C332   O364    1.294   .     A
C332   O366    1.290   .     A
C333   C335    1.408   .     A
C333   C367    1.493   .     S
C333   C343    1.411   .     A
C334   C370    1.493   .     S
C334   C344    1.411   .     A
C334   C336    1.408   .     A
C335   C337    1.409   .     A
C336   C338    1.409   .     A
C337   C339    1.407   .     A
C337   C373    1.488   .     S
C338   C340    1.407   .     A
C338   C376    1.488   .     S
C339   C345    1.405   .     A
C339   C341    1.417   .     A
C340   C346    1.405   .     A
C340   C342    1.417   .     A
C341   C343    1.419   .     A
C341   C396    1.417   .     S
C342   C344    1.419   .     A
C342   C395    1.417   1_455 S
C345   H349    1.081   .     S
C345   C381    1.383   .     S
C346   H350    1.081   .     S
C346   C382    1.383   1_455 S
Cu347  Cu348   2.691   .     S
Cu347  O363    1.972   .     S
Cu347  O362    1.945   .     S
Cu347  O359    1.951   .     S
Cu347  N358    2.022   .     S
Cu347  O366    1.957   .     S
Cu348  N357    2.022   .     S
Cu348  O361    1.945   .     S
Cu348  O365    1.957   .     S
Cu348  O360    1.951   .     S
Cu348  O364    1.972   .     S
H353   C437    1.088   .     S
H354   C546    1.088   1_545 S
H355   N681    1.029   .     S
N358   N681    1.299   .     S
N358   H680    1.029   .     S
C367   H368    1.085   .     S
C367   O369    1.221   .     D
C370   O372    1.221   .     D
C370   H371    1.085   .     S
C373   H374    1.085   .     S
C373   O375    1.220   .     D
C376   O378    1.220   .     D
C376   H377    1.085   .     S
C379   C383    1.424   .     S
C379   O415    1.284   .     A
C379   O413    1.293   .     A
C380   O416    1.284   .     A
C380   C384    1.424   .     S
C380   O414    1.293   .     A
C381   H405    1.080   .     S
C381   C398    1.404   .     A
C382   C397    1.404   .     A
C382   H406    1.080   .     S
C382   C346    1.383   1_655 S
C383   C600    1.325   1_545 S
C383   H623    1.088   1_545 S
C384   C491    1.325   .     S
C384   H516    1.088   .     S
C385   C390    1.451   .     S
C385   O417    1.294   .     A
C385   O419    1.290   .     A
C386   C389    1.451   .     S
C386   O418    1.294   .     A
C386   O420    1.290   .     A
C387   C389    1.408   .     A
C387   C421    1.493   .     S
C387   C397    1.411   .     A
C388   C424    1.493   .     S
C388   C398    1.411   .     A
C388   C390    1.408   .     A
C389   C391    1.409   .     A
C390   C392    1.409   .     A
C391   C393    1.407   .     A
C391   C427    1.488   .     S
C392   C394    1.407   .     A
C392   C430    1.488   .     S
C393   C399    1.405   .     A
C393   C395    1.417   .     A
C394   C400    1.405   .     A
C394   C396    1.417   .     A
C395   C397    1.419   .     A
C395   C342    1.417   1_655 S
C396   C398    1.419   .     A
C399   H403    1.081   .     S
C399   C327    1.383   1_655 S
C400   H404    1.081   .     S
Cu401  Cu402   2.691   .     S
Cu401  O417    1.972   .     S
Cu401  O416    1.945   .     S
Cu401  O413    1.951   .     S
Cu401  N412    2.022   .     S
Cu401  O420    1.957   .     S
Cu402  N411    2.022   .     S
Cu402  O415    1.945   .     S
Cu402  O419    1.957   .     S
Cu402  O414    1.951   .     S
Cu402  O418    1.972   .     S
H407   C491    1.088   .     S
H408   C600    1.088   1_545 S
H409   N735    1.029   .     S
N412   N735    1.299   .     S
N412   H734    1.029   .     S
C421   H422    1.085   .     S
C421   O423    1.221   .     D
C424   O426    1.221   .     D
C424   H425    1.085   .     S
C427   H428    1.085   .     S
C427   O429    1.220   .     D
C430   O432    1.220   .     D
C430   H431    1.085   .     S
C433   C437    1.424   .     S
C433   O469    1.284   .     A
C433   O467    1.293   .     A
C434   O470    1.284   .     A
C434   C438    1.424   .     S
C434   O468    1.293   .     A
C435   H459    1.080   .     S
C435   C452    1.404   .     A
C435   C507    1.383   1_455 S
C436   C451    1.404   .     A
C436   H460    1.080   .     S
C436   C508    1.383   .     S
C438   C545    1.325   .     S
C438   H570    1.088   .     S
C439   C444    1.451   .     S
C439   O471    1.294   .     A
C439   O473    1.290   .     A
C440   C443    1.451   .     S
C440   O472    1.294   .     A
C440   O474    1.290   .     A
C441   C443    1.408   .     A
C441   C475    1.493   .     S
C441   C451    1.411   .     A
C442   C478    1.493   .     S
C442   C452    1.411   .     A
C442   C444    1.408   .     A
C443   C445    1.409   .     A
C444   C446    1.409   .     A
C445   C447    1.407   .     A
C445   C481    1.488   .     S
C446   C448    1.407   .     A
C446   C484    1.488   .     S
C447   C453    1.405   .     A
C447   C449    1.417   .     A
C448   C454    1.405   .     A
C448   C450    1.417   .     A
C449   C451    1.419   .     A
C449   C504    1.417   .     S
C450   C452    1.419   .     A
C450   C503    1.417   1_455 S
C453   H457    1.081   .     S
C453   C489    1.383   .     S
C454   H458    1.081   .     S
C454   C490    1.383   1_455 S
Cu455  Cu456   2.691   .     S
Cu455  O471    1.972   .     S
Cu455  O470    1.945   .     S
Cu455  O467    1.951   .     S
Cu455  N466    2.022   .     S
Cu455  O474    1.957   .     S
Cu456  N465    2.022   .     S
Cu456  O469    1.945   .     S
Cu456  O473    1.957   .     S
Cu456  O468    1.951   .     S
Cu456  O472    1.972   .     S
H461   C545    1.088   .     S
H463   N789    1.029   .     S
N466   N789    1.299   .     S
N466   H788    1.029   .     S
C475   H476    1.085   .     S
C475   O477    1.221   .     D
C478   O480    1.221   .     D
C478   H479    1.085   .     S
C481   H482    1.085   .     S
C481   O483    1.220   .     D
C484   O486    1.220   .     D
C484   H485    1.085   .     S
C487   C491    1.424   .     S
C487   O523    1.284   .     A
C487   O521    1.293   .     A
C488   O524    1.284   .     A
C488   C492    1.424   .     S
C488   O522    1.293   .     A
C489   H513    1.080   .     S
C489   C506    1.404   .     A
C490   C505    1.404   .     A
C490   H514    1.080   .     S
C490   C454    1.383   1_655 S
C492   C599    1.325   .     S
C492   H624    1.088   .     S
C493   C498    1.451   .     S
C493   O525    1.294   .     A
C493   O527    1.290   .     A
C494   C497    1.451   .     S
C494   O526    1.294   .     A
C494   O528    1.290   .     A
C495   C497    1.408   .     A
C495   C529    1.493   .     S
C495   C505    1.411   .     A
C496   C532    1.493   .     S
C496   C506    1.411   .     A
C496   C498    1.408   .     A
C497   C499    1.409   .     A
C498   C500    1.409   .     A
C499   C501    1.407   .     A
C499   C535    1.488   .     S
C500   C502    1.407   .     A
C500   C538    1.488   .     S
C501   C507    1.405   .     A
C501   C503    1.417   .     A
C502   C508    1.405   .     A
C502   C504    1.417   .     A
C503   C505    1.419   .     A
C503   C450    1.417   1_655 S
C504   C506    1.419   .     A
C507   H511    1.081   .     S
C507   C435    1.383   1_655 S
C508   H512    1.081   .     S
Cu509  Cu510   2.691   .     S
Cu509  O525    1.972   .     S
Cu509  O524    1.945   .     S
Cu509  O521    1.951   .     S
Cu509  N520    2.022   .     S
Cu509  O528    1.957   .     S
Cu510  N519    2.022   .     S
Cu510  O523    1.945   .     S
Cu510  O527    1.957   .     S
Cu510  O522    1.951   .     S
Cu510  O526    1.972   .     S
H515   C599    1.088   .     S
H517   N843    1.029   .     S
N520   N843    1.299   .     S
N520   H842    1.029   .     S
C529   H530    1.085   .     S
C529   O531    1.221   .     D
C532   O534    1.221   .     D
C532   H533    1.085   .     S
C535   H536    1.085   .     S
C535   O537    1.220   .     D
C538   O540    1.220   .     D
C538   H539    1.085   .     S
C541   C545    1.424   .     S
C541   O577    1.284   .     A
C541   O575    1.293   .     A
C542   O578    1.284   .     A
C542   C546    1.424   .     S
C542   O576    1.293   .     A
C543   H567    1.080   .     S
C543   C560    1.404   .     A
C543   C615    1.383   1_455 S
C544   C559    1.404   .     A
C544   H568    1.080   .     S
C544   C616    1.383   .     S
C546   C329    1.325   1_565 S
C546   H354    1.088   1_565 S
C547   C552    1.451   .     S
C547   O579    1.294   .     A
C547   O581    1.290   .     A
C548   C551    1.451   .     S
C548   O580    1.294   .     A
C548   O582    1.290   .     A
C549   C551    1.408   .     A
C549   C583    1.493   .     S
C549   C559    1.411   .     A
C550   C586    1.493   .     S
C550   C560    1.411   .     A
C550   C552    1.408   .     A
C551   C553    1.409   .     A
C552   C554    1.409   .     A
C553   C555    1.407   .     A
C553   C589    1.488   .     S
C554   C556    1.407   .     A
C554   C592    1.488   .     S
C555   C561    1.405   .     A
C555   C557    1.417   .     A
C556   C562    1.405   .     A
C556   C558    1.417   .     A
C557   C559    1.419   .     A
C557   C612    1.417   .     S
C558   C560    1.419   .     A
C558   C611    1.417   1_455 S
C561   H565    1.081   .     S
C561   C597    1.383   .     S
C562   H566    1.081   .     S
C562   C598    1.383   1_455 S
Cu563  Cu564   2.691   .     S
Cu563  O579    1.972   .     S
Cu563  O578    1.945   .     S
Cu563  O575    1.951   .     S
Cu563  N574    2.022   .     S
Cu563  O582    1.957   .     S
Cu564  N573    2.022   .     S
Cu564  O577    1.945   .     S
Cu564  O581    1.957   .     S
Cu564  O576    1.951   .     S
Cu564  O580    1.972   .     S
H569   C329    1.088   1_565 S
H571   N897    1.029   .     S
N574   N897    1.299   .     S
N574   H896    1.029   .     S
C583   H584    1.085   .     S
C583   O585    1.221   .     D
C586   O588    1.221   .     D
C586   H587    1.085   .     S
C589   H590    1.085   .     S
C589   O591    1.220   .     D
C592   O594    1.220   .     D
C592   H593    1.085   .     S
C595   C599    1.424   .     S
C595   O631    1.284   .     A
C595   O629    1.293   .     A
C596   O632    1.284   .     A
C596   C600    1.424   .     S
C596   O630    1.293   .     A
C597   H621    1.080   .     S
C597   C614    1.404   .     A
C598   C613    1.404   .     A
C598   H622    1.080   .     S
C598   C562    1.383   1_655 S
C600   C383    1.325   1_565 S
C600   H408    1.088   1_565 S
C601   C606    1.451   .     S
C601   O633    1.294   .     A
C601   O635    1.290   .     A
C602   C605    1.451   .     S
C602   O634    1.294   .     A
C602   O636    1.290   .     A
C603   C605    1.408   .     A
C603   C637    1.493   .     S
C603   C613    1.411   .     A
C604   C640    1.493   .     S
C604   C614    1.411   .     A
C604   C606    1.408   .     A
C605   C607    1.409   .     A
C606   C608    1.409   .     A
C607   C609    1.407   .     A
C607   C643    1.488   .     S
C608   C610    1.407   .     A
C608   C646    1.488   .     S
C609   C615    1.405   .     A
C609   C611    1.417   .     A
C610   C616    1.405   .     A
C610   C612    1.417   .     A
C611   C613    1.419   .     A
C611   C558    1.417   1_655 S
C612   C614    1.419   .     A
C615   H619    1.081   .     S
C615   C543    1.383   1_655 S
C616   H620    1.081   .     S
Cu617  Cu618   2.691   .     S
Cu617  O633    1.972   .     S
Cu617  O632    1.945   .     S
Cu617  O629    1.951   .     S
Cu617  N628    2.022   .     S
Cu617  O636    1.957   .     S
Cu618  N627    2.022   .     S
Cu618  O631    1.945   .     S
Cu618  O635    1.957   .     S
Cu618  O630    1.951   .     S
Cu618  O634    1.972   .     S
H623   C383    1.088   1_565 S
H625   N951    1.029   .     S
N628   N951    1.299   .     S
N628   H950    1.029   .     S
C637   H638    1.085   .     S
C637   O639    1.221   .     D
C640   O642    1.221   .     D
C640   H641    1.085   .     S
C643   H644    1.085   .     S
C643   O645    1.220   .     D
C646   O648    1.220   .     D
C646   H647    1.085   .     S
C649   C653    1.424   .     S
C649   O685    1.284   .     A
C649   O683    1.293   .     A
C650   O686    1.284   .     A
C650   C654    1.424   .     S
C650   O684    1.293   .     A
C651   H675    1.080   .     S
C651   C668    1.404   .     A
C651   C723    1.383   1_455 S
C652   C667    1.404   .     A
C652   H676    1.080   .     S
C652   C724    1.383   .     S
C653   C870    1.325   1_545 S
C653   H893    1.088   1_545 S
C654   C761    1.325   .     S
C654   H786    1.088   .     S
C655   C660    1.451   .     S
C655   O687    1.294   .     A
C655   O689    1.290   .     A
C656   C659    1.451   .     S
C656   O688    1.294   .     A
C656   O690    1.290   .     A
C657   C659    1.408   .     A
C657   C691    1.493   .     S
C657   C667    1.411   .     A
C658   C694    1.493   .     S
C658   C668    1.411   .     A
C658   C660    1.408   .     A
C659   C661    1.409   .     A
C660   C662    1.409   .     A
C661   C663    1.407   .     A
C661   C697    1.488   .     S
C662   C664    1.407   .     A
C662   C700    1.488   .     S
C663   C669    1.405   .     A
C663   C665    1.417   .     A
C664   C670    1.405   .     A
C664   C666    1.417   .     A
C665   C667    1.419   .     A
C665   C720    1.417   .     S
C666   C668    1.419   .     A
C666   C719    1.417   1_455 S
C669   H673    1.081   .     S
C669   C705    1.383   .     S
C670   H674    1.081   .     S
C670   C706    1.383   1_455 S
Cu671  Cu672   2.691   .     S
Cu671  O687    1.972   .     S
Cu671  O686    1.945   .     S
Cu671  O683    1.951   .     S
Cu671  N682    2.022   .     S
Cu671  O690    1.957   .     S
Cu672  N681    2.022   .     S
Cu672  O685    1.945   .     S
Cu672  O689    1.957   .     S
Cu672  O684    1.951   .     S
Cu672  O688    1.972   .     S
H677   C761    1.088   .     S
H678   C870    1.088   1_545 S
H679   N33     1.029   1_556 S
N682   N33     1.299   1_556 S
N682   H32     1.029   1_556 S
C691   H692    1.085   .     S
C691   O693    1.221   .     D
C694   O696    1.221   .     D
C694   H695    1.085   .     S
C697   H698    1.085   .     S
C697   O699    1.220   .     D
C700   O702    1.220   .     D
C700   H701    1.085   .     S
C703   C707    1.424   .     S
C703   O739    1.284   .     A
C703   O737    1.293   .     A
C704   O740    1.284   .     A
C704   C708    1.424   .     S
C704   O738    1.293   .     A
C705   H729    1.080   .     S
C705   C722    1.404   .     A
C706   C721    1.404   .     A
C706   H730    1.080   .     S
C706   C670    1.383   1_655 S
C707   C924    1.325   1_545 S
C707   H947    1.088   1_545 S
C708   C815    1.325   .     S
C708   H840    1.088   .     S
C709   C714    1.451   .     S
C709   O741    1.294   .     A
C709   O743    1.290   .     A
C710   C713    1.451   .     S
C710   O742    1.294   .     A
C710   O744    1.290   .     A
C711   C713    1.408   .     A
C711   C745    1.493   .     S
C711   C721    1.411   .     A
C712   C748    1.493   .     S
C712   C722    1.411   .     A
C712   C714    1.408   .     A
C713   C715    1.409   .     A
C714   C716    1.409   .     A
C715   C717    1.407   .     A
C715   C751    1.488   .     S
C716   C718    1.407   .     A
C716   C754    1.488   .     S
C717   C723    1.405   .     A
C717   C719    1.417   .     A
C718   C724    1.405   .     A
C718   C720    1.417   .     A
C719   C721    1.419   .     A
C719   C666    1.417   1_655 S
C720   C722    1.419   .     A
C723   H727    1.081   .     S
C723   C651    1.383   1_655 S
C724   H728    1.081   .     S
Cu725  Cu726   2.691   .     S
Cu725  O741    1.972   .     S
Cu725  O740    1.945   .     S
Cu725  O737    1.951   .     S
Cu725  N736    2.022   .     S
Cu725  O744    1.957   .     S
Cu726  N735    2.022   .     S
Cu726  O739    1.945   .     S
Cu726  O743    1.957   .     S
Cu726  O738    1.951   .     S
Cu726  O742    1.972   .     S
H731   C815    1.088   .     S
H732   C924    1.088   1_545 S
H733   N87     1.029   1_556 S
N736   N87     1.299   1_556 S
N736   H86     1.029   1_556 S
C745   H746    1.085   .     S
C745   O747    1.221   .     D
C748   O750    1.221   .     D
C748   H749    1.085   .     S
C751   H752    1.085   .     S
C751   O753    1.220   .     D
C754   O756    1.220   .     D
C754   H755    1.085   .     S
C757   C761    1.424   .     S
C757   O793    1.284   .     A
C757   O791    1.293   .     A
C758   O794    1.284   .     A
C758   C762    1.424   .     S
C758   O792    1.293   .     A
C759   H783    1.080   .     S
C759   C776    1.404   .     A
C759   C831    1.383   1_455 S
C760   C775    1.404   .     A
C760   H784    1.080   .     S
C760   C832    1.383   .     S
C762   C869    1.325   .     S
C762   H894    1.088   .     S
C763   C768    1.451   .     S
C763   O795    1.294   .     A
C763   O797    1.290   .     A
C764   C767    1.451   .     S
C764   O796    1.294   .     A
C764   O798    1.290   .     A
C765   C767    1.408   .     A
C765   C799    1.493   .     S
C765   C775    1.411   .     A
C766   C802    1.493   .     S
C766   C776    1.411   .     A
C766   C768    1.408   .     A
C767   C769    1.409   .     A
C768   C770    1.409   .     A
C769   C771    1.407   .     A
C769   C805    1.488   .     S
C770   C772    1.407   .     A
C770   C808    1.488   .     S
C771   C777    1.405   .     A
C771   C773    1.417   .     A
C772   C778    1.405   .     A
C772   C774    1.417   .     A
C773   C775    1.419   .     A
C773   C828    1.417   .     S
C774   C776    1.419   .     A
C774   C827    1.417   1_455 S
C777   H781    1.081   .     S
C777   C813    1.383   .     S
C778   H782    1.081   .     S
C778   C814    1.383   1_455 S
Cu779  Cu780   2.691   .     S
Cu779  O795    1.972   .     S
Cu779  O794    1.945   .     S
Cu779  O791    1.951   .     S
Cu779  N790    2.022   .     S
Cu779  O798    1.957   .     S
Cu780  N789    2.022   .     S
Cu780  O793    1.945   .     S
Cu780  O797    1.957   .     S
Cu780  O792    1.951   .     S
Cu780  O796    1.972   .     S
H785   C869    1.088   .     S
H787   N141    1.029   1_556 S
N790   N141    1.299   1_556 S
N790   H140    1.029   1_556 S
C799   H800    1.085   .     S
C799   O801    1.221   .     D
C802   O804    1.221   .     D
C802   H803    1.085   .     S
C805   H806    1.085   .     S
C805   O807    1.220   .     D
C808   O810    1.220   .     D
C808   H809    1.085   .     S
C811   C815    1.424   .     S
C811   O847    1.284   .     A
C811   O845    1.293   .     A
C812   O848    1.284   .     A
C812   C816    1.424   .     S
C812   O846    1.293   .     A
C813   H837    1.080   .     S
C813   C830    1.404   .     A
C814   C829    1.404   .     A
C814   H838    1.080   .     S
C814   C778    1.383   1_655 S
C816   C923    1.325   .     S
C816   H948    1.088   .     S
C817   C822    1.451   .     S
C817   O849    1.294   .     A
C817   O851    1.290   .     A
C818   C821    1.451   .     S
C818   O850    1.294   .     A
C818   O852    1.290   .     A
C819   C821    1.408   .     A
C819   C853    1.493   .     S
C819   C829    1.411   .     A
C820   C856    1.493   .     S
C820   C830    1.411   .     A
C820   C822    1.408   .     A
C821   C823    1.409   .     A
C822   C824    1.409   .     A
C823   C825    1.407   .     A
C823   C859    1.488   .     S
C824   C826    1.407   .     A
C824   C862    1.488   .     S
C825   C831    1.405   .     A
C825   C827    1.417   .     A
C826   C832    1.405   .     A
C826   C828    1.417   .     A
C827   C829    1.419   .     A
C827   C774    1.417   1_655 S
C828   C830    1.419   .     A
C831   H835    1.081   .     S
C831   C759    1.383   1_655 S
C832   H836    1.081   .     S
Cu833  Cu834   2.691   .     S
Cu833  O849    1.972   .     S
Cu833  O848    1.945   .     S
Cu833  O845    1.951   .     S
Cu833  N844    2.022   .     S
Cu833  O852    1.957   .     S
Cu834  N843    2.022   .     S
Cu834  O847    1.945   .     S
Cu834  O851    1.957   .     S
Cu834  O846    1.951   .     S
Cu834  O850    1.972   .     S
H839   C923    1.088   .     S
H841   N195    1.029   1_556 S
N844   N195    1.299   1_556 S
N844   H194    1.029   1_556 S
C853   H854    1.085   .     S
C853   O855    1.221   .     D
C856   O858    1.221   .     D
C856   H857    1.085   .     S
C859   H860    1.085   .     S
C859   O861    1.220   .     D
C862   O864    1.220   .     D
C862   H863    1.085   .     S
C865   C869    1.424   .     S
C865   O901    1.284   .     A
C865   O899    1.293   .     A
C866   O902    1.284   .     A
C866   C870    1.424   .     S
C866   O900    1.293   .     A
C867   H891    1.080   .     S
C867   C884    1.404   .     A
C867   C939    1.383   1_455 S
C868   C883    1.404   .     A
C868   H892    1.080   .     S
C868   C940    1.383   .     S
C870   C653    1.325   1_565 S
C870   H678    1.088   1_565 S
C871   C876    1.451   .     S
C871   O903    1.294   .     A
C871   O905    1.290   .     A
C872   C875    1.451   .     S
C872   O904    1.294   .     A
C872   O906    1.290   .     A
C873   C875    1.408   .     A
C873   C907    1.493   .     S
C873   C883    1.411   .     A
C874   C910    1.493   .     S
C874   C884    1.411   .     A
C874   C876    1.408   .     A
C875   C877    1.409   .     A
C876   C878    1.409   .     A
C877   C879    1.407   .     A
C877   C913    1.488   .     S
C878   C880    1.407   .     A
C878   C916    1.488   .     S
C879   C885    1.405   .     A
C879   C881    1.417   .     A
C880   C886    1.405   .     A
C880   C882    1.417   .     A
C881   C883    1.419   .     A
C881   C936    1.417   .     S
C882   C884    1.419   .     A
C882   C935    1.417   1_455 S
C885   H889    1.081   .     S
C885   C921    1.383   .     S
C886   H890    1.081   .     S
C886   C922    1.383   1_455 S
Cu887  Cu888   2.691   .     S
Cu887  O903    1.972   .     S
Cu887  O902    1.945   .     S
Cu887  O899    1.951   .     S
Cu887  N898    2.022   .     S
Cu887  O906    1.957   .     S
Cu888  N897    2.022   .     S
Cu888  O901    1.945   .     S
Cu888  O905    1.957   .     S
Cu888  O900    1.951   .     S
Cu888  O904    1.972   .     S
H893   C653    1.088   1_565 S
H895   N249    1.029   1_556 S
N898   N249    1.299   1_556 S
N898   H248    1.029   1_556 S
C907   H908    1.085   .     S
C907   O909    1.221   .     D
C910   O912    1.221   .     D
C910   H911    1.085   .     S
C913   H914    1.085   .     S
C913   O915    1.220   .     D
C916   O918    1.220   .     D
C916   H917    1.085   .     S
C919   C923    1.424   .     S
C919   O955    1.284   .     A
C919   O953    1.293   .     A
C920   O956    1.284   .     A
C920   C924    1.424   .     S
C920   O954    1.293   .     A
C921   H945    1.080   .     S
C921   C938    1.404   .     A
C922   C937    1.404   .     A
C922   H946    1.080   .     S
C922   C886    1.383   1_655 S
C924   C707    1.325   1_565 S
C924   H732    1.088   1_565 S
C925   C930    1.451   .     S
C925   O957    1.294   .     A
C925   O959    1.290   .     A
C926   C929    1.451   .     S
C926   O958    1.294   .     A
C926   O960    1.290   .     A
C927   C929    1.408   .     A
C927   C961    1.493   .     S
C927   C937    1.411   .     A
C928   C964    1.493   .     S
C928   C938    1.411   .     A
C928   C930    1.408   .     A
C929   C931    1.409   .     A
C930   C932    1.409   .     A
C931   C933    1.407   .     A
C931   C967    1.488   .     S
C932   C934    1.407   .     A
C932   C970    1.488   .     S
C933   C939    1.405   .     A
C933   C935    1.417   .     A
C934   C940    1.405   .     A
C934   C936    1.417   .     A
C935   C937    1.419   .     A
C935   C882    1.417   1_655 S
C936   C938    1.419   .     A
C939   H943    1.081   .     S
C939   C867    1.383   1_655 S
C940   H944    1.081   .     S
Cu941  Cu942   2.691   .     S
Cu941  O957    1.972   .     S
Cu941  O956    1.945   .     S
Cu941  O953    1.951   .     S
Cu941  N952    2.022   .     S
Cu941  O960    1.957   .     S
Cu942  N951    2.022   .     S
Cu942  O955    1.945   .     S
Cu942  O959    1.957   .     S
Cu942  O954    1.951   .     S
Cu942  O958    1.972   .     S
H947   C707    1.088   1_565 S
H949   N303    1.029   1_556 S
N952   N303    1.299   1_556 S
N952   H302    1.029   1_556 S
C961   H962    1.085   .     S
C961   O963    1.221   .     D
C964   O966    1.221   .     D
C964   H965    1.085   .     S
C967   H968    1.085   .     S
C967   O969    1.220   .     D
C970   O972    1.220   .     D
C970   H971    1.085   .     S
