data_str_m2_o1_o17_pcu_sym.131
_audit_creation_date              2020-01-03
_audit_creation_method            'Materials Studio'
_symmetry_space_group_name_H-M    'P1'
_symmetry_Int_Tables_number       1
_symmetry_cell_setting            triclinic
loop_
_symmetry_equiv_pos_as_xyz
  x,y,z
_cell_length_a                    32.4826
_cell_length_b                    28.5479
_cell_length_c                    30.1636
_cell_angle_alpha                 89.5372
_cell_angle_beta                  90.7999
_cell_angle_gamma                 88.7568
loop_
_atom_site_label
_atom_site_type_symbol
_atom_site_fract_x
_atom_site_fract_y
_atom_site_fract_z
_atom_site_U_iso_or_equiv
_atom_site_adp_type
_atom_site_occupancy
C1     C     0.08742   0.16730   0.25066   0.00000  Uiso   1.00
C2     C     0.24593   0.16609   0.24891   0.00000  Uiso   1.00
C3     C     0.09768   0.20393   0.02029   0.00000  Uiso   1.00
C4     C     0.24291   0.15039   0.48023   0.00000  Uiso   1.00
C5     C     0.02216   0.13470   0.27706   0.00000  Uiso   1.00
C6     C     0.31122   0.19896   0.22196   0.00000  Uiso   1.00
C7     C     0.31318   0.13143   0.27260   0.00000  Uiso   1.00
C8     C     0.02035   0.20191   0.22594   0.00000  Uiso   1.00
C9     C     0.29060   0.16470   0.24677   0.00000  Uiso   1.00
C10    C     0.04281   0.16886   0.25226   0.00000  Uiso   1.00
C11    C     0.14212   0.02565   0.22102   0.00000  Uiso   1.00
C12    C     0.19119   0.30771   0.27900   0.00000  Uiso   1.00
C13    C     0.19114   0.02399   0.27900   0.00000  Uiso   1.00
C14    C     0.14214   0.30936   0.22101   0.00000  Uiso   1.00
C15    C     0.16651   0.16685   0.16462   0.00000  Uiso   1.00
C16    C     0.16838   0.16641   0.33551   0.00000  Uiso   1.00
C17    C     0.20398   0.14918   0.40807   0.00000  Uiso   1.00
C18    C     0.12939   0.17799   0.09272   0.00000  Uiso   1.00
C19    C     0.16879   0.16613   0.38389   0.00000  Uiso   1.00
C20    C     0.16644   0.16746   0.11651   0.00000  Uiso   1.00
C21    C     0.13436   0.18551   0.40580   0.00000  Uiso   1.00
C22    C     0.20397   0.15936   0.09463   0.00000  Uiso   1.00
C23    C     0.13467   0.18742   0.45211   0.00000  Uiso   1.00
C24    C     0.20451   0.16121   0.04836   0.00000  Uiso   1.00
C25    C     0.16992   0.17306   0.47677   0.00000  Uiso   1.00
C26    C     0.16860   0.17349   0.02375   0.00000  Uiso   1.00
C27    C     0.20614   0.15746   0.45468   0.00000  Uiso   1.00
C28    C     0.13135   0.18534   0.04591   0.00000  Uiso   1.00
C29    C     0.09975   0.20416   0.47404   0.00000  Uiso   1.00
C30    C     0.24132   0.15173   0.02642   0.00000  Uiso   1.00
Cu31   Cu    0.16667   0.21355   0.25000   0.00000  Uiso   1.00
Cu32   Cu    0.16667   0.11978   0.25000   0.00000  Uiso   1.00
H33    H     0.07331   0.21738   0.45515   0.00000  Uiso   1.00
H34    H     0.26950   0.14489   0.04523   0.00000  Uiso   1.00
H35    H     0.12244   0.04503   0.19782   0.00000  Uiso   1.00
H36    H     0.21086   0.28836   0.30223   0.00000  Uiso   1.00
H37    H     0.21063   0.04209   0.30221   0.00000  Uiso   1.00
H38    H     0.12255   0.29132   0.19775   0.00000  Uiso   1.00
N39    N     0.16667   0.28402   0.25000   0.00000  Uiso   1.00
N40    N     0.16667   0.04931   0.25000   0.00000  Uiso   1.00
O41    O     0.10655   0.20625   0.24999   0.00000  Uiso   1.00
O42    O     0.22679   0.12709   0.25000   0.00000  Uiso   1.00
O43    O     0.22679   0.20625   0.25000   0.00000  Uiso   1.00
O44    O     0.10655   0.12709   0.24999   0.00000  Uiso   1.00
O45    O     0.16666   0.20627   0.18513   0.00000  Uiso   1.00
O46    O     0.16668   0.12707   0.31487   0.00000  Uiso   1.00
O47    O     0.16668   0.20627   0.31487   0.00000  Uiso   1.00
O48    O     0.16666   0.12707   0.18513   0.00000  Uiso   1.00
C49    C     0.23677   0.11895   0.38488   0.00000  Uiso   1.00
C50    C     0.23723   0.06832   0.40312   0.00000  Uiso   1.00
C51    C     0.27347   0.03920   0.38590   0.00000  Uiso   1.00
H52    H     0.27006   0.03353   0.34977   0.00000  Uiso   1.00
H53    H     0.30297   0.05684   0.39296   0.00000  Uiso   1.00
H54    H     0.27433   0.00439   0.40262   0.00000  Uiso   1.00
H55    H     0.23912   0.06779   0.43985   0.00000  Uiso   1.00
H56    H     0.20804   0.05131   0.39331   0.00000  Uiso   1.00
H57    H     0.23174   0.11668   0.34879   0.00000  Uiso   1.00
H58    H     0.26738   0.13508   0.38680   0.00000  Uiso   1.00
C59    C     0.08826   0.17664   0.11725   0.00000  Uiso   1.00
C60    C     0.06185   0.13578   0.10133   0.00000  Uiso   1.00
C61    C     0.02099   0.13434   0.12566   0.00000  Uiso   1.00
H62    H     0.02654   0.12732   0.16152   0.00000  Uiso   1.00
H63    H     0.00367   0.16809   0.12133   0.00000  Uiso   1.00
H64    H     0.00199   0.10582   0.11205   0.00000  Uiso   1.00
H65    H     0.05517   0.13854   0.06524   0.00000  Uiso   1.00
H66    H     0.07902   0.10218   0.10747   0.00000  Uiso   1.00
H67    H     0.09248   0.17153   0.15343   0.00000  Uiso   1.00
H68    H     0.07151   0.21075   0.11495   0.00000  Uiso   1.00
O69    O     0.09928   0.20161   0.38315   0.00000  Uiso   1.00
H70    H     0.09793   0.18827   0.35307   0.00000  Uiso   1.00
O71    O     0.24072   0.14885   0.11705   0.00000  Uiso   1.00
H72    H     0.23648   0.14416   0.14909   0.00000  Uiso   1.00
O73    O     0.06360   0.22367   0.04041   0.00000  Uiso   1.00
H74    H     0.04316   0.23470   0.01772   0.00000  Uiso   1.00
O75    O     0.28053   0.14403   0.46010   0.00000  Uiso   1.00
H76    H     0.30277   0.13997   0.48276   0.00000  Uiso   1.00
O77    O     0.04215   0.10373   0.30598   0.00000  Uiso   1.00
H78    H     0.06734   0.11843   0.31767   0.00000  Uiso   1.00
O79    O     0.29117   0.23006   0.19321   0.00000  Uiso   1.00
H80    H     0.26546   0.21590   0.18227   0.00000  Uiso   1.00
O81    O     0.29425   0.09692   0.29623   0.00000  Uiso   1.00
H82    H     0.28176   0.07597   0.27398   0.00000  Uiso   1.00
O83    O     0.03950   0.23532   0.20095   0.00000  Uiso   1.00
H84    H     0.05267   0.25670   0.22233   0.00000  Uiso   1.00
C85    C     0.42076   0.16730   0.25066   0.00000  Uiso   1.00
C86    C     0.57926   0.16609   0.24891   0.00000  Uiso   1.00
C87    C     0.43101   0.20393   0.02029   0.00000  Uiso   1.00
C88    C     0.57624   0.15039   0.48023   0.00000  Uiso   1.00
C89    C     0.35549   0.13470   0.27706   0.00000  Uiso   1.00
C90    C     0.64455   0.19896   0.22196   0.00000  Uiso   1.00
C91    C     0.64651   0.13143   0.27260   0.00000  Uiso   1.00
C92    C     0.35368   0.20191   0.22594   0.00000  Uiso   1.00
C93    C     0.62393   0.16470   0.24677   0.00000  Uiso   1.00
C94    C     0.37614   0.16886   0.25226   0.00000  Uiso   1.00
C95    C     0.47545   0.02565   0.22102   0.00000  Uiso   1.00
C96    C     0.52452   0.30771   0.27900   0.00000  Uiso   1.00
C97    C     0.52448   0.02399   0.27900   0.00000  Uiso   1.00
C98    C     0.47547   0.30936   0.22101   0.00000  Uiso   1.00
C99    C     0.49984   0.16685   0.16462   0.00000  Uiso   1.00
C100   C     0.50171   0.16641   0.33551   0.00000  Uiso   1.00
C101   C     0.53731   0.14918   0.40807   0.00000  Uiso   1.00
C102   C     0.46272   0.17799   0.09272   0.00000  Uiso   1.00
C103   C     0.50212   0.16613   0.38389   0.00000  Uiso   1.00
C104   C     0.49977   0.16746   0.11651   0.00000  Uiso   1.00
C105   C     0.46770   0.18551   0.40580   0.00000  Uiso   1.00
C106   C     0.53730   0.15936   0.09463   0.00000  Uiso   1.00
C107   C     0.46800   0.18742   0.45211   0.00000  Uiso   1.00
C108   C     0.53784   0.16121   0.04836   0.00000  Uiso   1.00
C109   C     0.50326   0.17306   0.47677   0.00000  Uiso   1.00
C110   C     0.50194   0.17349   0.02375   0.00000  Uiso   1.00
C111   C     0.53947   0.15746   0.45468   0.00000  Uiso   1.00
C112   C     0.46468   0.18534   0.04591   0.00000  Uiso   1.00
C113   C     0.43308   0.20416   0.47404   0.00000  Uiso   1.00
C114   C     0.57465   0.15173   0.02642   0.00000  Uiso   1.00
Cu115  Cu    0.50000   0.21355   0.25000   0.00000  Uiso   1.00
Cu116  Cu    0.50000   0.11978   0.25000   0.00000  Uiso   1.00
H117   H     0.40665   0.21738   0.45515   0.00000  Uiso   1.00
H118   H     0.60283   0.14489   0.04523   0.00000  Uiso   1.00
H119   H     0.45577   0.04503   0.19782   0.00000  Uiso   1.00
H120   H     0.54419   0.28836   0.30223   0.00000  Uiso   1.00
H121   H     0.54396   0.04209   0.30221   0.00000  Uiso   1.00
H122   H     0.45588   0.29132   0.19775   0.00000  Uiso   1.00
N123   N     0.50000   0.28402   0.25000   0.00000  Uiso   1.00
N124   N     0.50000   0.04931   0.25000   0.00000  Uiso   1.00
O125   O     0.43988   0.20625   0.24999   0.00000  Uiso   1.00
O126   O     0.56012   0.12709   0.25000   0.00000  Uiso   1.00
O127   O     0.56012   0.20625   0.25000   0.00000  Uiso   1.00
O128   O     0.43988   0.12709   0.24999   0.00000  Uiso   1.00
O129   O     0.49999   0.20627   0.18513   0.00000  Uiso   1.00
O130   O     0.50001   0.12707   0.31487   0.00000  Uiso   1.00
O131   O     0.50001   0.20627   0.31487   0.00000  Uiso   1.00
O132   O     0.49999   0.12707   0.18513   0.00000  Uiso   1.00
C133   C     0.57011   0.11895   0.38488   0.00000  Uiso   1.00
C134   C     0.57056   0.06832   0.40312   0.00000  Uiso   1.00
C135   C     0.60680   0.03920   0.38590   0.00000  Uiso   1.00
H136   H     0.60340   0.03353   0.34977   0.00000  Uiso   1.00
H137   H     0.63630   0.05684   0.39296   0.00000  Uiso   1.00
H138   H     0.60766   0.00439   0.40262   0.00000  Uiso   1.00
H139   H     0.57245   0.06779   0.43985   0.00000  Uiso   1.00
H140   H     0.54138   0.05131   0.39331   0.00000  Uiso   1.00
H141   H     0.56507   0.11668   0.34879   0.00000  Uiso   1.00
H142   H     0.60071   0.13508   0.38680   0.00000  Uiso   1.00
C143   C     0.42160   0.17664   0.11725   0.00000  Uiso   1.00
C144   C     0.39518   0.13578   0.10133   0.00000  Uiso   1.00
C145   C     0.35433   0.13434   0.12566   0.00000  Uiso   1.00
H146   H     0.35988   0.12732   0.16152   0.00000  Uiso   1.00
H147   H     0.33700   0.16809   0.12133   0.00000  Uiso   1.00
H148   H     0.33533   0.10582   0.11205   0.00000  Uiso   1.00
H149   H     0.38850   0.13854   0.06524   0.00000  Uiso   1.00
H150   H     0.41235   0.10218   0.10747   0.00000  Uiso   1.00
H151   H     0.42582   0.17153   0.15343   0.00000  Uiso   1.00
H152   H     0.40484   0.21075   0.11495   0.00000  Uiso   1.00
O153   O     0.43261   0.20161   0.38315   0.00000  Uiso   1.00
H154   H     0.43126   0.18827   0.35307   0.00000  Uiso   1.00
O155   O     0.57405   0.14885   0.11705   0.00000  Uiso   1.00
H156   H     0.56981   0.14416   0.14909   0.00000  Uiso   1.00
O157   O     0.39693   0.22367   0.04041   0.00000  Uiso   1.00
H158   H     0.37649   0.23470   0.01772   0.00000  Uiso   1.00
O159   O     0.61387   0.14403   0.46010   0.00000  Uiso   1.00
H160   H     0.63610   0.13997   0.48276   0.00000  Uiso   1.00
O161   O     0.37548   0.10373   0.30598   0.00000  Uiso   1.00
H162   H     0.40068   0.11843   0.31767   0.00000  Uiso   1.00
O163   O     0.62450   0.23006   0.19321   0.00000  Uiso   1.00
H164   H     0.59880   0.21590   0.18227   0.00000  Uiso   1.00
O165   O     0.62759   0.09692   0.29623   0.00000  Uiso   1.00
H166   H     0.61509   0.07597   0.27398   0.00000  Uiso   1.00
O167   O     0.37284   0.23532   0.20095   0.00000  Uiso   1.00
H168   H     0.38601   0.25670   0.22233   0.00000  Uiso   1.00
C169   C     0.75409   0.16730   0.25066   0.00000  Uiso   1.00
C170   C     0.91260   0.16609   0.24891   0.00000  Uiso   1.00
C171   C     0.76434   0.20393   0.02029   0.00000  Uiso   1.00
C172   C     0.90958   0.15039   0.48023   0.00000  Uiso   1.00
C173   C     0.68883   0.13470   0.27706   0.00000  Uiso   1.00
C174   C     0.97789   0.19896   0.22196   0.00000  Uiso   1.00
C175   C     0.97984   0.13143   0.27260   0.00000  Uiso   1.00
C176   C     0.68702   0.20191   0.22594   0.00000  Uiso   1.00
C177   C     0.95726   0.16470   0.24677   0.00000  Uiso   1.00
C178   C     0.70947   0.16886   0.25226   0.00000  Uiso   1.00
C179   C     0.80879   0.02565   0.22102   0.00000  Uiso   1.00
C180   C     0.85785   0.30771   0.27900   0.00000  Uiso   1.00
C181   C     0.85781   0.02399   0.27900   0.00000  Uiso   1.00
C182   C     0.80881   0.30936   0.22101   0.00000  Uiso   1.00
C183   C     0.83317   0.16685   0.16462   0.00000  Uiso   1.00
C184   C     0.83504   0.16641   0.33551   0.00000  Uiso   1.00
C185   C     0.87065   0.14918   0.40807   0.00000  Uiso   1.00
C186   C     0.79606   0.17799   0.09272   0.00000  Uiso   1.00
C187   C     0.83546   0.16613   0.38389   0.00000  Uiso   1.00
C188   C     0.83311   0.16746   0.11651   0.00000  Uiso   1.00
C189   C     0.80103   0.18551   0.40580   0.00000  Uiso   1.00
C190   C     0.87064   0.15936   0.09463   0.00000  Uiso   1.00
C191   C     0.80133   0.18742   0.45211   0.00000  Uiso   1.00
C192   C     0.87118   0.16121   0.04836   0.00000  Uiso   1.00
C193   C     0.83659   0.17306   0.47677   0.00000  Uiso   1.00
C194   C     0.83527   0.17349   0.02375   0.00000  Uiso   1.00
C195   C     0.87280   0.15746   0.45468   0.00000  Uiso   1.00
C196   C     0.79802   0.18534   0.04591   0.00000  Uiso   1.00
C197   C     0.76642   0.20416   0.47404   0.00000  Uiso   1.00
C198   C     0.90799   0.15173   0.02642   0.00000  Uiso   1.00
Cu199  Cu    0.83333   0.21355   0.25000   0.00000  Uiso   1.00
Cu200  Cu    0.83333   0.11978   0.25000   0.00000  Uiso   1.00
H201   H     0.73998   0.21738   0.45515   0.00000  Uiso   1.00
H202   H     0.93616   0.14489   0.04523   0.00000  Uiso   1.00
H203   H     0.78911   0.04503   0.19782   0.00000  Uiso   1.00
H204   H     0.87753   0.28836   0.30223   0.00000  Uiso   1.00
H205   H     0.87730   0.04209   0.30221   0.00000  Uiso   1.00
H206   H     0.78921   0.29132   0.19775   0.00000  Uiso   1.00
N207   N     0.83333   0.28402   0.25000   0.00000  Uiso   1.00
N208   N     0.83333   0.04931   0.25000   0.00000  Uiso   1.00
O209   O     0.77321   0.20625   0.24999   0.00000  Uiso   1.00
O210   O     0.89345   0.12709   0.25000   0.00000  Uiso   1.00
O211   O     0.89345   0.20625   0.25000   0.00000  Uiso   1.00
O212   O     0.77321   0.12709   0.24999   0.00000  Uiso   1.00
O213   O     0.83332   0.20627   0.18513   0.00000  Uiso   1.00
O214   O     0.83334   0.12707   0.31487   0.00000  Uiso   1.00
O215   O     0.83334   0.20627   0.31487   0.00000  Uiso   1.00
O216   O     0.83332   0.12707   0.18513   0.00000  Uiso   1.00
C217   C     0.90344   0.11895   0.38488   0.00000  Uiso   1.00
C218   C     0.90389   0.06832   0.40312   0.00000  Uiso   1.00
C219   C     0.94013   0.03920   0.38590   0.00000  Uiso   1.00
H220   H     0.93673   0.03353   0.34977   0.00000  Uiso   1.00
H221   H     0.96963   0.05684   0.39296   0.00000  Uiso   1.00
H222   H     0.94100   0.00439   0.40262   0.00000  Uiso   1.00
H223   H     0.90579   0.06779   0.43985   0.00000  Uiso   1.00
H224   H     0.87471   0.05131   0.39331   0.00000  Uiso   1.00
H225   H     0.89841   0.11668   0.34879   0.00000  Uiso   1.00
H226   H     0.93405   0.13508   0.38680   0.00000  Uiso   1.00
C227   C     0.75493   0.17664   0.11725   0.00000  Uiso   1.00
C228   C     0.72851   0.13578   0.10133   0.00000  Uiso   1.00
C229   C     0.68766   0.13434   0.12566   0.00000  Uiso   1.00
H230   H     0.69321   0.12732   0.16152   0.00000  Uiso   1.00
H231   H     0.67034   0.16809   0.12133   0.00000  Uiso   1.00
H232   H     0.66866   0.10582   0.11205   0.00000  Uiso   1.00
H233   H     0.72184   0.13854   0.06524   0.00000  Uiso   1.00
H234   H     0.74568   0.10218   0.10747   0.00000  Uiso   1.00
H235   H     0.75915   0.17153   0.15343   0.00000  Uiso   1.00
H236   H     0.73818   0.21075   0.11495   0.00000  Uiso   1.00
O237   O     0.76595   0.20161   0.38315   0.00000  Uiso   1.00
H238   H     0.76459   0.18827   0.35307   0.00000  Uiso   1.00
O239   O     0.90739   0.14885   0.11705   0.00000  Uiso   1.00
H240   H     0.90314   0.14416   0.14909   0.00000  Uiso   1.00
O241   O     0.73027   0.22367   0.04041   0.00000  Uiso   1.00
H242   H     0.70982   0.23470   0.01772   0.00000  Uiso   1.00
O243   O     0.94720   0.14403   0.46010   0.00000  Uiso   1.00
H244   H     0.96944   0.13997   0.48276   0.00000  Uiso   1.00
O245   O     0.70881   0.10373   0.30598   0.00000  Uiso   1.00
H246   H     0.73401   0.11843   0.31767   0.00000  Uiso   1.00
O247   O     0.95784   0.23006   0.19321   0.00000  Uiso   1.00
H248   H     0.93213   0.21590   0.18227   0.00000  Uiso   1.00
O249   O     0.96092   0.09692   0.29623   0.00000  Uiso   1.00
H250   H     0.94842   0.07597   0.27398   0.00000  Uiso   1.00
O251   O     0.70617   0.23532   0.20095   0.00000  Uiso   1.00
H252   H     0.71934   0.25670   0.22233   0.00000  Uiso   1.00
C253   C     0.08742   0.50063   0.25066   0.00000  Uiso   1.00
C254   C     0.24593   0.49942   0.24891   0.00000  Uiso   1.00
C255   C     0.09768   0.53727   0.02029   0.00000  Uiso   1.00
C256   C     0.24291   0.48372   0.48023   0.00000  Uiso   1.00
C257   C     0.02216   0.46804   0.27706   0.00000  Uiso   1.00
C258   C     0.31122   0.53230   0.22196   0.00000  Uiso   1.00
C259   C     0.31318   0.46476   0.27260   0.00000  Uiso   1.00
C260   C     0.02035   0.53525   0.22594   0.00000  Uiso   1.00
C261   C     0.29060   0.49803   0.24677   0.00000  Uiso   1.00
C262   C     0.04281   0.50219   0.25226   0.00000  Uiso   1.00
C263   C     0.14212   0.35898   0.22102   0.00000  Uiso   1.00
C264   C     0.19119   0.64104   0.27900   0.00000  Uiso   1.00
C265   C     0.19114   0.35732   0.27900   0.00000  Uiso   1.00
C266   C     0.14214   0.64269   0.22101   0.00000  Uiso   1.00
C267   C     0.16651   0.50018   0.16462   0.00000  Uiso   1.00
C268   C     0.16838   0.49974   0.33551   0.00000  Uiso   1.00
C269   C     0.20398   0.48251   0.40807   0.00000  Uiso   1.00
C270   C     0.12939   0.51132   0.09272   0.00000  Uiso   1.00
C271   C     0.16879   0.49947   0.38389   0.00000  Uiso   1.00
C272   C     0.16644   0.50080   0.11651   0.00000  Uiso   1.00
C273   C     0.13436   0.51884   0.40580   0.00000  Uiso   1.00
C274   C     0.20397   0.49270   0.09463   0.00000  Uiso   1.00
C275   C     0.13467   0.52076   0.45211   0.00000  Uiso   1.00
C276   C     0.20451   0.49455   0.04836   0.00000  Uiso   1.00
C277   C     0.16992   0.50640   0.47677   0.00000  Uiso   1.00
C278   C     0.16860   0.50682   0.02375   0.00000  Uiso   1.00
C279   C     0.20614   0.49079   0.45468   0.00000  Uiso   1.00
C280   C     0.13135   0.51867   0.04591   0.00000  Uiso   1.00
C281   C     0.09975   0.53749   0.47404   0.00000  Uiso   1.00
C282   C     0.24132   0.48507   0.02642   0.00000  Uiso   1.00
Cu283  Cu    0.16667   0.54689   0.25000   0.00000  Uiso   1.00
Cu284  Cu    0.16667   0.45311   0.25000   0.00000  Uiso   1.00
H285   H     0.07331   0.55072   0.45515   0.00000  Uiso   1.00
H286   H     0.26950   0.47822   0.04523   0.00000  Uiso   1.00
H287   H     0.12244   0.37836   0.19782   0.00000  Uiso   1.00
H288   H     0.21086   0.62170   0.30223   0.00000  Uiso   1.00
H289   H     0.21063   0.37542   0.30221   0.00000  Uiso   1.00
H290   H     0.12255   0.62466   0.19775   0.00000  Uiso   1.00
N291   N     0.16667   0.61736   0.25000   0.00000  Uiso   1.00
N292   N     0.16667   0.38264   0.25000   0.00000  Uiso   1.00
O293   O     0.10655   0.53958   0.24999   0.00000  Uiso   1.00
O294   O     0.22679   0.46042   0.25000   0.00000  Uiso   1.00
O295   O     0.22679   0.53958   0.25000   0.00000  Uiso   1.00
O296   O     0.10655   0.46042   0.24999   0.00000  Uiso   1.00
O297   O     0.16666   0.53960   0.18513   0.00000  Uiso   1.00
O298   O     0.16668   0.46040   0.31487   0.00000  Uiso   1.00
O299   O     0.16668   0.53960   0.31487   0.00000  Uiso   1.00
O300   O     0.16666   0.46040   0.18513   0.00000  Uiso   1.00
C301   C     0.23677   0.45228   0.38488   0.00000  Uiso   1.00
C302   C     0.23723   0.40165   0.40312   0.00000  Uiso   1.00
C303   C     0.27347   0.37254   0.38590   0.00000  Uiso   1.00
H304   H     0.27006   0.36686   0.34977   0.00000  Uiso   1.00
H305   H     0.30297   0.39018   0.39296   0.00000  Uiso   1.00
H306   H     0.27433   0.33773   0.40262   0.00000  Uiso   1.00
H307   H     0.23912   0.40112   0.43985   0.00000  Uiso   1.00
H308   H     0.20804   0.38465   0.39331   0.00000  Uiso   1.00
H309   H     0.23174   0.45001   0.34879   0.00000  Uiso   1.00
H310   H     0.26738   0.46841   0.38680   0.00000  Uiso   1.00
C311   C     0.08826   0.50997   0.11725   0.00000  Uiso   1.00
C312   C     0.06185   0.46911   0.10133   0.00000  Uiso   1.00
C313   C     0.02099   0.46767   0.12566   0.00000  Uiso   1.00
H314   H     0.02654   0.46066   0.16152   0.00000  Uiso   1.00
H315   H     0.00367   0.50142   0.12133   0.00000  Uiso   1.00
H316   H     0.00199   0.43915   0.11205   0.00000  Uiso   1.00
H317   H     0.05517   0.47187   0.06524   0.00000  Uiso   1.00
H318   H     0.07902   0.43551   0.10747   0.00000  Uiso   1.00
H319   H     0.09248   0.50486   0.15343   0.00000  Uiso   1.00
H320   H     0.07151   0.54409   0.11495   0.00000  Uiso   1.00
O321   O     0.09928   0.53495   0.38315   0.00000  Uiso   1.00
H322   H     0.09793   0.52160   0.35307   0.00000  Uiso   1.00
O323   O     0.24072   0.48219   0.11705   0.00000  Uiso   1.00
H324   H     0.23648   0.47750   0.14909   0.00000  Uiso   1.00
O325   O     0.06360   0.55700   0.04041   0.00000  Uiso   1.00
H326   H     0.04316   0.56803   0.01772   0.00000  Uiso   1.00
O327   O     0.28053   0.47736   0.46010   0.00000  Uiso   1.00
H328   H     0.30277   0.47330   0.48276   0.00000  Uiso   1.00
O329   O     0.04215   0.43706   0.30598   0.00000  Uiso   1.00
H330   H     0.06734   0.45176   0.31767   0.00000  Uiso   1.00
O331   O     0.29117   0.56339   0.19321   0.00000  Uiso   1.00
H332   H     0.26546   0.54923   0.18227   0.00000  Uiso   1.00
O333   O     0.29425   0.43025   0.29623   0.00000  Uiso   1.00
H334   H     0.28176   0.40931   0.27398   0.00000  Uiso   1.00
O335   O     0.03950   0.56865   0.20095   0.00000  Uiso   1.00
H336   H     0.05267   0.59003   0.22233   0.00000  Uiso   1.00
C337   C     0.42076   0.50063   0.25066   0.00000  Uiso   1.00
C338   C     0.57926   0.49942   0.24891   0.00000  Uiso   1.00
C339   C     0.43101   0.53727   0.02029   0.00000  Uiso   1.00
C340   C     0.57624   0.48372   0.48023   0.00000  Uiso   1.00
C341   C     0.35549   0.46804   0.27706   0.00000  Uiso   1.00
C342   C     0.64455   0.53230   0.22196   0.00000  Uiso   1.00
C343   C     0.64651   0.46476   0.27260   0.00000  Uiso   1.00
C344   C     0.35368   0.53525   0.22594   0.00000  Uiso   1.00
C345   C     0.62393   0.49803   0.24677   0.00000  Uiso   1.00
C346   C     0.37614   0.50219   0.25226   0.00000  Uiso   1.00
C347   C     0.47545   0.35898   0.22102   0.00000  Uiso   1.00
C348   C     0.52452   0.64104   0.27900   0.00000  Uiso   1.00
C349   C     0.52448   0.35732   0.27900   0.00000  Uiso   1.00
C350   C     0.47547   0.64269   0.22101   0.00000  Uiso   1.00
C351   C     0.49984   0.50018   0.16462   0.00000  Uiso   1.00
C352   C     0.50171   0.49974   0.33551   0.00000  Uiso   1.00
C353   C     0.53731   0.48251   0.40807   0.00000  Uiso   1.00
C354   C     0.46272   0.51132   0.09272   0.00000  Uiso   1.00
C355   C     0.50212   0.49947   0.38389   0.00000  Uiso   1.00
C356   C     0.49977   0.50080   0.11651   0.00000  Uiso   1.00
C357   C     0.46770   0.51884   0.40580   0.00000  Uiso   1.00
C358   C     0.53730   0.49270   0.09463   0.00000  Uiso   1.00
C359   C     0.46800   0.52076   0.45211   0.00000  Uiso   1.00
C360   C     0.53784   0.49455   0.04836   0.00000  Uiso   1.00
C361   C     0.50326   0.50640   0.47677   0.00000  Uiso   1.00
C362   C     0.50194   0.50682   0.02375   0.00000  Uiso   1.00
C363   C     0.53947   0.49079   0.45468   0.00000  Uiso   1.00
C364   C     0.46468   0.51867   0.04591   0.00000  Uiso   1.00
C365   C     0.43308   0.53749   0.47404   0.00000  Uiso   1.00
C366   C     0.57465   0.48507   0.02642   0.00000  Uiso   1.00
Cu367  Cu    0.50000   0.54689   0.25000   0.00000  Uiso   1.00
Cu368  Cu    0.50000   0.45311   0.25000   0.00000  Uiso   1.00
H369   H     0.40665   0.55072   0.45515   0.00000  Uiso   1.00
H370   H     0.60283   0.47822   0.04523   0.00000  Uiso   1.00
H371   H     0.45577   0.37836   0.19782   0.00000  Uiso   1.00
H372   H     0.54419   0.62170   0.30223   0.00000  Uiso   1.00
H373   H     0.54396   0.37542   0.30221   0.00000  Uiso   1.00
H374   H     0.45588   0.62466   0.19775   0.00000  Uiso   1.00
N375   N     0.50000   0.61736   0.25000   0.00000  Uiso   1.00
N376   N     0.50000   0.38264   0.25000   0.00000  Uiso   1.00
O377   O     0.43988   0.53958   0.24999   0.00000  Uiso   1.00
O378   O     0.56012   0.46042   0.25000   0.00000  Uiso   1.00
O379   O     0.56012   0.53958   0.25000   0.00000  Uiso   1.00
O380   O     0.43988   0.46042   0.24999   0.00000  Uiso   1.00
O381   O     0.49999   0.53960   0.18513   0.00000  Uiso   1.00
O382   O     0.50001   0.46040   0.31487   0.00000  Uiso   1.00
O383   O     0.50001   0.53960   0.31487   0.00000  Uiso   1.00
O384   O     0.49999   0.46040   0.18513   0.00000  Uiso   1.00
C385   C     0.57011   0.45228   0.38488   0.00000  Uiso   1.00
C386   C     0.57056   0.40165   0.40312   0.00000  Uiso   1.00
C387   C     0.60680   0.37254   0.38590   0.00000  Uiso   1.00
H388   H     0.60340   0.36686   0.34977   0.00000  Uiso   1.00
H389   H     0.63630   0.39018   0.39296   0.00000  Uiso   1.00
H390   H     0.60766   0.33773   0.40262   0.00000  Uiso   1.00
H391   H     0.57245   0.40112   0.43985   0.00000  Uiso   1.00
H392   H     0.54138   0.38465   0.39331   0.00000  Uiso   1.00
H393   H     0.56507   0.45001   0.34879   0.00000  Uiso   1.00
H394   H     0.60071   0.46841   0.38680   0.00000  Uiso   1.00
C395   C     0.42160   0.50997   0.11725   0.00000  Uiso   1.00
C396   C     0.39518   0.46911   0.10133   0.00000  Uiso   1.00
C397   C     0.35433   0.46767   0.12566   0.00000  Uiso   1.00
H398   H     0.35988   0.46066   0.16152   0.00000  Uiso   1.00
H399   H     0.33700   0.50142   0.12133   0.00000  Uiso   1.00
H400   H     0.33533   0.43915   0.11205   0.00000  Uiso   1.00
H401   H     0.38850   0.47187   0.06524   0.00000  Uiso   1.00
H402   H     0.41235   0.43551   0.10747   0.00000  Uiso   1.00
H403   H     0.42582   0.50486   0.15343   0.00000  Uiso   1.00
H404   H     0.40484   0.54409   0.11495   0.00000  Uiso   1.00
O405   O     0.43261   0.53495   0.38315   0.00000  Uiso   1.00
H406   H     0.43126   0.52160   0.35307   0.00000  Uiso   1.00
O407   O     0.57405   0.48219   0.11705   0.00000  Uiso   1.00
H408   H     0.56981   0.47750   0.14909   0.00000  Uiso   1.00
O409   O     0.39693   0.55700   0.04041   0.00000  Uiso   1.00
H410   H     0.37649   0.56803   0.01772   0.00000  Uiso   1.00
O411   O     0.61387   0.47736   0.46010   0.00000  Uiso   1.00
H412   H     0.63610   0.47330   0.48276   0.00000  Uiso   1.00
O413   O     0.37548   0.43706   0.30598   0.00000  Uiso   1.00
H414   H     0.40068   0.45176   0.31767   0.00000  Uiso   1.00
O415   O     0.62450   0.56339   0.19321   0.00000  Uiso   1.00
H416   H     0.59880   0.54923   0.18227   0.00000  Uiso   1.00
O417   O     0.62759   0.43025   0.29623   0.00000  Uiso   1.00
H418   H     0.61509   0.40931   0.27398   0.00000  Uiso   1.00
O419   O     0.37284   0.56865   0.20095   0.00000  Uiso   1.00
H420   H     0.38601   0.59003   0.22233   0.00000  Uiso   1.00
C421   C     0.75409   0.50063   0.25066   0.00000  Uiso   1.00
C422   C     0.91260   0.49942   0.24891   0.00000  Uiso   1.00
C423   C     0.76434   0.53727   0.02029   0.00000  Uiso   1.00
C424   C     0.90958   0.48372   0.48023   0.00000  Uiso   1.00
C425   C     0.68883   0.46804   0.27706   0.00000  Uiso   1.00
C426   C     0.97789   0.53230   0.22196   0.00000  Uiso   1.00
C427   C     0.97984   0.46476   0.27260   0.00000  Uiso   1.00
C428   C     0.68702   0.53525   0.22594   0.00000  Uiso   1.00
C429   C     0.95726   0.49803   0.24677   0.00000  Uiso   1.00
C430   C     0.70947   0.50219   0.25226   0.00000  Uiso   1.00
C431   C     0.80879   0.35898   0.22102   0.00000  Uiso   1.00
C432   C     0.85785   0.64104   0.27900   0.00000  Uiso   1.00
C433   C     0.85781   0.35732   0.27900   0.00000  Uiso   1.00
C434   C     0.80881   0.64269   0.22101   0.00000  Uiso   1.00
C435   C     0.83317   0.50018   0.16462   0.00000  Uiso   1.00
C436   C     0.83504   0.49974   0.33551   0.00000  Uiso   1.00
C437   C     0.87065   0.48251   0.40807   0.00000  Uiso   1.00
C438   C     0.79606   0.51132   0.09272   0.00000  Uiso   1.00
C439   C     0.83546   0.49947   0.38389   0.00000  Uiso   1.00
C440   C     0.83311   0.50080   0.11651   0.00000  Uiso   1.00
C441   C     0.80103   0.51884   0.40580   0.00000  Uiso   1.00
C442   C     0.87064   0.49270   0.09463   0.00000  Uiso   1.00
C443   C     0.80133   0.52076   0.45211   0.00000  Uiso   1.00
C444   C     0.87118   0.49455   0.04836   0.00000  Uiso   1.00
C445   C     0.83659   0.50640   0.47677   0.00000  Uiso   1.00
C446   C     0.83527   0.50682   0.02375   0.00000  Uiso   1.00
C447   C     0.87280   0.49079   0.45468   0.00000  Uiso   1.00
C448   C     0.79802   0.51867   0.04591   0.00000  Uiso   1.00
C449   C     0.76642   0.53749   0.47404   0.00000  Uiso   1.00
C450   C     0.90799   0.48507   0.02642   0.00000  Uiso   1.00
Cu451  Cu    0.83333   0.54689   0.25000   0.00000  Uiso   1.00
Cu452  Cu    0.83333   0.45311   0.25000   0.00000  Uiso   1.00
H453   H     0.73998   0.55072   0.45515   0.00000  Uiso   1.00
H454   H     0.93616   0.47822   0.04523   0.00000  Uiso   1.00
H455   H     0.78911   0.37836   0.19782   0.00000  Uiso   1.00
H456   H     0.87753   0.62170   0.30223   0.00000  Uiso   1.00
H457   H     0.87730   0.37542   0.30221   0.00000  Uiso   1.00
H458   H     0.78921   0.62466   0.19775   0.00000  Uiso   1.00
N459   N     0.83333   0.61736   0.25000   0.00000  Uiso   1.00
N460   N     0.83333   0.38264   0.25000   0.00000  Uiso   1.00
O461   O     0.77321   0.53958   0.24999   0.00000  Uiso   1.00
O462   O     0.89345   0.46042   0.25000   0.00000  Uiso   1.00
O463   O     0.89345   0.53958   0.25000   0.00000  Uiso   1.00
O464   O     0.77321   0.46042   0.24999   0.00000  Uiso   1.00
O465   O     0.83332   0.53960   0.18513   0.00000  Uiso   1.00
O466   O     0.83334   0.46040   0.31487   0.00000  Uiso   1.00
O467   O     0.83334   0.53960   0.31487   0.00000  Uiso   1.00
O468   O     0.83332   0.46040   0.18513   0.00000  Uiso   1.00
C469   C     0.90344   0.45228   0.38488   0.00000  Uiso   1.00
C470   C     0.90389   0.40165   0.40312   0.00000  Uiso   1.00
C471   C     0.94013   0.37254   0.38590   0.00000  Uiso   1.00
H472   H     0.93673   0.36686   0.34977   0.00000  Uiso   1.00
H473   H     0.96963   0.39018   0.39296   0.00000  Uiso   1.00
H474   H     0.94100   0.33773   0.40262   0.00000  Uiso   1.00
H475   H     0.90579   0.40112   0.43985   0.00000  Uiso   1.00
H476   H     0.87471   0.38465   0.39331   0.00000  Uiso   1.00
H477   H     0.89841   0.45001   0.34879   0.00000  Uiso   1.00
H478   H     0.93405   0.46841   0.38680   0.00000  Uiso   1.00
C479   C     0.75493   0.50997   0.11725   0.00000  Uiso   1.00
C480   C     0.72851   0.46911   0.10133   0.00000  Uiso   1.00
C481   C     0.68766   0.46767   0.12566   0.00000  Uiso   1.00
H482   H     0.69321   0.46066   0.16152   0.00000  Uiso   1.00
H483   H     0.67034   0.50142   0.12133   0.00000  Uiso   1.00
H484   H     0.66866   0.43915   0.11205   0.00000  Uiso   1.00
H485   H     0.72184   0.47187   0.06524   0.00000  Uiso   1.00
H486   H     0.74568   0.43551   0.10747   0.00000  Uiso   1.00
H487   H     0.75915   0.50486   0.15343   0.00000  Uiso   1.00
H488   H     0.73818   0.54409   0.11495   0.00000  Uiso   1.00
O489   O     0.76595   0.53495   0.38315   0.00000  Uiso   1.00
H490   H     0.76459   0.52160   0.35307   0.00000  Uiso   1.00
O491   O     0.90739   0.48219   0.11705   0.00000  Uiso   1.00
H492   H     0.90314   0.47750   0.14909   0.00000  Uiso   1.00
O493   O     0.73027   0.55700   0.04041   0.00000  Uiso   1.00
H494   H     0.70982   0.56803   0.01772   0.00000  Uiso   1.00
O495   O     0.94720   0.47736   0.46010   0.00000  Uiso   1.00
H496   H     0.96944   0.47330   0.48276   0.00000  Uiso   1.00
O497   O     0.70881   0.43706   0.30598   0.00000  Uiso   1.00
H498   H     0.73401   0.45176   0.31767   0.00000  Uiso   1.00
O499   O     0.95784   0.56339   0.19321   0.00000  Uiso   1.00
H500   H     0.93213   0.54923   0.18227   0.00000  Uiso   1.00
O501   O     0.96092   0.43025   0.29623   0.00000  Uiso   1.00
H502   H     0.94842   0.40931   0.27398   0.00000  Uiso   1.00
O503   O     0.70617   0.56865   0.20095   0.00000  Uiso   1.00
H504   H     0.71934   0.59003   0.22233   0.00000  Uiso   1.00
C505   C     0.08742   0.83397   0.25066   0.00000  Uiso   1.00
C506   C     0.24593   0.83275   0.24891   0.00000  Uiso   1.00
C507   C     0.09768   0.87060   0.02029   0.00000  Uiso   1.00
C508   C     0.24291   0.81706   0.48023   0.00000  Uiso   1.00
C509   C     0.02216   0.80137   0.27706   0.00000  Uiso   1.00
C510   C     0.31122   0.86563   0.22196   0.00000  Uiso   1.00
C511   C     0.31318   0.79809   0.27260   0.00000  Uiso   1.00
C512   C     0.02035   0.86858   0.22594   0.00000  Uiso   1.00
C513   C     0.29060   0.83136   0.24677   0.00000  Uiso   1.00
C514   C     0.04281   0.83552   0.25226   0.00000  Uiso   1.00
C515   C     0.14212   0.69232   0.22102   0.00000  Uiso   1.00
C516   C     0.19119   0.97437   0.27900   0.00000  Uiso   1.00
C517   C     0.19114   0.69065   0.27900   0.00000  Uiso   1.00
C518   C     0.14214   0.97603   0.22101   0.00000  Uiso   1.00
C519   C     0.16651   0.83352   0.16462   0.00000  Uiso   1.00
C520   C     0.16838   0.83307   0.33551   0.00000  Uiso   1.00
C521   C     0.20398   0.81585   0.40807   0.00000  Uiso   1.00
C522   C     0.12939   0.84465   0.09272   0.00000  Uiso   1.00
C523   C     0.16879   0.83280   0.38389   0.00000  Uiso   1.00
C524   C     0.16644   0.83413   0.11651   0.00000  Uiso   1.00
C525   C     0.13436   0.85217   0.40580   0.00000  Uiso   1.00
C526   C     0.20397   0.82603   0.09463   0.00000  Uiso   1.00
C527   C     0.13467   0.85409   0.45211   0.00000  Uiso   1.00
C528   C     0.20451   0.82788   0.04836   0.00000  Uiso   1.00
C529   C     0.16992   0.83973   0.47677   0.00000  Uiso   1.00
C530   C     0.16860   0.84015   0.02375   0.00000  Uiso   1.00
C531   C     0.20614   0.82412   0.45468   0.00000  Uiso   1.00
C532   C     0.13135   0.85201   0.04591   0.00000  Uiso   1.00
C533   C     0.09975   0.87083   0.47404   0.00000  Uiso   1.00
C534   C     0.24132   0.81840   0.02642   0.00000  Uiso   1.00
Cu535  Cu    0.16667   0.88022   0.25000   0.00000  Uiso   1.00
Cu536  Cu    0.16667   0.78645   0.25000   0.00000  Uiso   1.00
H537   H     0.07331   0.88405   0.45515   0.00000  Uiso   1.00
H538   H     0.26950   0.81155   0.04523   0.00000  Uiso   1.00
H539   H     0.12244   0.71170   0.19782   0.00000  Uiso   1.00
H540   H     0.21086   0.95503   0.30223   0.00000  Uiso   1.00
H541   H     0.21063   0.70876   0.30221   0.00000  Uiso   1.00
H542   H     0.12255   0.95799   0.19775   0.00000  Uiso   1.00
N543   N     0.16667   0.95069   0.25000   0.00000  Uiso   1.00
N544   N     0.16667   0.71598   0.25000   0.00000  Uiso   1.00
O545   O     0.10655   0.87291   0.24999   0.00000  Uiso   1.00
O546   O     0.22679   0.79375   0.25000   0.00000  Uiso   1.00
O547   O     0.22679   0.87291   0.25000   0.00000  Uiso   1.00
O548   O     0.10655   0.79375   0.24999   0.00000  Uiso   1.00
O549   O     0.16666   0.87293   0.18513   0.00000  Uiso   1.00
O550   O     0.16668   0.79373   0.31487   0.00000  Uiso   1.00
O551   O     0.16668   0.87293   0.31487   0.00000  Uiso   1.00
O552   O     0.16666   0.79373   0.18513   0.00000  Uiso   1.00
C553   C     0.23677   0.78561   0.38488   0.00000  Uiso   1.00
C554   C     0.23723   0.73499   0.40312   0.00000  Uiso   1.00
C555   C     0.27347   0.70587   0.38590   0.00000  Uiso   1.00
H556   H     0.27006   0.70019   0.34977   0.00000  Uiso   1.00
H557   H     0.30297   0.72351   0.39296   0.00000  Uiso   1.00
H558   H     0.27433   0.67106   0.40262   0.00000  Uiso   1.00
H559   H     0.23912   0.73446   0.43985   0.00000  Uiso   1.00
H560   H     0.20804   0.71798   0.39331   0.00000  Uiso   1.00
H561   H     0.23174   0.78335   0.34879   0.00000  Uiso   1.00
H562   H     0.26738   0.80175   0.38680   0.00000  Uiso   1.00
C563   C     0.08826   0.84330   0.11725   0.00000  Uiso   1.00
C564   C     0.06185   0.80245   0.10133   0.00000  Uiso   1.00
C565   C     0.02099   0.80101   0.12566   0.00000  Uiso   1.00
H566   H     0.02654   0.79399   0.16152   0.00000  Uiso   1.00
H567   H     0.00367   0.83475   0.12133   0.00000  Uiso   1.00
H568   H     0.00199   0.77248   0.11205   0.00000  Uiso   1.00
H569   H     0.05517   0.80521   0.06524   0.00000  Uiso   1.00
H570   H     0.07902   0.76885   0.10747   0.00000  Uiso   1.00
H571   H     0.09248   0.83820   0.15343   0.00000  Uiso   1.00
H572   H     0.07151   0.87742   0.11495   0.00000  Uiso   1.00
O573   O     0.09928   0.86828   0.38315   0.00000  Uiso   1.00
H574   H     0.09793   0.85493   0.35307   0.00000  Uiso   1.00
O575   O     0.24072   0.81552   0.11705   0.00000  Uiso   1.00
H576   H     0.23648   0.81083   0.14909   0.00000  Uiso   1.00
O577   O     0.06360   0.89034   0.04041   0.00000  Uiso   1.00
H578   H     0.04316   0.90136   0.01772   0.00000  Uiso   1.00
O579   O     0.28053   0.81070   0.46010   0.00000  Uiso   1.00
H580   H     0.30277   0.80663   0.48276   0.00000  Uiso   1.00
O581   O     0.04215   0.77040   0.30598   0.00000  Uiso   1.00
H582   H     0.06734   0.78509   0.31767   0.00000  Uiso   1.00
O583   O     0.29117   0.89672   0.19321   0.00000  Uiso   1.00
H584   H     0.26546   0.88257   0.18227   0.00000  Uiso   1.00
O585   O     0.29425   0.76358   0.29623   0.00000  Uiso   1.00
H586   H     0.28176   0.74264   0.27398   0.00000  Uiso   1.00
O587   O     0.03950   0.90198   0.20095   0.00000  Uiso   1.00
H588   H     0.05267   0.92336   0.22233   0.00000  Uiso   1.00
C589   C     0.42076   0.83397   0.25066   0.00000  Uiso   1.00
C590   C     0.57926   0.83275   0.24891   0.00000  Uiso   1.00
C591   C     0.43101   0.87060   0.02029   0.00000  Uiso   1.00
C592   C     0.57624   0.81706   0.48023   0.00000  Uiso   1.00
C593   C     0.35549   0.80137   0.27706   0.00000  Uiso   1.00
C594   C     0.64455   0.86563   0.22196   0.00000  Uiso   1.00
C595   C     0.64651   0.79809   0.27260   0.00000  Uiso   1.00
C596   C     0.35368   0.86858   0.22594   0.00000  Uiso   1.00
C597   C     0.62393   0.83136   0.24677   0.00000  Uiso   1.00
C598   C     0.37614   0.83552   0.25226   0.00000  Uiso   1.00
C599   C     0.47545   0.69232   0.22102   0.00000  Uiso   1.00
C600   C     0.52452   0.97437   0.27900   0.00000  Uiso   1.00
C601   C     0.52448   0.69065   0.27900   0.00000  Uiso   1.00
C602   C     0.47547   0.97603   0.22101   0.00000  Uiso   1.00
C603   C     0.49984   0.83352   0.16462   0.00000  Uiso   1.00
C604   C     0.50171   0.83307   0.33551   0.00000  Uiso   1.00
C605   C     0.53731   0.81585   0.40807   0.00000  Uiso   1.00
C606   C     0.46272   0.84465   0.09272   0.00000  Uiso   1.00
C607   C     0.50212   0.83280   0.38389   0.00000  Uiso   1.00
C608   C     0.49977   0.83413   0.11651   0.00000  Uiso   1.00
C609   C     0.46770   0.85217   0.40580   0.00000  Uiso   1.00
C610   C     0.53730   0.82603   0.09463   0.00000  Uiso   1.00
C611   C     0.46800   0.85409   0.45211   0.00000  Uiso   1.00
C612   C     0.53784   0.82788   0.04836   0.00000  Uiso   1.00
C613   C     0.50326   0.83973   0.47677   0.00000  Uiso   1.00
C614   C     0.50194   0.84015   0.02375   0.00000  Uiso   1.00
C615   C     0.53947   0.82412   0.45468   0.00000  Uiso   1.00
C616   C     0.46468   0.85201   0.04591   0.00000  Uiso   1.00
C617   C     0.43308   0.87083   0.47404   0.00000  Uiso   1.00
C618   C     0.57465   0.81840   0.02642   0.00000  Uiso   1.00
Cu619  Cu    0.50000   0.88022   0.25000   0.00000  Uiso   1.00
Cu620  Cu    0.50000   0.78645   0.25000   0.00000  Uiso   1.00
H621   H     0.40665   0.88405   0.45515   0.00000  Uiso   1.00
H622   H     0.60283   0.81155   0.04523   0.00000  Uiso   1.00
H623   H     0.45577   0.71170   0.19782   0.00000  Uiso   1.00
H624   H     0.54419   0.95503   0.30223   0.00000  Uiso   1.00
H625   H     0.54396   0.70876   0.30221   0.00000  Uiso   1.00
H626   H     0.45588   0.95799   0.19775   0.00000  Uiso   1.00
N627   N     0.50000   0.95069   0.25000   0.00000  Uiso   1.00
N628   N     0.50000   0.71598   0.25000   0.00000  Uiso   1.00
O629   O     0.43988   0.87291   0.24999   0.00000  Uiso   1.00
O630   O     0.56012   0.79375   0.25000   0.00000  Uiso   1.00
O631   O     0.56012   0.87291   0.25000   0.00000  Uiso   1.00
O632   O     0.43988   0.79375   0.24999   0.00000  Uiso   1.00
O633   O     0.49999   0.87293   0.18513   0.00000  Uiso   1.00
O634   O     0.50001   0.79373   0.31487   0.00000  Uiso   1.00
O635   O     0.50001   0.87293   0.31487   0.00000  Uiso   1.00
O636   O     0.49999   0.79373   0.18513   0.00000  Uiso   1.00
C637   C     0.57011   0.78561   0.38488   0.00000  Uiso   1.00
C638   C     0.57056   0.73499   0.40312   0.00000  Uiso   1.00
C639   C     0.60680   0.70587   0.38590   0.00000  Uiso   1.00
H640   H     0.60340   0.70019   0.34977   0.00000  Uiso   1.00
H641   H     0.63630   0.72351   0.39296   0.00000  Uiso   1.00
H642   H     0.60766   0.67106   0.40262   0.00000  Uiso   1.00
H643   H     0.57245   0.73446   0.43985   0.00000  Uiso   1.00
H644   H     0.54138   0.71798   0.39331   0.00000  Uiso   1.00
H645   H     0.56507   0.78335   0.34879   0.00000  Uiso   1.00
H646   H     0.60071   0.80175   0.38680   0.00000  Uiso   1.00
C647   C     0.42160   0.84330   0.11725   0.00000  Uiso   1.00
C648   C     0.39518   0.80245   0.10133   0.00000  Uiso   1.00
C649   C     0.35433   0.80101   0.12566   0.00000  Uiso   1.00
H650   H     0.35988   0.79399   0.16152   0.00000  Uiso   1.00
H651   H     0.33700   0.83475   0.12133   0.00000  Uiso   1.00
H652   H     0.33533   0.77248   0.11205   0.00000  Uiso   1.00
H653   H     0.38850   0.80521   0.06524   0.00000  Uiso   1.00
H654   H     0.41235   0.76885   0.10747   0.00000  Uiso   1.00
H655   H     0.42582   0.83820   0.15343   0.00000  Uiso   1.00
H656   H     0.40484   0.87742   0.11495   0.00000  Uiso   1.00
O657   O     0.43261   0.86828   0.38315   0.00000  Uiso   1.00
H658   H     0.43126   0.85493   0.35307   0.00000  Uiso   1.00
O659   O     0.57405   0.81552   0.11705   0.00000  Uiso   1.00
H660   H     0.56981   0.81083   0.14909   0.00000  Uiso   1.00
O661   O     0.39693   0.89034   0.04041   0.00000  Uiso   1.00
H662   H     0.37649   0.90136   0.01772   0.00000  Uiso   1.00
O663   O     0.61387   0.81070   0.46010   0.00000  Uiso   1.00
H664   H     0.63610   0.80663   0.48276   0.00000  Uiso   1.00
O665   O     0.37548   0.77040   0.30598   0.00000  Uiso   1.00
H666   H     0.40068   0.78509   0.31767   0.00000  Uiso   1.00
O667   O     0.62450   0.89672   0.19321   0.00000  Uiso   1.00
H668   H     0.59880   0.88257   0.18227   0.00000  Uiso   1.00
O669   O     0.62759   0.76358   0.29623   0.00000  Uiso   1.00
H670   H     0.61509   0.74264   0.27398   0.00000  Uiso   1.00
O671   O     0.37284   0.90198   0.20095   0.00000  Uiso   1.00
H672   H     0.38601   0.92336   0.22233   0.00000  Uiso   1.00
C673   C     0.75409   0.83397   0.25066   0.00000  Uiso   1.00
C674   C     0.91260   0.83275   0.24891   0.00000  Uiso   1.00
C675   C     0.76434   0.87060   0.02029   0.00000  Uiso   1.00
C676   C     0.90958   0.81706   0.48023   0.00000  Uiso   1.00
C677   C     0.68883   0.80137   0.27706   0.00000  Uiso   1.00
C678   C     0.97789   0.86563   0.22196   0.00000  Uiso   1.00
C679   C     0.97984   0.79809   0.27260   0.00000  Uiso   1.00
C680   C     0.68702   0.86858   0.22594   0.00000  Uiso   1.00
C681   C     0.95726   0.83136   0.24677   0.00000  Uiso   1.00
C682   C     0.70947   0.83552   0.25226   0.00000  Uiso   1.00
C683   C     0.80879   0.69232   0.22102   0.00000  Uiso   1.00
C684   C     0.85785   0.97437   0.27900   0.00000  Uiso   1.00
C685   C     0.85781   0.69065   0.27900   0.00000  Uiso   1.00
C686   C     0.80881   0.97603   0.22101   0.00000  Uiso   1.00
C687   C     0.83317   0.83352   0.16462   0.00000  Uiso   1.00
C688   C     0.83504   0.83307   0.33551   0.00000  Uiso   1.00
C689   C     0.87065   0.81585   0.40807   0.00000  Uiso   1.00
C690   C     0.79606   0.84465   0.09272   0.00000  Uiso   1.00
C691   C     0.83546   0.83280   0.38389   0.00000  Uiso   1.00
C692   C     0.83311   0.83413   0.11651   0.00000  Uiso   1.00
C693   C     0.80103   0.85217   0.40580   0.00000  Uiso   1.00
C694   C     0.87064   0.82603   0.09463   0.00000  Uiso   1.00
C695   C     0.80133   0.85409   0.45211   0.00000  Uiso   1.00
C696   C     0.87118   0.82788   0.04836   0.00000  Uiso   1.00
C697   C     0.83659   0.83973   0.47677   0.00000  Uiso   1.00
C698   C     0.83527   0.84015   0.02375   0.00000  Uiso   1.00
C699   C     0.87280   0.82412   0.45468   0.00000  Uiso   1.00
C700   C     0.79802   0.85201   0.04591   0.00000  Uiso   1.00
C701   C     0.76642   0.87083   0.47404   0.00000  Uiso   1.00
C702   C     0.90799   0.81840   0.02642   0.00000  Uiso   1.00
Cu703  Cu    0.83333   0.88022   0.25000   0.00000  Uiso   1.00
Cu704  Cu    0.83333   0.78645   0.25000   0.00000  Uiso   1.00
H705   H     0.73998   0.88405   0.45515   0.00000  Uiso   1.00
H706   H     0.93616   0.81155   0.04523   0.00000  Uiso   1.00
H707   H     0.78911   0.71170   0.19782   0.00000  Uiso   1.00
H708   H     0.87753   0.95503   0.30223   0.00000  Uiso   1.00
H709   H     0.87730   0.70876   0.30221   0.00000  Uiso   1.00
H710   H     0.78921   0.95799   0.19775   0.00000  Uiso   1.00
N711   N     0.83333   0.95069   0.25000   0.00000  Uiso   1.00
N712   N     0.83333   0.71598   0.25000   0.00000  Uiso   1.00
O713   O     0.77321   0.87291   0.24999   0.00000  Uiso   1.00
O714   O     0.89345   0.79375   0.25000   0.00000  Uiso   1.00
O715   O     0.89345   0.87291   0.25000   0.00000  Uiso   1.00
O716   O     0.77321   0.79375   0.24999   0.00000  Uiso   1.00
O717   O     0.83332   0.87293   0.18513   0.00000  Uiso   1.00
O718   O     0.83334   0.79373   0.31487   0.00000  Uiso   1.00
O719   O     0.83334   0.87293   0.31487   0.00000  Uiso   1.00
O720   O     0.83332   0.79373   0.18513   0.00000  Uiso   1.00
C721   C     0.90344   0.78561   0.38488   0.00000  Uiso   1.00
C722   C     0.90389   0.73499   0.40312   0.00000  Uiso   1.00
C723   C     0.94013   0.70587   0.38590   0.00000  Uiso   1.00
H724   H     0.93673   0.70019   0.34977   0.00000  Uiso   1.00
H725   H     0.96963   0.72351   0.39296   0.00000  Uiso   1.00
H726   H     0.94100   0.67106   0.40262   0.00000  Uiso   1.00
H727   H     0.90579   0.73446   0.43985   0.00000  Uiso   1.00
H728   H     0.87471   0.71798   0.39331   0.00000  Uiso   1.00
H729   H     0.89841   0.78335   0.34879   0.00000  Uiso   1.00
H730   H     0.93405   0.80175   0.38680   0.00000  Uiso   1.00
C731   C     0.75493   0.84330   0.11725   0.00000  Uiso   1.00
C732   C     0.72851   0.80245   0.10133   0.00000  Uiso   1.00
C733   C     0.68766   0.80101   0.12566   0.00000  Uiso   1.00
H734   H     0.69321   0.79399   0.16152   0.00000  Uiso   1.00
H735   H     0.67034   0.83475   0.12133   0.00000  Uiso   1.00
H736   H     0.66866   0.77248   0.11205   0.00000  Uiso   1.00
H737   H     0.72184   0.80521   0.06524   0.00000  Uiso   1.00
H738   H     0.74568   0.76885   0.10747   0.00000  Uiso   1.00
H739   H     0.75915   0.83820   0.15343   0.00000  Uiso   1.00
H740   H     0.73818   0.87742   0.11495   0.00000  Uiso   1.00
O741   O     0.76595   0.86828   0.38315   0.00000  Uiso   1.00
H742   H     0.76459   0.85493   0.35307   0.00000  Uiso   1.00
O743   O     0.90739   0.81552   0.11705   0.00000  Uiso   1.00
H744   H     0.90314   0.81083   0.14909   0.00000  Uiso   1.00
O745   O     0.73027   0.89034   0.04041   0.00000  Uiso   1.00
H746   H     0.70982   0.90136   0.01772   0.00000  Uiso   1.00
O747   O     0.94720   0.81070   0.46010   0.00000  Uiso   1.00
H748   H     0.96944   0.80663   0.48276   0.00000  Uiso   1.00
O749   O     0.70881   0.77040   0.30598   0.00000  Uiso   1.00
H750   H     0.73401   0.78509   0.31767   0.00000  Uiso   1.00
O751   O     0.95784   0.89672   0.19321   0.00000  Uiso   1.00
H752   H     0.93213   0.88257   0.18227   0.00000  Uiso   1.00
O753   O     0.96092   0.76358   0.29623   0.00000  Uiso   1.00
H754   H     0.94842   0.74264   0.27398   0.00000  Uiso   1.00
O755   O     0.70617   0.90198   0.20095   0.00000  Uiso   1.00
H756   H     0.71934   0.92336   0.22233   0.00000  Uiso   1.00
C757   C     0.08742   0.16730   0.75066   0.00000  Uiso   1.00
C758   C     0.24593   0.16609   0.74891   0.00000  Uiso   1.00
C759   C     0.09768   0.20393   0.52029   0.00000  Uiso   1.00
C760   C     0.24291   0.15039   0.98023   0.00000  Uiso   1.00
C761   C     0.02216   0.13470   0.77706   0.00000  Uiso   1.00
C762   C     0.31122   0.19896   0.72196   0.00000  Uiso   1.00
C763   C     0.31318   0.13143   0.77260   0.00000  Uiso   1.00
C764   C     0.02035   0.20191   0.72594   0.00000  Uiso   1.00
C765   C     0.29060   0.16470   0.74677   0.00000  Uiso   1.00
C766   C     0.04281   0.16886   0.75226   0.00000  Uiso   1.00
C767   C     0.14212   0.02565   0.72102   0.00000  Uiso   1.00
C768   C     0.19119   0.30771   0.77900   0.00000  Uiso   1.00
C769   C     0.19114   0.02399   0.77900   0.00000  Uiso   1.00
C770   C     0.14214   0.30936   0.72101   0.00000  Uiso   1.00
C771   C     0.16651   0.16685   0.66462   0.00000  Uiso   1.00
C772   C     0.16838   0.16641   0.83551   0.00000  Uiso   1.00
C773   C     0.20398   0.14918   0.90807   0.00000  Uiso   1.00
C774   C     0.12939   0.17799   0.59272   0.00000  Uiso   1.00
C775   C     0.16879   0.16613   0.88389   0.00000  Uiso   1.00
C776   C     0.16644   0.16746   0.61651   0.00000  Uiso   1.00
C777   C     0.13436   0.18551   0.90580   0.00000  Uiso   1.00
C778   C     0.20397   0.15936   0.59463   0.00000  Uiso   1.00
C779   C     0.13467   0.18742   0.95211   0.00000  Uiso   1.00
C780   C     0.20451   0.16121   0.54836   0.00000  Uiso   1.00
C781   C     0.16992   0.17306   0.97677   0.00000  Uiso   1.00
C782   C     0.16860   0.17349   0.52375   0.00000  Uiso   1.00
C783   C     0.20614   0.15746   0.95468   0.00000  Uiso   1.00
C784   C     0.13135   0.18534   0.54591   0.00000  Uiso   1.00
C785   C     0.09975   0.20416   0.97404   0.00000  Uiso   1.00
C786   C     0.24132   0.15173   0.52642   0.00000  Uiso   1.00
Cu787  Cu    0.16667   0.21355   0.75000   0.00000  Uiso   1.00
Cu788  Cu    0.16667   0.11978   0.75000   0.00000  Uiso   1.00
H789   H     0.07331   0.21738   0.95515   0.00000  Uiso   1.00
H790   H     0.26950   0.14489   0.54523   0.00000  Uiso   1.00
H791   H     0.12244   0.04503   0.69782   0.00000  Uiso   1.00
H792   H     0.21086   0.28836   0.80223   0.00000  Uiso   1.00
H793   H     0.21063   0.04209   0.80221   0.00000  Uiso   1.00
H794   H     0.12255   0.29132   0.69775   0.00000  Uiso   1.00
N795   N     0.16667   0.28402   0.75000   0.00000  Uiso   1.00
N796   N     0.16667   0.04931   0.75000   0.00000  Uiso   1.00
O797   O     0.10655   0.20625   0.74999   0.00000  Uiso   1.00
O798   O     0.22679   0.12709   0.75000   0.00000  Uiso   1.00
O799   O     0.22679   0.20625   0.75000   0.00000  Uiso   1.00
O800   O     0.10655   0.12709   0.74999   0.00000  Uiso   1.00
O801   O     0.16666   0.20627   0.68513   0.00000  Uiso   1.00
O802   O     0.16668   0.12707   0.81487   0.00000  Uiso   1.00
O803   O     0.16668   0.20627   0.81487   0.00000  Uiso   1.00
O804   O     0.16666   0.12707   0.68513   0.00000  Uiso   1.00
C805   C     0.23677   0.11895   0.88488   0.00000  Uiso   1.00
C806   C     0.23723   0.06832   0.90312   0.00000  Uiso   1.00
C807   C     0.27347   0.03920   0.88590   0.00000  Uiso   1.00
H808   H     0.27006   0.03353   0.84977   0.00000  Uiso   1.00
H809   H     0.30297   0.05684   0.89296   0.00000  Uiso   1.00
H810   H     0.27433   0.00439   0.90262   0.00000  Uiso   1.00
H811   H     0.23912   0.06779   0.93985   0.00000  Uiso   1.00
H812   H     0.20804   0.05131   0.89331   0.00000  Uiso   1.00
H813   H     0.23174   0.11668   0.84879   0.00000  Uiso   1.00
H814   H     0.26738   0.13508   0.88680   0.00000  Uiso   1.00
C815   C     0.08826   0.17664   0.61725   0.00000  Uiso   1.00
C816   C     0.06185   0.13578   0.60133   0.00000  Uiso   1.00
C817   C     0.02099   0.13434   0.62566   0.00000  Uiso   1.00
H818   H     0.02654   0.12732   0.66152   0.00000  Uiso   1.00
H819   H     0.00367   0.16809   0.62133   0.00000  Uiso   1.00
H820   H     0.00199   0.10582   0.61205   0.00000  Uiso   1.00
H821   H     0.05517   0.13854   0.56524   0.00000  Uiso   1.00
H822   H     0.07902   0.10218   0.60747   0.00000  Uiso   1.00
H823   H     0.09248   0.17153   0.65343   0.00000  Uiso   1.00
H824   H     0.07151   0.21075   0.61495   0.00000  Uiso   1.00
O825   O     0.09928   0.20161   0.88315   0.00000  Uiso   1.00
H826   H     0.09793   0.18827   0.85307   0.00000  Uiso   1.00
O827   O     0.24072   0.14885   0.61705   0.00000  Uiso   1.00
H828   H     0.23648   0.14416   0.64909   0.00000  Uiso   1.00
O829   O     0.06360   0.22367   0.54041   0.00000  Uiso   1.00
H830   H     0.04316   0.23470   0.51772   0.00000  Uiso   1.00
O831   O     0.28053   0.14403   0.96010   0.00000  Uiso   1.00
H832   H     0.30277   0.13997   0.98276   0.00000  Uiso   1.00
O833   O     0.04215   0.10373   0.80598   0.00000  Uiso   1.00
H834   H     0.06734   0.11843   0.81767   0.00000  Uiso   1.00
O835   O     0.29117   0.23006   0.69321   0.00000  Uiso   1.00
H836   H     0.26546   0.21590   0.68227   0.00000  Uiso   1.00
O837   O     0.29425   0.09692   0.79623   0.00000  Uiso   1.00
H838   H     0.28176   0.07597   0.77398   0.00000  Uiso   1.00
O839   O     0.03950   0.23532   0.70095   0.00000  Uiso   1.00
H840   H     0.05267   0.25670   0.72233   0.00000  Uiso   1.00
C841   C     0.42076   0.16730   0.75066   0.00000  Uiso   1.00
C842   C     0.57926   0.16609   0.74891   0.00000  Uiso   1.00
C843   C     0.43101   0.20393   0.52029   0.00000  Uiso   1.00
C844   C     0.57624   0.15039   0.98023   0.00000  Uiso   1.00
C845   C     0.35549   0.13470   0.77706   0.00000  Uiso   1.00
C846   C     0.64455   0.19896   0.72196   0.00000  Uiso   1.00
C847   C     0.64651   0.13143   0.77260   0.00000  Uiso   1.00
C848   C     0.35368   0.20191   0.72594   0.00000  Uiso   1.00
C849   C     0.62393   0.16470   0.74677   0.00000  Uiso   1.00
C850   C     0.37614   0.16886   0.75226   0.00000  Uiso   1.00
C851   C     0.47545   0.02565   0.72102   0.00000  Uiso   1.00
C852   C     0.52452   0.30771   0.77900   0.00000  Uiso   1.00
C853   C     0.52448   0.02399   0.77900   0.00000  Uiso   1.00
C854   C     0.47547   0.30936   0.72101   0.00000  Uiso   1.00
C855   C     0.49984   0.16685   0.66462   0.00000  Uiso   1.00
C856   C     0.50171   0.16641   0.83551   0.00000  Uiso   1.00
C857   C     0.53731   0.14918   0.90807   0.00000  Uiso   1.00
C858   C     0.46272   0.17799   0.59272   0.00000  Uiso   1.00
C859   C     0.50212   0.16613   0.88389   0.00000  Uiso   1.00
C860   C     0.49977   0.16746   0.61651   0.00000  Uiso   1.00
C861   C     0.46770   0.18551   0.90580   0.00000  Uiso   1.00
C862   C     0.53730   0.15936   0.59463   0.00000  Uiso   1.00
C863   C     0.46800   0.18742   0.95211   0.00000  Uiso   1.00
C864   C     0.53784   0.16121   0.54836   0.00000  Uiso   1.00
C865   C     0.50326   0.17306   0.97677   0.00000  Uiso   1.00
C866   C     0.50194   0.17349   0.52375   0.00000  Uiso   1.00
C867   C     0.53947   0.15746   0.95468   0.00000  Uiso   1.00
C868   C     0.46468   0.18534   0.54591   0.00000  Uiso   1.00
C869   C     0.43308   0.20416   0.97404   0.00000  Uiso   1.00
C870   C     0.57465   0.15173   0.52642   0.00000  Uiso   1.00
Cu871  Cu    0.50000   0.21355   0.75000   0.00000  Uiso   1.00
Cu872  Cu    0.50000   0.11978   0.75000   0.00000  Uiso   1.00
H873   H     0.40665   0.21738   0.95515   0.00000  Uiso   1.00
H874   H     0.60283   0.14489   0.54523   0.00000  Uiso   1.00
H875   H     0.45577   0.04503   0.69782   0.00000  Uiso   1.00
H876   H     0.54419   0.28836   0.80223   0.00000  Uiso   1.00
H877   H     0.54396   0.04209   0.80221   0.00000  Uiso   1.00
H878   H     0.45588   0.29132   0.69775   0.00000  Uiso   1.00
N879   N     0.50000   0.28402   0.75000   0.00000  Uiso   1.00
N880   N     0.50000   0.04931   0.75000   0.00000  Uiso   1.00
O881   O     0.43988   0.20625   0.74999   0.00000  Uiso   1.00
O882   O     0.56012   0.12709   0.75000   0.00000  Uiso   1.00
O883   O     0.56012   0.20625   0.75000   0.00000  Uiso   1.00
O884   O     0.43988   0.12709   0.74999   0.00000  Uiso   1.00
O885   O     0.49999   0.20627   0.68513   0.00000  Uiso   1.00
O886   O     0.50001   0.12707   0.81487   0.00000  Uiso   1.00
O887   O     0.50001   0.20627   0.81487   0.00000  Uiso   1.00
O888   O     0.49999   0.12707   0.68513   0.00000  Uiso   1.00
C889   C     0.57011   0.11895   0.88488   0.00000  Uiso   1.00
C890   C     0.57056   0.06832   0.90312   0.00000  Uiso   1.00
C891   C     0.60680   0.03920   0.88590   0.00000  Uiso   1.00
H892   H     0.60340   0.03353   0.84977   0.00000  Uiso   1.00
H893   H     0.63630   0.05684   0.89296   0.00000  Uiso   1.00
H894   H     0.60766   0.00439   0.90262   0.00000  Uiso   1.00
H895   H     0.57245   0.06779   0.93985   0.00000  Uiso   1.00
H896   H     0.54138   0.05131   0.89331   0.00000  Uiso   1.00
H897   H     0.56507   0.11668   0.84879   0.00000  Uiso   1.00
H898   H     0.60071   0.13508   0.88680   0.00000  Uiso   1.00
C899   C     0.42160   0.17664   0.61725   0.00000  Uiso   1.00
C900   C     0.39518   0.13578   0.60133   0.00000  Uiso   1.00
C901   C     0.35433   0.13434   0.62566   0.00000  Uiso   1.00
H902   H     0.35988   0.12732   0.66152   0.00000  Uiso   1.00
H903   H     0.33700   0.16809   0.62133   0.00000  Uiso   1.00
H904   H     0.33533   0.10582   0.61205   0.00000  Uiso   1.00
H905   H     0.38850   0.13854   0.56524   0.00000  Uiso   1.00
H906   H     0.41235   0.10218   0.60747   0.00000  Uiso   1.00
H907   H     0.42582   0.17153   0.65343   0.00000  Uiso   1.00
H908   H     0.40484   0.21075   0.61495   0.00000  Uiso   1.00
O909   O     0.43261   0.20161   0.88315   0.00000  Uiso   1.00
H910   H     0.43126   0.18827   0.85307   0.00000  Uiso   1.00
O911   O     0.57405   0.14885   0.61705   0.00000  Uiso   1.00
H912   H     0.56981   0.14416   0.64909   0.00000  Uiso   1.00
O913   O     0.39693   0.22367   0.54041   0.00000  Uiso   1.00
H914   H     0.37649   0.23470   0.51772   0.00000  Uiso   1.00
O915   O     0.61387   0.14403   0.96010   0.00000  Uiso   1.00
H916   H     0.63610   0.13997   0.98276   0.00000  Uiso   1.00
O917   O     0.37548   0.10373   0.80598   0.00000  Uiso   1.00
H918   H     0.40068   0.11843   0.81767   0.00000  Uiso   1.00
O919   O     0.62450   0.23006   0.69321   0.00000  Uiso   1.00
H920   H     0.59880   0.21590   0.68227   0.00000  Uiso   1.00
O921   O     0.62759   0.09692   0.79623   0.00000  Uiso   1.00
H922   H     0.61509   0.07597   0.77398   0.00000  Uiso   1.00
O923   O     0.37284   0.23532   0.70095   0.00000  Uiso   1.00
H924   H     0.38601   0.25670   0.72233   0.00000  Uiso   1.00
C925   C     0.75409   0.16730   0.75066   0.00000  Uiso   1.00
C926   C     0.91260   0.16609   0.74891   0.00000  Uiso   1.00
C927   C     0.76434   0.20393   0.52029   0.00000  Uiso   1.00
C928   C     0.90958   0.15039   0.98023   0.00000  Uiso   1.00
C929   C     0.68883   0.13470   0.77706   0.00000  Uiso   1.00
C930   C     0.97789   0.19896   0.72196   0.00000  Uiso   1.00
C931   C     0.97984   0.13143   0.77260   0.00000  Uiso   1.00
C932   C     0.68702   0.20191   0.72594   0.00000  Uiso   1.00
C933   C     0.95726   0.16470   0.74677   0.00000  Uiso   1.00
C934   C     0.70947   0.16886   0.75226   0.00000  Uiso   1.00
C935   C     0.80879   0.02565   0.72102   0.00000  Uiso   1.00
C936   C     0.85785   0.30771   0.77900   0.00000  Uiso   1.00
C937   C     0.85781   0.02399   0.77900   0.00000  Uiso   1.00
C938   C     0.80881   0.30936   0.72101   0.00000  Uiso   1.00
C939   C     0.83317   0.16685   0.66462   0.00000  Uiso   1.00
C940   C     0.83504   0.16641   0.83551   0.00000  Uiso   1.00
C941   C     0.87065   0.14918   0.90807   0.00000  Uiso   1.00
C942   C     0.79606   0.17799   0.59272   0.00000  Uiso   1.00
C943   C     0.83546   0.16613   0.88389   0.00000  Uiso   1.00
C944   C     0.83311   0.16746   0.61651   0.00000  Uiso   1.00
C945   C     0.80103   0.18551   0.90580   0.00000  Uiso   1.00
C946   C     0.87064   0.15936   0.59463   0.00000  Uiso   1.00
C947   C     0.80133   0.18742   0.95211   0.00000  Uiso   1.00
C948   C     0.87118   0.16121   0.54836   0.00000  Uiso   1.00
C949   C     0.83659   0.17306   0.97677   0.00000  Uiso   1.00
C950   C     0.83527   0.17349   0.52375   0.00000  Uiso   1.00
C951   C     0.87280   0.15746   0.95468   0.00000  Uiso   1.00
C952   C     0.79802   0.18534   0.54591   0.00000  Uiso   1.00
C953   C     0.76642   0.20416   0.97404   0.00000  Uiso   1.00
C954   C     0.90799   0.15173   0.52642   0.00000  Uiso   1.00
Cu955  Cu    0.83333   0.21355   0.75000   0.00000  Uiso   1.00
Cu956  Cu    0.83333   0.11978   0.75000   0.00000  Uiso   1.00
H957   H     0.73998   0.21738   0.95515   0.00000  Uiso   1.00
H958   H     0.93616   0.14489   0.54523   0.00000  Uiso   1.00
H959   H     0.78911   0.04503   0.69782   0.00000  Uiso   1.00
H960   H     0.87753   0.28836   0.80223   0.00000  Uiso   1.00
H961   H     0.87730   0.04209   0.80221   0.00000  Uiso   1.00
H962   H     0.78921   0.29132   0.69775   0.00000  Uiso   1.00
N963   N     0.83333   0.28402   0.75000   0.00000  Uiso   1.00
N964   N     0.83333   0.04931   0.75000   0.00000  Uiso   1.00
O965   O     0.77321   0.20625   0.74999   0.00000  Uiso   1.00
O966   O     0.89345   0.12709   0.75000   0.00000  Uiso   1.00
O967   O     0.89345   0.20625   0.75000   0.00000  Uiso   1.00
O968   O     0.77321   0.12709   0.74999   0.00000  Uiso   1.00
O969   O     0.83332   0.20627   0.68513   0.00000  Uiso   1.00
O970   O     0.83334   0.12707   0.81487   0.00000  Uiso   1.00
O971   O     0.83334   0.20627   0.81487   0.00000  Uiso   1.00
O972   O     0.83332   0.12707   0.68513   0.00000  Uiso   1.00
C973   C     0.90344   0.11895   0.88488   0.00000  Uiso   1.00
C974   C     0.90389   0.06832   0.90312   0.00000  Uiso   1.00
C975   C     0.94013   0.03920   0.88590   0.00000  Uiso   1.00
H976   H     0.93673   0.03353   0.84977   0.00000  Uiso   1.00
H977   H     0.96963   0.05684   0.89296   0.00000  Uiso   1.00
H978   H     0.94100   0.00439   0.90262   0.00000  Uiso   1.00
H979   H     0.90579   0.06779   0.93985   0.00000  Uiso   1.00
H980   H     0.87471   0.05131   0.89331   0.00000  Uiso   1.00
H981   H     0.89841   0.11668   0.84879   0.00000  Uiso   1.00
H982   H     0.93405   0.13508   0.88680   0.00000  Uiso   1.00
C983   C     0.75493   0.17664   0.61725   0.00000  Uiso   1.00
C984   C     0.72851   0.13578   0.60133   0.00000  Uiso   1.00
C985   C     0.68766   0.13434   0.62566   0.00000  Uiso   1.00
H986   H     0.69321   0.12732   0.66152   0.00000  Uiso   1.00
H987   H     0.67034   0.16809   0.62133   0.00000  Uiso   1.00
H988   H     0.66866   0.10582   0.61205   0.00000  Uiso   1.00
H989   H     0.72184   0.13854   0.56524   0.00000  Uiso   1.00
H990   H     0.74568   0.10218   0.60747   0.00000  Uiso   1.00
H991   H     0.75915   0.17153   0.65343   0.00000  Uiso   1.00
H992   H     0.73818   0.21075   0.61495   0.00000  Uiso   1.00
O993   O     0.76595   0.20161   0.88315   0.00000  Uiso   1.00
H994   H     0.76459   0.18827   0.85307   0.00000  Uiso   1.00
O995   O     0.90739   0.14885   0.61705   0.00000  Uiso   1.00
H996   H     0.90314   0.14416   0.64909   0.00000  Uiso   1.00
O997   O     0.73027   0.22367   0.54041   0.00000  Uiso   1.00
H998   H     0.70982   0.23470   0.51772   0.00000  Uiso   1.00
O999   O     0.94720   0.14403   0.96010   0.00000  Uiso   1.00
H1000  H     0.96944   0.13997   0.98276   0.00000  Uiso   1.00
O1001  O     0.70881   0.10373   0.80598   0.00000  Uiso   1.00
H1002  H     0.73401   0.11843   0.81767   0.00000  Uiso   1.00
O1003  O     0.95784   0.23006   0.69321   0.00000  Uiso   1.00
H1004  H     0.93213   0.21590   0.68227   0.00000  Uiso   1.00
O1005  O     0.96092   0.09692   0.79623   0.00000  Uiso   1.00
H1006  H     0.94842   0.07597   0.77398   0.00000  Uiso   1.00
O1007  O     0.70617   0.23532   0.70095   0.00000  Uiso   1.00
H1008  H     0.71934   0.25670   0.72233   0.00000  Uiso   1.00
C1009  C     0.08742   0.50063   0.75066   0.00000  Uiso   1.00
C1010  C     0.24593   0.49942   0.74891   0.00000  Uiso   1.00
C1011  C     0.09768   0.53727   0.52029   0.00000  Uiso   1.00
C1012  C     0.24291   0.48372   0.98023   0.00000  Uiso   1.00
C1013  C     0.02216   0.46804   0.77706   0.00000  Uiso   1.00
C1014  C     0.31122   0.53230   0.72196   0.00000  Uiso   1.00
C1015  C     0.31318   0.46476   0.77260   0.00000  Uiso   1.00
C1016  C     0.02035   0.53525   0.72594   0.00000  Uiso   1.00
C1017  C     0.29060   0.49803   0.74677   0.00000  Uiso   1.00
C1018  C     0.04281   0.50219   0.75226   0.00000  Uiso   1.00
C1019  C     0.14212   0.35898   0.72102   0.00000  Uiso   1.00
C1020  C     0.19119   0.64104   0.77900   0.00000  Uiso   1.00
C1021  C     0.19114   0.35732   0.77900   0.00000  Uiso   1.00
C1022  C     0.14214   0.64269   0.72101   0.00000  Uiso   1.00
C1023  C     0.16651   0.50018   0.66462   0.00000  Uiso   1.00
C1024  C     0.16838   0.49974   0.83551   0.00000  Uiso   1.00
C1025  C     0.20398   0.48251   0.90807   0.00000  Uiso   1.00
C1026  C     0.12939   0.51132   0.59272   0.00000  Uiso   1.00
C1027  C     0.16879   0.49947   0.88389   0.00000  Uiso   1.00
C1028  C     0.16644   0.50080   0.61651   0.00000  Uiso   1.00
C1029  C     0.13436   0.51884   0.90580   0.00000  Uiso   1.00
C1030  C     0.20397   0.49270   0.59463   0.00000  Uiso   1.00
C1031  C     0.13467   0.52076   0.95211   0.00000  Uiso   1.00
C1032  C     0.20451   0.49455   0.54836   0.00000  Uiso   1.00
C1033  C     0.16992   0.50640   0.97677   0.00000  Uiso   1.00
C1034  C     0.16860   0.50682   0.52375   0.00000  Uiso   1.00
C1035  C     0.20614   0.49079   0.95468   0.00000  Uiso   1.00
C1036  C     0.13135   0.51867   0.54591   0.00000  Uiso   1.00
C1037  C     0.09975   0.53749   0.97404   0.00000  Uiso   1.00
C1038  C     0.24132   0.48507   0.52642   0.00000  Uiso   1.00
Cu1039 Cu    0.16667   0.54689   0.75000   0.00000  Uiso   1.00
Cu1040 Cu    0.16667   0.45311   0.75000   0.00000  Uiso   1.00
H1041  H     0.07331   0.55072   0.95515   0.00000  Uiso   1.00
H1042  H     0.26950   0.47822   0.54523   0.00000  Uiso   1.00
H1043  H     0.12244   0.37836   0.69782   0.00000  Uiso   1.00
H1044  H     0.21086   0.62170   0.80223   0.00000  Uiso   1.00
H1045  H     0.21063   0.37542   0.80221   0.00000  Uiso   1.00
H1046  H     0.12255   0.62466   0.69775   0.00000  Uiso   1.00
N1047  N     0.16667   0.61736   0.75000   0.00000  Uiso   1.00
N1048  N     0.16667   0.38264   0.75000   0.00000  Uiso   1.00
O1049  O     0.10655   0.53958   0.74999   0.00000  Uiso   1.00
O1050  O     0.22679   0.46042   0.75000   0.00000  Uiso   1.00
O1051  O     0.22679   0.53958   0.75000   0.00000  Uiso   1.00
O1052  O     0.10655   0.46042   0.74999   0.00000  Uiso   1.00
O1053  O     0.16666   0.53960   0.68513   0.00000  Uiso   1.00
O1054  O     0.16668   0.46040   0.81487   0.00000  Uiso   1.00
O1055  O     0.16668   0.53960   0.81487   0.00000  Uiso   1.00
O1056  O     0.16666   0.46040   0.68513   0.00000  Uiso   1.00
C1057  C     0.23677   0.45228   0.88488   0.00000  Uiso   1.00
C1058  C     0.23723   0.40165   0.90312   0.00000  Uiso   1.00
C1059  C     0.27347   0.37254   0.88590   0.00000  Uiso   1.00
H1060  H     0.27006   0.36686   0.84977   0.00000  Uiso   1.00
H1061  H     0.30297   0.39018   0.89296   0.00000  Uiso   1.00
H1062  H     0.27433   0.33773   0.90262   0.00000  Uiso   1.00
H1063  H     0.23912   0.40112   0.93985   0.00000  Uiso   1.00
H1064  H     0.20804   0.38465   0.89331   0.00000  Uiso   1.00
H1065  H     0.23174   0.45001   0.84879   0.00000  Uiso   1.00
H1066  H     0.26738   0.46841   0.88680   0.00000  Uiso   1.00
C1067  C     0.08826   0.50997   0.61725   0.00000  Uiso   1.00
C1068  C     0.06185   0.46911   0.60133   0.00000  Uiso   1.00
C1069  C     0.02099   0.46767   0.62566   0.00000  Uiso   1.00
H1070  H     0.02654   0.46066   0.66152   0.00000  Uiso   1.00
H1071  H     0.00367   0.50142   0.62133   0.00000  Uiso   1.00
H1072  H     0.00199   0.43915   0.61205   0.00000  Uiso   1.00
H1073  H     0.05517   0.47187   0.56524   0.00000  Uiso   1.00
H1074  H     0.07902   0.43551   0.60747   0.00000  Uiso   1.00
H1075  H     0.09248   0.50486   0.65343   0.00000  Uiso   1.00
H1076  H     0.07151   0.54409   0.61495   0.00000  Uiso   1.00
O1077  O     0.09928   0.53495   0.88315   0.00000  Uiso   1.00
H1078  H     0.09793   0.52160   0.85307   0.00000  Uiso   1.00
O1079  O     0.24072   0.48219   0.61705   0.00000  Uiso   1.00
H1080  H     0.23648   0.47750   0.64909   0.00000  Uiso   1.00
O1081  O     0.06360   0.55700   0.54041   0.00000  Uiso   1.00
H1082  H     0.04316   0.56803   0.51772   0.00000  Uiso   1.00
O1083  O     0.28053   0.47736   0.96010   0.00000  Uiso   1.00
H1084  H     0.30277   0.47330   0.98276   0.00000  Uiso   1.00
O1085  O     0.04215   0.43706   0.80598   0.00000  Uiso   1.00
H1086  H     0.06734   0.45176   0.81767   0.00000  Uiso   1.00
O1087  O     0.29117   0.56339   0.69321   0.00000  Uiso   1.00
H1088  H     0.26546   0.54923   0.68227   0.00000  Uiso   1.00
O1089  O     0.29425   0.43025   0.79623   0.00000  Uiso   1.00
H1090  H     0.28176   0.40931   0.77398   0.00000  Uiso   1.00
O1091  O     0.03950   0.56865   0.70095   0.00000  Uiso   1.00
H1092  H     0.05267   0.59003   0.72233   0.00000  Uiso   1.00
C1093  C     0.42076   0.50063   0.75066   0.00000  Uiso   1.00
C1094  C     0.57926   0.49942   0.74891   0.00000  Uiso   1.00
C1095  C     0.43101   0.53727   0.52029   0.00000  Uiso   1.00
C1096  C     0.57624   0.48372   0.98023   0.00000  Uiso   1.00
C1097  C     0.35549   0.46804   0.77706   0.00000  Uiso   1.00
C1098  C     0.64455   0.53230   0.72196   0.00000  Uiso   1.00
C1099  C     0.64651   0.46476   0.77260   0.00000  Uiso   1.00
C1100  C     0.35368   0.53525   0.72594   0.00000  Uiso   1.00
C1101  C     0.62393   0.49803   0.74677   0.00000  Uiso   1.00
C1102  C     0.37614   0.50219   0.75226   0.00000  Uiso   1.00
C1103  C     0.47545   0.35898   0.72102   0.00000  Uiso   1.00
C1104  C     0.52452   0.64104   0.77900   0.00000  Uiso   1.00
C1105  C     0.52448   0.35732   0.77900   0.00000  Uiso   1.00
C1106  C     0.47547   0.64269   0.72101   0.00000  Uiso   1.00
C1107  C     0.49984   0.50018   0.66462   0.00000  Uiso   1.00
C1108  C     0.50171   0.49974   0.83551   0.00000  Uiso   1.00
C1109  C     0.53731   0.48251   0.90807   0.00000  Uiso   1.00
C1110  C     0.46272   0.51132   0.59272   0.00000  Uiso   1.00
C1111  C     0.50212   0.49947   0.88389   0.00000  Uiso   1.00
C1112  C     0.49977   0.50080   0.61651   0.00000  Uiso   1.00
C1113  C     0.46770   0.51884   0.90580   0.00000  Uiso   1.00
C1114  C     0.53730   0.49270   0.59463   0.00000  Uiso   1.00
C1115  C     0.46800   0.52076   0.95211   0.00000  Uiso   1.00
C1116  C     0.53784   0.49455   0.54836   0.00000  Uiso   1.00
C1117  C     0.50326   0.50640   0.97677   0.00000  Uiso   1.00
C1118  C     0.50194   0.50682   0.52375   0.00000  Uiso   1.00
C1119  C     0.53947   0.49079   0.95468   0.00000  Uiso   1.00
C1120  C     0.46468   0.51867   0.54591   0.00000  Uiso   1.00
C1121  C     0.43308   0.53749   0.97404   0.00000  Uiso   1.00
C1122  C     0.57465   0.48507   0.52642   0.00000  Uiso   1.00
Cu1123 Cu    0.50000   0.54689   0.75000   0.00000  Uiso   1.00
Cu1124 Cu    0.50000   0.45311   0.75000   0.00000  Uiso   1.00
H1125  H     0.40665   0.55072   0.95515   0.00000  Uiso   1.00
H1126  H     0.60283   0.47822   0.54523   0.00000  Uiso   1.00
H1127  H     0.45577   0.37836   0.69782   0.00000  Uiso   1.00
H1128  H     0.54419   0.62170   0.80223   0.00000  Uiso   1.00
H1129  H     0.54396   0.37542   0.80221   0.00000  Uiso   1.00
H1130  H     0.45588   0.62466   0.69775   0.00000  Uiso   1.00
N1131  N     0.50000   0.61736   0.75000   0.00000  Uiso   1.00
N1132  N     0.50000   0.38264   0.75000   0.00000  Uiso   1.00
O1133  O     0.43988   0.53958   0.74999   0.00000  Uiso   1.00
O1134  O     0.56012   0.46042   0.75000   0.00000  Uiso   1.00
O1135  O     0.56012   0.53958   0.75000   0.00000  Uiso   1.00
O1136  O     0.43988   0.46042   0.74999   0.00000  Uiso   1.00
O1137  O     0.49999   0.53960   0.68513   0.00000  Uiso   1.00
O1138  O     0.50001   0.46040   0.81487   0.00000  Uiso   1.00
O1139  O     0.50001   0.53960   0.81487   0.00000  Uiso   1.00
O1140  O     0.49999   0.46040   0.68513   0.00000  Uiso   1.00
C1141  C     0.57011   0.45228   0.88488   0.00000  Uiso   1.00
C1142  C     0.57056   0.40165   0.90312   0.00000  Uiso   1.00
C1143  C     0.60680   0.37254   0.88590   0.00000  Uiso   1.00
H1144  H     0.60340   0.36686   0.84977   0.00000  Uiso   1.00
H1145  H     0.63630   0.39018   0.89296   0.00000  Uiso   1.00
H1146  H     0.60766   0.33773   0.90262   0.00000  Uiso   1.00
H1147  H     0.57245   0.40112   0.93985   0.00000  Uiso   1.00
H1148  H     0.54138   0.38465   0.89331   0.00000  Uiso   1.00
H1149  H     0.56507   0.45001   0.84879   0.00000  Uiso   1.00
H1150  H     0.60071   0.46841   0.88680   0.00000  Uiso   1.00
C1151  C     0.42160   0.50997   0.61725   0.00000  Uiso   1.00
C1152  C     0.39518   0.46911   0.60133   0.00000  Uiso   1.00
C1153  C     0.35433   0.46767   0.62566   0.00000  Uiso   1.00
H1154  H     0.35988   0.46066   0.66152   0.00000  Uiso   1.00
H1155  H     0.33700   0.50142   0.62133   0.00000  Uiso   1.00
H1156  H     0.33533   0.43915   0.61205   0.00000  Uiso   1.00
H1157  H     0.38850   0.47187   0.56524   0.00000  Uiso   1.00
H1158  H     0.41235   0.43551   0.60747   0.00000  Uiso   1.00
H1159  H     0.42582   0.50486   0.65343   0.00000  Uiso   1.00
H1160  H     0.40484   0.54409   0.61495   0.00000  Uiso   1.00
O1161  O     0.43261   0.53495   0.88315   0.00000  Uiso   1.00
H1162  H     0.43126   0.52160   0.85307   0.00000  Uiso   1.00
O1163  O     0.57405   0.48219   0.61705   0.00000  Uiso   1.00
H1164  H     0.56981   0.47750   0.64909   0.00000  Uiso   1.00
O1165  O     0.39693   0.55700   0.54041   0.00000  Uiso   1.00
H1166  H     0.37649   0.56803   0.51772   0.00000  Uiso   1.00
O1167  O     0.61387   0.47736   0.96010   0.00000  Uiso   1.00
H1168  H     0.63610   0.47330   0.98276   0.00000  Uiso   1.00
O1169  O     0.37548   0.43706   0.80598   0.00000  Uiso   1.00
H1170  H     0.40068   0.45176   0.81767   0.00000  Uiso   1.00
O1171  O     0.62450   0.56339   0.69321   0.00000  Uiso   1.00
H1172  H     0.59880   0.54923   0.68227   0.00000  Uiso   1.00
O1173  O     0.62759   0.43025   0.79623   0.00000  Uiso   1.00
H1174  H     0.61509   0.40931   0.77398   0.00000  Uiso   1.00
O1175  O     0.37284   0.56865   0.70095   0.00000  Uiso   1.00
H1176  H     0.38601   0.59003   0.72233   0.00000  Uiso   1.00
C1177  C     0.75409   0.50063   0.75066   0.00000  Uiso   1.00
C1178  C     0.91260   0.49942   0.74891   0.00000  Uiso   1.00
C1179  C     0.76434   0.53727   0.52029   0.00000  Uiso   1.00
C1180  C     0.90958   0.48372   0.98023   0.00000  Uiso   1.00
C1181  C     0.68883   0.46804   0.77706   0.00000  Uiso   1.00
C1182  C     0.97789   0.53230   0.72196   0.00000  Uiso   1.00
C1183  C     0.97984   0.46476   0.77260   0.00000  Uiso   1.00
C1184  C     0.68702   0.53525   0.72594   0.00000  Uiso   1.00
C1185  C     0.95726   0.49803   0.74677   0.00000  Uiso   1.00
C1186  C     0.70947   0.50219   0.75226   0.00000  Uiso   1.00
C1187  C     0.80879   0.35898   0.72102   0.00000  Uiso   1.00
C1188  C     0.85785   0.64104   0.77900   0.00000  Uiso   1.00
C1189  C     0.85781   0.35732   0.77900   0.00000  Uiso   1.00
C1190  C     0.80881   0.64269   0.72101   0.00000  Uiso   1.00
C1191  C     0.83317   0.50018   0.66462   0.00000  Uiso   1.00
C1192  C     0.83504   0.49974   0.83551   0.00000  Uiso   1.00
C1193  C     0.87065   0.48251   0.90807   0.00000  Uiso   1.00
C1194  C     0.79606   0.51132   0.59272   0.00000  Uiso   1.00
C1195  C     0.83546   0.49947   0.88389   0.00000  Uiso   1.00
C1196  C     0.83311   0.50080   0.61651   0.00000  Uiso   1.00
C1197  C     0.80103   0.51884   0.90580   0.00000  Uiso   1.00
C1198  C     0.87064   0.49270   0.59463   0.00000  Uiso   1.00
C1199  C     0.80133   0.52076   0.95211   0.00000  Uiso   1.00
C1200  C     0.87118   0.49455   0.54836   0.00000  Uiso   1.00
C1201  C     0.83659   0.50640   0.97677   0.00000  Uiso   1.00
C1202  C     0.83527   0.50682   0.52375   0.00000  Uiso   1.00
C1203  C     0.87280   0.49079   0.95468   0.00000  Uiso   1.00
C1204  C     0.79802   0.51867   0.54591   0.00000  Uiso   1.00
C1205  C     0.76642   0.53749   0.97404   0.00000  Uiso   1.00
C1206  C     0.90799   0.48507   0.52642   0.00000  Uiso   1.00
Cu1207 Cu    0.83333   0.54689   0.75000   0.00000  Uiso   1.00
Cu1208 Cu    0.83333   0.45311   0.75000   0.00000  Uiso   1.00
H1209  H     0.73998   0.55072   0.95515   0.00000  Uiso   1.00
H1210  H     0.93616   0.47822   0.54523   0.00000  Uiso   1.00
H1211  H     0.78911   0.37836   0.69782   0.00000  Uiso   1.00
H1212  H     0.87753   0.62170   0.80223   0.00000  Uiso   1.00
H1213  H     0.87730   0.37542   0.80221   0.00000  Uiso   1.00
H1214  H     0.78921   0.62466   0.69775   0.00000  Uiso   1.00
N1215  N     0.83333   0.61736   0.75000   0.00000  Uiso   1.00
N1216  N     0.83333   0.38264   0.75000   0.00000  Uiso   1.00
O1217  O     0.77321   0.53958   0.74999   0.00000  Uiso   1.00
O1218  O     0.89345   0.46042   0.75000   0.00000  Uiso   1.00
O1219  O     0.89345   0.53958   0.75000   0.00000  Uiso   1.00
O1220  O     0.77321   0.46042   0.74999   0.00000  Uiso   1.00
O1221  O     0.83332   0.53960   0.68513   0.00000  Uiso   1.00
O1222  O     0.83334   0.46040   0.81487   0.00000  Uiso   1.00
O1223  O     0.83334   0.53960   0.81487   0.00000  Uiso   1.00
O1224  O     0.83332   0.46040   0.68513   0.00000  Uiso   1.00
C1225  C     0.90344   0.45228   0.88488   0.00000  Uiso   1.00
C1226  C     0.90389   0.40165   0.90312   0.00000  Uiso   1.00
C1227  C     0.94013   0.37254   0.88590   0.00000  Uiso   1.00
H1228  H     0.93673   0.36686   0.84977   0.00000  Uiso   1.00
H1229  H     0.96963   0.39018   0.89296   0.00000  Uiso   1.00
H1230  H     0.94100   0.33773   0.90262   0.00000  Uiso   1.00
H1231  H     0.90579   0.40112   0.93985   0.00000  Uiso   1.00
H1232  H     0.87471   0.38465   0.89331   0.00000  Uiso   1.00
H1233  H     0.89841   0.45001   0.84879   0.00000  Uiso   1.00
H1234  H     0.93405   0.46841   0.88680   0.00000  Uiso   1.00
C1235  C     0.75493   0.50997   0.61725   0.00000  Uiso   1.00
C1236  C     0.72851   0.46911   0.60133   0.00000  Uiso   1.00
C1237  C     0.68766   0.46767   0.62566   0.00000  Uiso   1.00
H1238  H     0.69321   0.46066   0.66152   0.00000  Uiso   1.00
H1239  H     0.67034   0.50142   0.62133   0.00000  Uiso   1.00
H1240  H     0.66866   0.43915   0.61205   0.00000  Uiso   1.00
H1241  H     0.72184   0.47187   0.56524   0.00000  Uiso   1.00
H1242  H     0.74568   0.43551   0.60747   0.00000  Uiso   1.00
H1243  H     0.75915   0.50486   0.65343   0.00000  Uiso   1.00
H1244  H     0.73818   0.54409   0.61495   0.00000  Uiso   1.00
O1245  O     0.76595   0.53495   0.88315   0.00000  Uiso   1.00
H1246  H     0.76459   0.52160   0.85307   0.00000  Uiso   1.00
O1247  O     0.90739   0.48219   0.61705   0.00000  Uiso   1.00
H1248  H     0.90314   0.47750   0.64909   0.00000  Uiso   1.00
O1249  O     0.73027   0.55700   0.54041   0.00000  Uiso   1.00
H1250  H     0.70982   0.56803   0.51772   0.00000  Uiso   1.00
O1251  O     0.94720   0.47736   0.96010   0.00000  Uiso   1.00
H1252  H     0.96944   0.47330   0.98276   0.00000  Uiso   1.00
O1253  O     0.70881   0.43706   0.80598   0.00000  Uiso   1.00
H1254  H     0.73401   0.45176   0.81767   0.00000  Uiso   1.00
O1255  O     0.95784   0.56339   0.69321   0.00000  Uiso   1.00
H1256  H     0.93213   0.54923   0.68227   0.00000  Uiso   1.00
O1257  O     0.96092   0.43025   0.79623   0.00000  Uiso   1.00
H1258  H     0.94842   0.40931   0.77398   0.00000  Uiso   1.00
O1259  O     0.70617   0.56865   0.70095   0.00000  Uiso   1.00
H1260  H     0.71934   0.59003   0.72233   0.00000  Uiso   1.00
C1261  C     0.08742   0.83397   0.75066   0.00000  Uiso   1.00
C1262  C     0.24593   0.83275   0.74891   0.00000  Uiso   1.00
C1263  C     0.09768   0.87060   0.52029   0.00000  Uiso   1.00
C1264  C     0.24291   0.81706   0.98023   0.00000  Uiso   1.00
C1265  C     0.02216   0.80137   0.77706   0.00000  Uiso   1.00
C1266  C     0.31122   0.86563   0.72196   0.00000  Uiso   1.00
C1267  C     0.31318   0.79809   0.77260   0.00000  Uiso   1.00
C1268  C     0.02035   0.86858   0.72594   0.00000  Uiso   1.00
C1269  C     0.29060   0.83136   0.74677   0.00000  Uiso   1.00
C1270  C     0.04281   0.83552   0.75226   0.00000  Uiso   1.00
C1271  C     0.14212   0.69232   0.72102   0.00000  Uiso   1.00
C1272  C     0.19119   0.97437   0.77900   0.00000  Uiso   1.00
C1273  C     0.19114   0.69065   0.77900   0.00000  Uiso   1.00
C1274  C     0.14214   0.97603   0.72101   0.00000  Uiso   1.00
C1275  C     0.16651   0.83352   0.66462   0.00000  Uiso   1.00
C1276  C     0.16838   0.83307   0.83551   0.00000  Uiso   1.00
C1277  C     0.20398   0.81585   0.90807   0.00000  Uiso   1.00
C1278  C     0.12939   0.84465   0.59272   0.00000  Uiso   1.00
C1279  C     0.16879   0.83280   0.88389   0.00000  Uiso   1.00
C1280  C     0.16644   0.83413   0.61651   0.00000  Uiso   1.00
C1281  C     0.13436   0.85217   0.90580   0.00000  Uiso   1.00
C1282  C     0.20397   0.82603   0.59463   0.00000  Uiso   1.00
C1283  C     0.13467   0.85409   0.95211   0.00000  Uiso   1.00
C1284  C     0.20451   0.82788   0.54836   0.00000  Uiso   1.00
C1285  C     0.16992   0.83973   0.97677   0.00000  Uiso   1.00
C1286  C     0.16860   0.84015   0.52375   0.00000  Uiso   1.00
C1287  C     0.20614   0.82412   0.95468   0.00000  Uiso   1.00
C1288  C     0.13135   0.85201   0.54591   0.00000  Uiso   1.00
C1289  C     0.09975   0.87083   0.97404   0.00000  Uiso   1.00
C1290  C     0.24132   0.81840   0.52642   0.00000  Uiso   1.00
Cu1291 Cu    0.16667   0.88022   0.75000   0.00000  Uiso   1.00
Cu1292 Cu    0.16667   0.78645   0.75000   0.00000  Uiso   1.00
H1293  H     0.07331   0.88405   0.95515   0.00000  Uiso   1.00
H1294  H     0.26950   0.81155   0.54523   0.00000  Uiso   1.00
H1295  H     0.12244   0.71170   0.69782   0.00000  Uiso   1.00
H1296  H     0.21086   0.95503   0.80223   0.00000  Uiso   1.00
H1297  H     0.21063   0.70876   0.80221   0.00000  Uiso   1.00
H1298  H     0.12255   0.95799   0.69775   0.00000  Uiso   1.00
N1299  N     0.16667   0.95069   0.75000   0.00000  Uiso   1.00
N1300  N     0.16667   0.71598   0.75000   0.00000  Uiso   1.00
O1301  O     0.10655   0.87291   0.74999   0.00000  Uiso   1.00
O1302  O     0.22679   0.79375   0.75000   0.00000  Uiso   1.00
O1303  O     0.22679   0.87291   0.75000   0.00000  Uiso   1.00
O1304  O     0.10655   0.79375   0.74999   0.00000  Uiso   1.00
O1305  O     0.16666   0.87293   0.68513   0.00000  Uiso   1.00
O1306  O     0.16668   0.79373   0.81487   0.00000  Uiso   1.00
O1307  O     0.16668   0.87293   0.81487   0.00000  Uiso   1.00
O1308  O     0.16666   0.79373   0.68513   0.00000  Uiso   1.00
C1309  C     0.23677   0.78561   0.88488   0.00000  Uiso   1.00
C1310  C     0.23723   0.73499   0.90312   0.00000  Uiso   1.00
C1311  C     0.27347   0.70587   0.88590   0.00000  Uiso   1.00
H1312  H     0.27006   0.70019   0.84977   0.00000  Uiso   1.00
H1313  H     0.30297   0.72351   0.89296   0.00000  Uiso   1.00
H1314  H     0.27433   0.67106   0.90262   0.00000  Uiso   1.00
H1315  H     0.23912   0.73446   0.93985   0.00000  Uiso   1.00
H1316  H     0.20804   0.71798   0.89331   0.00000  Uiso   1.00
H1317  H     0.23174   0.78335   0.84879   0.00000  Uiso   1.00
H1318  H     0.26738   0.80175   0.88680   0.00000  Uiso   1.00
C1319  C     0.08826   0.84330   0.61725   0.00000  Uiso   1.00
C1320  C     0.06185   0.80245   0.60133   0.00000  Uiso   1.00
C1321  C     0.02099   0.80101   0.62566   0.00000  Uiso   1.00
H1322  H     0.02654   0.79399   0.66152   0.00000  Uiso   1.00
H1323  H     0.00367   0.83475   0.62133   0.00000  Uiso   1.00
H1324  H     0.00199   0.77248   0.61205   0.00000  Uiso   1.00
H1325  H     0.05517   0.80521   0.56524   0.00000  Uiso   1.00
H1326  H     0.07902   0.76885   0.60747   0.00000  Uiso   1.00
H1327  H     0.09248   0.83820   0.65343   0.00000  Uiso   1.00
H1328  H     0.07151   0.87742   0.61495   0.00000  Uiso   1.00
O1329  O     0.09928   0.86828   0.88315   0.00000  Uiso   1.00
H1330  H     0.09793   0.85493   0.85307   0.00000  Uiso   1.00
O1331  O     0.24072   0.81552   0.61705   0.00000  Uiso   1.00
H1332  H     0.23648   0.81083   0.64909   0.00000  Uiso   1.00
O1333  O     0.06360   0.89034   0.54041   0.00000  Uiso   1.00
H1334  H     0.04316   0.90136   0.51772   0.00000  Uiso   1.00
O1335  O     0.28053   0.81070   0.96010   0.00000  Uiso   1.00
H1336  H     0.30277   0.80663   0.98276   0.00000  Uiso   1.00
O1337  O     0.04215   0.77040   0.80598   0.00000  Uiso   1.00
H1338  H     0.06734   0.78509   0.81767   0.00000  Uiso   1.00
O1339  O     0.29117   0.89672   0.69321   0.00000  Uiso   1.00
H1340  H     0.26546   0.88257   0.68227   0.00000  Uiso   1.00
O1341  O     0.29425   0.76358   0.79623   0.00000  Uiso   1.00
H1342  H     0.28176   0.74264   0.77398   0.00000  Uiso   1.00
O1343  O     0.03950   0.90198   0.70095   0.00000  Uiso   1.00
H1344  H     0.05267   0.92336   0.72233   0.00000  Uiso   1.00
C1345  C     0.42076   0.83397   0.75066   0.00000  Uiso   1.00
C1346  C     0.57926   0.83275   0.74891   0.00000  Uiso   1.00
C1347  C     0.43101   0.87060   0.52029   0.00000  Uiso   1.00
C1348  C     0.57624   0.81706   0.98023   0.00000  Uiso   1.00
C1349  C     0.35549   0.80137   0.77706   0.00000  Uiso   1.00
C1350  C     0.64455   0.86563   0.72196   0.00000  Uiso   1.00
C1351  C     0.64651   0.79809   0.77260   0.00000  Uiso   1.00
C1352  C     0.35368   0.86858   0.72594   0.00000  Uiso   1.00
C1353  C     0.62393   0.83136   0.74677   0.00000  Uiso   1.00
C1354  C     0.37614   0.83552   0.75226   0.00000  Uiso   1.00
C1355  C     0.47545   0.69232   0.72102   0.00000  Uiso   1.00
C1356  C     0.52452   0.97437   0.77900   0.00000  Uiso   1.00
C1357  C     0.52448   0.69065   0.77900   0.00000  Uiso   1.00
C1358  C     0.47547   0.97603   0.72101   0.00000  Uiso   1.00
C1359  C     0.49984   0.83352   0.66462   0.00000  Uiso   1.00
C1360  C     0.50171   0.83307   0.83551   0.00000  Uiso   1.00
C1361  C     0.53731   0.81585   0.90807   0.00000  Uiso   1.00
C1362  C     0.46272   0.84465   0.59272   0.00000  Uiso   1.00
C1363  C     0.50212   0.83280   0.88389   0.00000  Uiso   1.00
C1364  C     0.49977   0.83413   0.61651   0.00000  Uiso   1.00
C1365  C     0.46770   0.85217   0.90580   0.00000  Uiso   1.00
C1366  C     0.53730   0.82603   0.59463   0.00000  Uiso   1.00
C1367  C     0.46800   0.85409   0.95211   0.00000  Uiso   1.00
C1368  C     0.53784   0.82788   0.54836   0.00000  Uiso   1.00
C1369  C     0.50326   0.83973   0.97677   0.00000  Uiso   1.00
C1370  C     0.50194   0.84015   0.52375   0.00000  Uiso   1.00
C1371  C     0.53947   0.82412   0.95468   0.00000  Uiso   1.00
C1372  C     0.46468   0.85201   0.54591   0.00000  Uiso   1.00
C1373  C     0.43308   0.87083   0.97404   0.00000  Uiso   1.00
C1374  C     0.57465   0.81840   0.52642   0.00000  Uiso   1.00
Cu1375 Cu    0.50000   0.88022   0.75000   0.00000  Uiso   1.00
Cu1376 Cu    0.50000   0.78645   0.75000   0.00000  Uiso   1.00
H1377  H     0.40665   0.88405   0.95515   0.00000  Uiso   1.00
H1378  H     0.60283   0.81155   0.54523   0.00000  Uiso   1.00
H1379  H     0.45577   0.71170   0.69782   0.00000  Uiso   1.00
H1380  H     0.54419   0.95503   0.80223   0.00000  Uiso   1.00
H1381  H     0.54396   0.70876   0.80221   0.00000  Uiso   1.00
H1382  H     0.45588   0.95799   0.69775   0.00000  Uiso   1.00
N1383  N     0.50000   0.95069   0.75000   0.00000  Uiso   1.00
N1384  N     0.50000   0.71598   0.75000   0.00000  Uiso   1.00
O1385  O     0.43988   0.87291   0.74999   0.00000  Uiso   1.00
O1386  O     0.56012   0.79375   0.75000   0.00000  Uiso   1.00
O1387  O     0.56012   0.87291   0.75000   0.00000  Uiso   1.00
O1388  O     0.43988   0.79375   0.74999   0.00000  Uiso   1.00
O1389  O     0.49999   0.87293   0.68513   0.00000  Uiso   1.00
O1390  O     0.50001   0.79373   0.81487   0.00000  Uiso   1.00
O1391  O     0.50001   0.87293   0.81487   0.00000  Uiso   1.00
O1392  O     0.49999   0.79373   0.68513   0.00000  Uiso   1.00
C1393  C     0.57011   0.78561   0.88488   0.00000  Uiso   1.00
C1394  C     0.57056   0.73499   0.90312   0.00000  Uiso   1.00
C1395  C     0.60680   0.70587   0.88590   0.00000  Uiso   1.00
H1396  H     0.60340   0.70019   0.84977   0.00000  Uiso   1.00
H1397  H     0.63630   0.72351   0.89296   0.00000  Uiso   1.00
H1398  H     0.60766   0.67106   0.90262   0.00000  Uiso   1.00
H1399  H     0.57245   0.73446   0.93985   0.00000  Uiso   1.00
H1400  H     0.54138   0.71798   0.89331   0.00000  Uiso   1.00
H1401  H     0.56507   0.78335   0.84879   0.00000  Uiso   1.00
H1402  H     0.60071   0.80175   0.88680   0.00000  Uiso   1.00
C1403  C     0.42160   0.84330   0.61725   0.00000  Uiso   1.00
C1404  C     0.39518   0.80245   0.60133   0.00000  Uiso   1.00
C1405  C     0.35433   0.80101   0.62566   0.00000  Uiso   1.00
H1406  H     0.35988   0.79399   0.66152   0.00000  Uiso   1.00
H1407  H     0.33700   0.83475   0.62133   0.00000  Uiso   1.00
H1408  H     0.33533   0.77248   0.61205   0.00000  Uiso   1.00
H1409  H     0.38850   0.80521   0.56524   0.00000  Uiso   1.00
H1410  H     0.41235   0.76885   0.60747   0.00000  Uiso   1.00
H1411  H     0.42582   0.83820   0.65343   0.00000  Uiso   1.00
H1412  H     0.40484   0.87742   0.61495   0.00000  Uiso   1.00
O1413  O     0.43261   0.86828   0.88315   0.00000  Uiso   1.00
H1414  H     0.43126   0.85493   0.85307   0.00000  Uiso   1.00
O1415  O     0.57405   0.81552   0.61705   0.00000  Uiso   1.00
H1416  H     0.56981   0.81083   0.64909   0.00000  Uiso   1.00
O1417  O     0.39693   0.89034   0.54041   0.00000  Uiso   1.00
H1418  H     0.37649   0.90136   0.51772   0.00000  Uiso   1.00
O1419  O     0.61387   0.81070   0.96010   0.00000  Uiso   1.00
H1420  H     0.63610   0.80663   0.98276   0.00000  Uiso   1.00
O1421  O     0.37548   0.77040   0.80598   0.00000  Uiso   1.00
H1422  H     0.40068   0.78509   0.81767   0.00000  Uiso   1.00
O1423  O     0.62450   0.89672   0.69321   0.00000  Uiso   1.00
H1424  H     0.59880   0.88257   0.68227   0.00000  Uiso   1.00
O1425  O     0.62759   0.76358   0.79623   0.00000  Uiso   1.00
H1426  H     0.61509   0.74264   0.77398   0.00000  Uiso   1.00
O1427  O     0.37284   0.90198   0.70095   0.00000  Uiso   1.00
H1428  H     0.38601   0.92336   0.72233   0.00000  Uiso   1.00
C1429  C     0.75409   0.83397   0.75066   0.00000  Uiso   1.00
C1430  C     0.91260   0.83275   0.74891   0.00000  Uiso   1.00
C1431  C     0.76434   0.87060   0.52029   0.00000  Uiso   1.00
C1432  C     0.90958   0.81706   0.98023   0.00000  Uiso   1.00
C1433  C     0.68883   0.80137   0.77706   0.00000  Uiso   1.00
C1434  C     0.97789   0.86563   0.72196   0.00000  Uiso   1.00
C1435  C     0.97984   0.79809   0.77260   0.00000  Uiso   1.00
C1436  C     0.68702   0.86858   0.72594   0.00000  Uiso   1.00
C1437  C     0.95726   0.83136   0.74677   0.00000  Uiso   1.00
C1438  C     0.70947   0.83552   0.75226   0.00000  Uiso   1.00
C1439  C     0.80879   0.69232   0.72102   0.00000  Uiso   1.00
C1440  C     0.85785   0.97437   0.77900   0.00000  Uiso   1.00
C1441  C     0.85781   0.69065   0.77900   0.00000  Uiso   1.00
C1442  C     0.80881   0.97603   0.72101   0.00000  Uiso   1.00
C1443  C     0.83317   0.83352   0.66462   0.00000  Uiso   1.00
C1444  C     0.83504   0.83307   0.83551   0.00000  Uiso   1.00
C1445  C     0.87065   0.81585   0.90807   0.00000  Uiso   1.00
C1446  C     0.79606   0.84465   0.59272   0.00000  Uiso   1.00
C1447  C     0.83546   0.83280   0.88389   0.00000  Uiso   1.00
C1448  C     0.83311   0.83413   0.61651   0.00000  Uiso   1.00
C1449  C     0.80103   0.85217   0.90580   0.00000  Uiso   1.00
C1450  C     0.87064   0.82603   0.59463   0.00000  Uiso   1.00
C1451  C     0.80133   0.85409   0.95211   0.00000  Uiso   1.00
C1452  C     0.87118   0.82788   0.54836   0.00000  Uiso   1.00
C1453  C     0.83659   0.83973   0.97677   0.00000  Uiso   1.00
C1454  C     0.83527   0.84015   0.52375   0.00000  Uiso   1.00
C1455  C     0.87280   0.82412   0.95468   0.00000  Uiso   1.00
C1456  C     0.79802   0.85201   0.54591   0.00000  Uiso   1.00
C1457  C     0.76642   0.87083   0.97404   0.00000  Uiso   1.00
C1458  C     0.90799   0.81840   0.52642   0.00000  Uiso   1.00
Cu1459 Cu    0.83333   0.88022   0.75000   0.00000  Uiso   1.00
Cu1460 Cu    0.83333   0.78645   0.75000   0.00000  Uiso   1.00
H1461  H     0.73998   0.88405   0.95515   0.00000  Uiso   1.00
H1462  H     0.93616   0.81155   0.54523   0.00000  Uiso   1.00
H1463  H     0.78911   0.71170   0.69782   0.00000  Uiso   1.00
H1464  H     0.87753   0.95503   0.80223   0.00000  Uiso   1.00
H1465  H     0.87730   0.70876   0.80221   0.00000  Uiso   1.00
H1466  H     0.78921   0.95799   0.69775   0.00000  Uiso   1.00
N1467  N     0.83333   0.95069   0.75000   0.00000  Uiso   1.00
N1468  N     0.83333   0.71598   0.75000   0.00000  Uiso   1.00
O1469  O     0.77321   0.87291   0.74999   0.00000  Uiso   1.00
O1470  O     0.89345   0.79375   0.75000   0.00000  Uiso   1.00
O1471  O     0.89345   0.87291   0.75000   0.00000  Uiso   1.00
O1472  O     0.77321   0.79375   0.74999   0.00000  Uiso   1.00
O1473  O     0.83332   0.87293   0.68513   0.00000  Uiso   1.00
O1474  O     0.83334   0.79373   0.81487   0.00000  Uiso   1.00
O1475  O     0.83334   0.87293   0.81487   0.00000  Uiso   1.00
O1476  O     0.83332   0.79373   0.68513   0.00000  Uiso   1.00
C1477  C     0.90344   0.78561   0.88488   0.00000  Uiso   1.00
C1478  C     0.90389   0.73499   0.90312   0.00000  Uiso   1.00
C1479  C     0.94013   0.70587   0.88590   0.00000  Uiso   1.00
H1480  H     0.93673   0.70019   0.84977   0.00000  Uiso   1.00
H1481  H     0.96963   0.72351   0.89296   0.00000  Uiso   1.00
H1482  H     0.94100   0.67106   0.90262   0.00000  Uiso   1.00
H1483  H     0.90579   0.73446   0.93985   0.00000  Uiso   1.00
H1484  H     0.87471   0.71798   0.89331   0.00000  Uiso   1.00
H1485  H     0.89841   0.78335   0.84879   0.00000  Uiso   1.00
H1486  H     0.93405   0.80175   0.88680   0.00000  Uiso   1.00
C1487  C     0.75493   0.84330   0.61725   0.00000  Uiso   1.00
C1488  C     0.72851   0.80245   0.60133   0.00000  Uiso   1.00
C1489  C     0.68766   0.80101   0.62566   0.00000  Uiso   1.00
H1490  H     0.69321   0.79399   0.66152   0.00000  Uiso   1.00
H1491  H     0.67034   0.83475   0.62133   0.00000  Uiso   1.00
H1492  H     0.66866   0.77248   0.61205   0.00000  Uiso   1.00
H1493  H     0.72184   0.80521   0.56524   0.00000  Uiso   1.00
H1494  H     0.74568   0.76885   0.60747   0.00000  Uiso   1.00
H1495  H     0.75915   0.83820   0.65343   0.00000  Uiso   1.00
H1496  H     0.73818   0.87742   0.61495   0.00000  Uiso   1.00
O1497  O     0.76595   0.86828   0.88315   0.00000  Uiso   1.00
H1498  H     0.76459   0.85493   0.85307   0.00000  Uiso   1.00
O1499  O     0.90739   0.81552   0.61705   0.00000  Uiso   1.00
H1500  H     0.90314   0.81083   0.64909   0.00000  Uiso   1.00
O1501  O     0.73027   0.89034   0.54041   0.00000  Uiso   1.00
H1502  H     0.70982   0.90136   0.51772   0.00000  Uiso   1.00
O1503  O     0.94720   0.81070   0.96010   0.00000  Uiso   1.00
H1504  H     0.96944   0.80663   0.98276   0.00000  Uiso   1.00
O1505  O     0.70881   0.77040   0.80598   0.00000  Uiso   1.00
H1506  H     0.73401   0.78509   0.81767   0.00000  Uiso   1.00
O1507  O     0.95784   0.89672   0.69321   0.00000  Uiso   1.00
H1508  H     0.93213   0.88257   0.68227   0.00000  Uiso   1.00
O1509  O     0.96092   0.76358   0.79623   0.00000  Uiso   1.00
H1510  H     0.94842   0.74264   0.77398   0.00000  Uiso   1.00
O1511  O     0.70617   0.90198   0.70095   0.00000  Uiso   1.00
H1512  H     0.71934   0.92336   0.72233   0.00000  Uiso   1.00
loop_
_geom_bond_atom_site_label_1
_geom_bond_atom_site_label_2
_geom_bond_distance
_geom_bond_site_symmetry_2
_ccdc_geom_bond_type
C1     O44     1.294   .     A
C1     O41     1.286   .     A
C1     C10     1.450   .     S
C2     O43     1.293   .     A
C2     O42     1.287   .     A
C2     C9      1.453   .     S
C3     C28     1.421   .     A
C3     O73     1.381   .     S
C3     C785    1.398   1_554 S
C4     O75     1.381   .     S
C4     C27     1.422   .     A
C4     C786    1.396   .     S
C5     C10     1.411   .     A
C5     O77     1.382   .     S
C5     C175    1.384   1_455 S
C6     C9      1.413   .     A
C6     O79     1.382   .     S
C6     C92     1.387   .     S
C7     O81     1.372   .     S
C7     C9      1.410   .     A
C7     C89     1.384   .     S
C8     O83     1.376   .     S
C8     C10     1.412   .     A
C8     C174    1.387   1_455 S
C11    N40     1.367   .     A
C11    H35     1.082   .     S
C11    C518    1.417   1_545 S
C12    H36     1.082   .     S
C12    N39     1.367   .     A
C12    C265    1.416   .     S
C13    N40     1.366   .     A
C13    H37     1.080   .     S
C13    C516    1.416   1_545 S
C14    N39     1.367   .     A
C14    H38     1.082   .     S
C14    C263    1.417   .     S
C15    O48     1.289   .     A
C15    C20     1.451   .     S
C15    O45     1.289   .     A
C16    O47     1.292   .     A
C16    O46     1.290   .     A
C16    C19     1.459   .     S
C17    C27     1.429   .     A
C17    C49     1.536   .     S
C17    C19     1.421   .     A
C18    C28     1.428   .     A
C18    C20     1.418   .     A
C18    C59     1.537   .     S
C19    C21     1.412   .     A
C20    C22     1.410   .     A
C21    O69     1.388   .     S
C21    C23     1.398   .     A
C22    C24     1.397   .     A
C22    O71     1.390   .     S
C23    C29     1.398   .     A
C23    C25     1.409   .     A
C24    C26     1.410   .     A
C24    C30     1.397   .     A
C25    C27     1.425   .     A
C25    C782    1.419   .     S
C26    C28     1.426   .     A
C26    C781    1.419   1_554 S
C29    H33     1.083   .     S
C29    C759    1.398   .     S
C30    H34     1.083   .     S
C30    C760    1.396   1_554 S
Cu31   O43     1.959   .     S
Cu31   O47     1.966   .     S
Cu31   Cu32    2.677   .     S
Cu31   O41     1.968   .     S
Cu31   N39     2.012   .     S
Cu31   O45     1.969   .     S
Cu32   O48     1.966   .     S
Cu32   O44     1.959   .     S
Cu32   O46     1.969   .     S
Cu32   N40     2.012   .     S
Cu32   O42     1.968   .     S
C49    H57     1.101   .     S
C49    H58     1.106   .     S
C49    C50     1.542   .     S
C50    H56     1.112   .     S
C50    C51     1.526   .     S
C50    H55     1.109   .     S
C51    H52     1.108   .     S
C51    H53     1.111   .     S
C51    H54     1.110   .     S
C59    H67     1.106   .     S
C59    C60     1.539   .     S
C59    H68     1.106   .     S
C60    H66     1.112   .     S
C60    C61     1.527   .     S
C60    H65     1.109   .     S
C61    H63     1.111   .     S
C61    H62     1.110   .     S
C61    H64     1.110   .     S
O69    H70     0.988   .     S
O71    H72     0.987   .     S
O73    H74     0.992   .     S
O75    H76     0.992   .     S
O77    H78     0.990   .     S
O79    H80     0.989   .     S
O81    H82     0.991   .     S
O83    H84     0.991   .     S
C85    O128    1.294   .     A
C85    O125    1.286   .     A
C85    C94     1.450   .     S
C86    O127    1.293   .     A
C86    O126    1.287   .     A
C86    C93     1.453   .     S
C87    C112    1.421   .     A
C87    O157    1.381   .     S
C87    C869    1.398   1_554 S
C88    O159    1.381   .     S
C88    C111    1.422   .     A
C88    C870    1.396   .     S
C89    C94     1.411   .     A
C89    O161    1.382   .     S
C90    C93     1.413   .     A
C90    O163    1.382   .     S
C90    C176    1.387   .     S
C91    O165    1.372   .     S
C91    C93     1.410   .     A
C91    C173    1.384   .     S
C92    O167    1.376   .     S
C92    C94     1.412   .     A
C95    N124    1.367   .     A
C95    H119    1.082   .     S
C95    C602    1.417   1_545 S
C96    H120    1.082   .     S
C96    N123    1.367   .     A
C96    C349    1.416   .     S
C97    N124    1.366   .     A
C97    H121    1.080   .     S
C97    C600    1.416   1_545 S
C98    N123    1.367   .     A
C98    H122    1.082   .     S
C98    C347    1.417   .     S
C99    O132    1.289   .     A
C99    C104    1.451   .     S
C99    O129    1.289   .     A
C100   O131    1.292   .     A
C100   O130    1.290   .     A
C100   C103    1.459   .     S
C101   C111    1.429   .     A
C101   C133    1.536   .     S
C101   C103    1.421   .     A
C102   C112    1.428   .     A
C102   C104    1.418   .     A
C102   C143    1.537   .     S
C103   C105    1.412   .     A
C104   C106    1.410   .     A
C105   O153    1.388   .     S
C105   C107    1.398   .     A
C106   C108    1.397   .     A
C106   O155    1.390   .     S
C107   C113    1.398   .     A
C107   C109    1.409   .     A
C108   C110    1.410   .     A
C108   C114    1.397   .     A
C109   C111    1.425   .     A
C109   C866    1.419   .     S
C110   C112    1.426   .     A
C110   C865    1.419   1_554 S
C113   H117    1.083   .     S
C113   C843    1.398   .     S
C114   H118    1.083   .     S
C114   C844    1.396   1_554 S
Cu115  O127    1.959   .     S
Cu115  O131    1.966   .     S
Cu115  Cu116   2.677   .     S
Cu115  O125    1.968   .     S
Cu115  N123    2.012   .     S
Cu115  O129    1.969   .     S
Cu116  O132    1.966   .     S
Cu116  O128    1.959   .     S
Cu116  O130    1.969   .     S
Cu116  N124    2.012   .     S
Cu116  O126    1.968   .     S
C133   H141    1.101   .     S
C133   H142    1.106   .     S
C133   C134    1.542   .     S
C134   H140    1.112   .     S
C134   C135    1.526   .     S
C134   H139    1.109   .     S
C135   H136    1.108   .     S
C135   H137    1.111   .     S
C135   H138    1.110   .     S
C143   H151    1.106   .     S
C143   C144    1.539   .     S
C143   H152    1.106   .     S
C144   H150    1.112   .     S
C144   C145    1.527   .     S
C144   H149    1.109   .     S
C145   H147    1.111   .     S
C145   H146    1.110   .     S
C145   H148    1.110   .     S
O153   H154    0.988   .     S
O155   H156    0.987   .     S
O157   H158    0.992   .     S
O159   H160    0.992   .     S
O161   H162    0.990   .     S
O163   H164    0.989   .     S
O165   H166    0.991   .     S
O167   H168    0.991   .     S
C169   O212    1.294   .     A
C169   O209    1.286   .     A
C169   C178    1.450   .     S
C170   O211    1.293   .     A
C170   O210    1.287   .     A
C170   C177    1.453   .     S
C171   C196    1.421   .     A
C171   O241    1.381   .     S
C171   C953    1.398   1_554 S
C172   O243    1.381   .     S
C172   C195    1.422   .     A
C172   C954    1.396   .     S
C173   C178    1.411   .     A
C173   O245    1.382   .     S
C174   C177    1.413   .     A
C174   O247    1.382   .     S
C174   C8      1.387   1_655 S
C175   O249    1.372   .     S
C175   C177    1.410   .     A
C175   C5      1.384   1_655 S
C176   O251    1.376   .     S
C176   C178    1.412   .     A
C179   N208    1.367   .     A
C179   H203    1.082   .     S
C179   C686    1.417   1_545 S
C180   H204    1.082   .     S
C180   N207    1.367   .     A
C180   C433    1.416   .     S
C181   N208    1.366   .     A
C181   H205    1.080   .     S
C181   C684    1.416   1_545 S
C182   N207    1.367   .     A
C182   H206    1.082   .     S
C182   C431    1.417   .     S
C183   O216    1.289   .     A
C183   C188    1.451   .     S
C183   O213    1.289   .     A
C184   O215    1.292   .     A
C184   O214    1.290   .     A
C184   C187    1.459   .     S
C185   C195    1.429   .     A
C185   C217    1.536   .     S
C185   C187    1.421   .     A
C186   C196    1.428   .     A
C186   C188    1.418   .     A
C186   C227    1.537   .     S
C187   C189    1.412   .     A
C188   C190    1.410   .     A
C189   O237    1.388   .     S
C189   C191    1.398   .     A
C190   C192    1.397   .     A
C190   O239    1.390   .     S
C191   C197    1.398   .     A
C191   C193    1.409   .     A
C192   C194    1.410   .     A
C192   C198    1.397   .     A
C193   C195    1.425   .     A
C193   C950    1.419   .     S
C194   C196    1.426   .     A
C194   C949    1.419   1_554 S
C197   H201    1.083   .     S
C197   C927    1.398   .     S
C198   H202    1.083   .     S
C198   C928    1.396   1_554 S
Cu199  O211    1.959   .     S
Cu199  O215    1.966   .     S
Cu199  Cu200   2.677   .     S
Cu199  O209    1.968   .     S
Cu199  N207    2.012   .     S
Cu199  O213    1.969   .     S
Cu200  O216    1.966   .     S
Cu200  O212    1.959   .     S
Cu200  O214    1.969   .     S
Cu200  N208    2.012   .     S
Cu200  O210    1.968   .     S
C217   H225    1.101   .     S
C217   H226    1.106   .     S
C217   C218    1.542   .     S
C218   H224    1.112   .     S
C218   C219    1.526   .     S
C218   H223    1.109   .     S
C219   H220    1.108   .     S
C219   H221    1.111   .     S
C219   H222    1.110   .     S
C227   H235    1.106   .     S
C227   C228    1.539   .     S
C227   H236    1.106   .     S
C228   H234    1.112   .     S
C228   C229    1.527   .     S
C228   H233    1.109   .     S
C229   H231    1.111   .     S
C229   H230    1.110   .     S
C229   H232    1.110   .     S
O237   H238    0.988   .     S
O239   H240    0.987   .     S
O241   H242    0.992   .     S
O243   H244    0.992   .     S
O245   H246    0.990   .     S
O247   H248    0.989   .     S
O249   H250    0.991   .     S
O251   H252    0.991   .     S
C253   O296    1.294   .     A
C253   O293    1.286   .     A
C253   C262    1.450   .     S
C254   O295    1.293   .     A
C254   O294    1.287   .     A
C254   C261    1.453   .     S
C255   C280    1.421   .     A
C255   O325    1.381   .     S
C255   C1037   1.398   1_554 S
C256   O327    1.381   .     S
C256   C279    1.422   .     A
C256   C1038   1.396   .     S
C257   C262    1.411   .     A
C257   O329    1.382   .     S
C257   C427    1.384   1_455 S
C258   C261    1.413   .     A
C258   O331    1.382   .     S
C258   C344    1.387   .     S
C259   O333    1.372   .     S
C259   C261    1.410   .     A
C259   C341    1.384   .     S
C260   O335    1.376   .     S
C260   C262    1.412   .     A
C260   C426    1.387   1_455 S
C263   N292    1.367   .     A
C263   H287    1.082   .     S
C264   H288    1.082   .     S
C264   N291    1.367   .     A
C264   C517    1.416   .     S
C265   N292    1.366   .     A
C265   H289    1.080   .     S
C266   N291    1.367   .     A
C266   H290    1.082   .     S
C266   C515    1.417   .     S
C267   O300    1.289   .     A
C267   C272    1.451   .     S
C267   O297    1.289   .     A
C268   O299    1.292   .     A
C268   O298    1.290   .     A
C268   C271    1.459   .     S
C269   C279    1.429   .     A
C269   C301    1.536   .     S
C269   C271    1.421   .     A
C270   C280    1.428   .     A
C270   C272    1.418   .     A
C270   C311    1.537   .     S
C271   C273    1.412   .     A
C272   C274    1.410   .     A
C273   O321    1.388   .     S
C273   C275    1.398   .     A
C274   C276    1.397   .     A
C274   O323    1.390   .     S
C275   C281    1.398   .     A
C275   C277    1.409   .     A
C276   C278    1.410   .     A
C276   C282    1.397   .     A
C277   C279    1.425   .     A
C277   C1034   1.419   .     S
C278   C280    1.426   .     A
C278   C1033   1.419   1_554 S
C281   H285    1.083   .     S
C281   C1011   1.398   .     S
C282   H286    1.083   .     S
C282   C1012   1.396   1_554 S
Cu283  O295    1.959   .     S
Cu283  O299    1.966   .     S
Cu283  Cu284   2.677   .     S
Cu283  O293    1.968   .     S
Cu283  N291    2.012   .     S
Cu283  O297    1.969   .     S
Cu284  O300    1.966   .     S
Cu284  O296    1.959   .     S
Cu284  O298    1.969   .     S
Cu284  N292    2.012   .     S
Cu284  O294    1.968   .     S
C301   H309    1.101   .     S
C301   H310    1.106   .     S
C301   C302    1.542   .     S
C302   H308    1.112   .     S
C302   C303    1.526   .     S
C302   H307    1.109   .     S
C303   H304    1.108   .     S
C303   H305    1.111   .     S
C303   H306    1.110   .     S
C311   H319    1.106   .     S
C311   C312    1.539   .     S
C311   H320    1.106   .     S
C312   H318    1.112   .     S
C312   C313    1.527   .     S
C312   H317    1.109   .     S
C313   H315    1.111   .     S
C313   H314    1.110   .     S
C313   H316    1.110   .     S
O321   H322    0.988   .     S
O323   H324    0.987   .     S
O325   H326    0.992   .     S
O327   H328    0.992   .     S
O329   H330    0.990   .     S
O331   H332    0.989   .     S
O333   H334    0.991   .     S
O335   H336    0.991   .     S
C337   O380    1.294   .     A
C337   O377    1.286   .     A
C337   C346    1.450   .     S
C338   O379    1.293   .     A
C338   O378    1.287   .     A
C338   C345    1.453   .     S
C339   C364    1.421   .     A
C339   O409    1.381   .     S
C339   C1121   1.398   1_554 S
C340   O411    1.381   .     S
C340   C363    1.422   .     A
C340   C1122   1.396   .     S
C341   C346    1.411   .     A
C341   O413    1.382   .     S
C342   C345    1.413   .     A
C342   O415    1.382   .     S
C342   C428    1.387   .     S
C343   O417    1.372   .     S
C343   C345    1.410   .     A
C343   C425    1.384   .     S
C344   O419    1.376   .     S
C344   C346    1.412   .     A
C347   N376    1.367   .     A
C347   H371    1.082   .     S
C348   H372    1.082   .     S
C348   N375    1.367   .     A
C348   C601    1.416   .     S
C349   N376    1.366   .     A
C349   H373    1.080   .     S
C350   N375    1.367   .     A
C350   H374    1.082   .     S
C350   C599    1.417   .     S
C351   O384    1.289   .     A
C351   C356    1.451   .     S
C351   O381    1.289   .     A
C352   O383    1.292   .     A
C352   O382    1.290   .     A
C352   C355    1.459   .     S
C353   C363    1.429   .     A
C353   C385    1.536   .     S
C353   C355    1.421   .     A
C354   C364    1.428   .     A
C354   C356    1.418   .     A
C354   C395    1.537   .     S
C355   C357    1.412   .     A
C356   C358    1.410   .     A
C357   O405    1.388   .     S
C357   C359    1.398   .     A
C358   C360    1.397   .     A
C358   O407    1.390   .     S
C359   C365    1.398   .     A
C359   C361    1.409   .     A
C360   C362    1.410   .     A
C360   C366    1.397   .     A
C361   C363    1.425   .     A
C361   C1118   1.419   .     S
C362   C364    1.426   .     A
C362   C1117   1.419   1_554 S
C365   H369    1.083   .     S
C365   C1095   1.398   .     S
C366   H370    1.083   .     S
C366   C1096   1.396   1_554 S
Cu367  O379    1.959   .     S
Cu367  O383    1.966   .     S
Cu367  Cu368   2.677   .     S
Cu367  O377    1.968   .     S
Cu367  N375    2.012   .     S
Cu367  O381    1.969   .     S
Cu368  O384    1.966   .     S
Cu368  O380    1.959   .     S
Cu368  O382    1.969   .     S
Cu368  N376    2.012   .     S
Cu368  O378    1.968   .     S
C385   H393    1.101   .     S
C385   H394    1.106   .     S
C385   C386    1.542   .     S
C386   H392    1.112   .     S
C386   C387    1.526   .     S
C386   H391    1.109   .     S
C387   H388    1.108   .     S
C387   H389    1.111   .     S
C387   H390    1.110   .     S
C395   H403    1.106   .     S
C395   C396    1.539   .     S
C395   H404    1.106   .     S
C396   H402    1.112   .     S
C396   C397    1.527   .     S
C396   H401    1.109   .     S
C397   H399    1.111   .     S
C397   H398    1.110   .     S
C397   H400    1.110   .     S
O405   H406    0.988   .     S
O407   H408    0.987   .     S
O409   H410    0.992   .     S
O411   H412    0.992   .     S
O413   H414    0.990   .     S
O415   H416    0.989   .     S
O417   H418    0.991   .     S
O419   H420    0.991   .     S
C421   O464    1.294   .     A
C421   O461    1.286   .     A
C421   C430    1.450   .     S
C422   O463    1.293   .     A
C422   O462    1.287   .     A
C422   C429    1.453   .     S
C423   C448    1.421   .     A
C423   O493    1.381   .     S
C423   C1205   1.398   1_554 S
C424   O495    1.381   .     S
C424   C447    1.422   .     A
C424   C1206   1.396   .     S
C425   C430    1.411   .     A
C425   O497    1.382   .     S
C426   C429    1.413   .     A
C426   O499    1.382   .     S
C426   C260    1.387   1_655 S
C427   O501    1.372   .     S
C427   C429    1.410   .     A
C427   C257    1.384   1_655 S
C428   O503    1.376   .     S
C428   C430    1.412   .     A
C431   N460    1.367   .     A
C431   H455    1.082   .     S
C432   H456    1.082   .     S
C432   N459    1.367   .     A
C432   C685    1.416   .     S
C433   N460    1.366   .     A
C433   H457    1.080   .     S
C434   N459    1.367   .     A
C434   H458    1.082   .     S
C434   C683    1.417   .     S
C435   O468    1.289   .     A
C435   C440    1.451   .     S
C435   O465    1.289   .     A
C436   O467    1.292   .     A
C436   O466    1.290   .     A
C436   C439    1.459   .     S
C437   C447    1.429   .     A
C437   C469    1.536   .     S
C437   C439    1.421   .     A
C438   C448    1.428   .     A
C438   C440    1.418   .     A
C438   C479    1.537   .     S
C439   C441    1.412   .     A
C440   C442    1.410   .     A
C441   O489    1.388   .     S
C441   C443    1.398   .     A
C442   C444    1.397   .     A
C442   O491    1.390   .     S
C443   C449    1.398   .     A
C443   C445    1.409   .     A
C444   C446    1.410   .     A
C444   C450    1.397   .     A
C445   C447    1.425   .     A
C445   C1202   1.419   .     S
C446   C448    1.426   .     A
C446   C1201   1.419   1_554 S
C449   H453    1.083   .     S
C449   C1179   1.398   .     S
C450   H454    1.083   .     S
C450   C1180   1.396   1_554 S
Cu451  O463    1.959   .     S
Cu451  O467    1.966   .     S
Cu451  Cu452   2.677   .     S
Cu451  O461    1.968   .     S
Cu451  N459    2.012   .     S
Cu451  O465    1.969   .     S
Cu452  O468    1.966   .     S
Cu452  O464    1.959   .     S
Cu452  O466    1.969   .     S
Cu452  N460    2.012   .     S
Cu452  O462    1.968   .     S
C469   H477    1.101   .     S
C469   H478    1.106   .     S
C469   C470    1.542   .     S
C470   H476    1.112   .     S
C470   C471    1.526   .     S
C470   H475    1.109   .     S
C471   H472    1.108   .     S
C471   H473    1.111   .     S
C471   H474    1.110   .     S
C479   H487    1.106   .     S
C479   C480    1.539   .     S
C479   H488    1.106   .     S
C480   H486    1.112   .     S
C480   C481    1.527   .     S
C480   H485    1.109   .     S
C481   H483    1.111   .     S
C481   H482    1.110   .     S
C481   H484    1.110   .     S
O489   H490    0.988   .     S
O491   H492    0.987   .     S
O493   H494    0.992   .     S
O495   H496    0.992   .     S
O497   H498    0.990   .     S
O499   H500    0.989   .     S
O501   H502    0.991   .     S
O503   H504    0.991   .     S
C505   O548    1.294   .     A
C505   O545    1.286   .     A
C505   C514    1.450   .     S
C506   O547    1.293   .     A
C506   O546    1.287   .     A
C506   C513    1.453   .     S
C507   C532    1.421   .     A
C507   O577    1.381   .     S
C507   C1289   1.398   1_554 S
C508   O579    1.381   .     S
C508   C531    1.422   .     A
C508   C1290   1.396   .     S
C509   C514    1.411   .     A
C509   O581    1.382   .     S
C509   C679    1.384   1_455 S
C510   C513    1.413   .     A
C510   O583    1.382   .     S
C510   C596    1.387   .     S
C511   O585    1.372   .     S
C511   C513    1.410   .     A
C511   C593    1.384   .     S
C512   O587    1.376   .     S
C512   C514    1.412   .     A
C512   C678    1.387   1_455 S
C515   N544    1.367   .     A
C515   H539    1.082   .     S
C516   H540    1.082   .     S
C516   N543    1.367   .     A
C516   C13     1.416   1_565 S
C517   N544    1.366   .     A
C517   H541    1.080   .     S
C518   N543    1.367   .     A
C518   H542    1.082   .     S
C518   C11     1.417   1_565 S
C519   O552    1.289   .     A
C519   C524    1.451   .     S
C519   O549    1.289   .     A
C520   O551    1.292   .     A
C520   O550    1.290   .     A
C520   C523    1.459   .     S
C521   C531    1.429   .     A
C521   C553    1.536   .     S
C521   C523    1.421   .     A
C522   C532    1.428   .     A
C522   C524    1.418   .     A
C522   C563    1.537   .     S
C523   C525    1.412   .     A
C524   C526    1.410   .     A
C525   O573    1.388   .     S
C525   C527    1.398   .     A
C526   C528    1.397   .     A
C526   O575    1.390   .     S
C527   C533    1.398   .     A
C527   C529    1.409   .     A
C528   C530    1.410   .     A
C528   C534    1.397   .     A
C529   C531    1.425   .     A
C529   C1286   1.419   .     S
C530   C532    1.426   .     A
C530   C1285   1.419   1_554 S
C533   H537    1.083   .     S
C533   C1263   1.398   .     S
C534   H538    1.083   .     S
C534   C1264   1.396   1_554 S
Cu535  O547    1.959   .     S
Cu535  O551    1.966   .     S
Cu535  Cu536   2.677   .     S
Cu535  O545    1.968   .     S
Cu535  N543    2.012   .     S
Cu535  O549    1.969   .     S
Cu536  O552    1.966   .     S
Cu536  O548    1.959   .     S
Cu536  O550    1.969   .     S
Cu536  N544    2.012   .     S
Cu536  O546    1.968   .     S
C553   H561    1.101   .     S
C553   H562    1.106   .     S
C553   C554    1.542   .     S
C554   H560    1.112   .     S
C554   C555    1.526   .     S
C554   H559    1.109   .     S
C555   H556    1.108   .     S
C555   H557    1.111   .     S
C555   H558    1.110   .     S
C563   H571    1.106   .     S
C563   C564    1.539   .     S
C563   H572    1.106   .     S
C564   H570    1.112   .     S
C564   C565    1.527   .     S
C564   H569    1.109   .     S
C565   H567    1.111   .     S
C565   H566    1.110   .     S
C565   H568    1.110   .     S
O573   H574    0.988   .     S
O575   H576    0.987   .     S
O577   H578    0.992   .     S
O579   H580    0.992   .     S
O581   H582    0.990   .     S
O583   H584    0.989   .     S
O585   H586    0.991   .     S
O587   H588    0.991   .     S
C589   O632    1.294   .     A
C589   O629    1.286   .     A
C589   C598    1.450   .     S
C590   O631    1.293   .     A
C590   O630    1.287   .     A
C590   C597    1.453   .     S
C591   C616    1.421   .     A
C591   O661    1.381   .     S
C591   C1373   1.398   1_554 S
C592   O663    1.381   .     S
C592   C615    1.422   .     A
C592   C1374   1.396   .     S
C593   C598    1.411   .     A
C593   O665    1.382   .     S
C594   C597    1.413   .     A
C594   O667    1.382   .     S
C594   C680    1.387   .     S
C595   O669    1.372   .     S
C595   C597    1.410   .     A
C595   C677    1.384   .     S
C596   O671    1.376   .     S
C596   C598    1.412   .     A
C599   N628    1.367   .     A
C599   H623    1.082   .     S
C600   H624    1.082   .     S
C600   N627    1.367   .     A
C600   C97     1.416   1_565 S
C601   N628    1.366   .     A
C601   H625    1.080   .     S
C602   N627    1.367   .     A
C602   H626    1.082   .     S
C602   C95     1.417   1_565 S
C603   O636    1.289   .     A
C603   C608    1.451   .     S
C603   O633    1.289   .     A
C604   O635    1.292   .     A
C604   O634    1.290   .     A
C604   C607    1.459   .     S
C605   C615    1.429   .     A
C605   C637    1.536   .     S
C605   C607    1.421   .     A
C606   C616    1.428   .     A
C606   C608    1.418   .     A
C606   C647    1.537   .     S
C607   C609    1.412   .     A
C608   C610    1.410   .     A
C609   O657    1.388   .     S
C609   C611    1.398   .     A
C610   C612    1.397   .     A
C610   O659    1.390   .     S
C611   C617    1.398   .     A
C611   C613    1.409   .     A
C612   C614    1.410   .     A
C612   C618    1.397   .     A
C613   C615    1.425   .     A
C613   C1370   1.419   .     S
C614   C616    1.426   .     A
C614   C1369   1.419   1_554 S
C617   H621    1.083   .     S
C617   C1347   1.398   .     S
C618   H622    1.083   .     S
C618   C1348   1.396   1_554 S
Cu619  O631    1.959   .     S
Cu619  O635    1.966   .     S
Cu619  Cu620   2.677   .     S
Cu619  O629    1.968   .     S
Cu619  N627    2.012   .     S
Cu619  O633    1.969   .     S
Cu620  O636    1.966   .     S
Cu620  O632    1.959   .     S
Cu620  O634    1.969   .     S
Cu620  N628    2.012   .     S
Cu620  O630    1.968   .     S
C637   H645    1.101   .     S
C637   H646    1.106   .     S
C637   C638    1.542   .     S
C638   H644    1.112   .     S
C638   C639    1.526   .     S
C638   H643    1.109   .     S
C639   H640    1.108   .     S
C639   H641    1.111   .     S
C639   H642    1.110   .     S
C647   H655    1.106   .     S
C647   C648    1.539   .     S
C647   H656    1.106   .     S
C648   H654    1.112   .     S
C648   C649    1.527   .     S
C648   H653    1.109   .     S
C649   H651    1.111   .     S
C649   H650    1.110   .     S
C649   H652    1.110   .     S
O657   H658    0.988   .     S
O659   H660    0.987   .     S
O661   H662    0.992   .     S
O663   H664    0.992   .     S
O665   H666    0.990   .     S
O667   H668    0.989   .     S
O669   H670    0.991   .     S
O671   H672    0.991   .     S
C673   O716    1.294   .     A
C673   O713    1.286   .     A
C673   C682    1.450   .     S
C674   O715    1.293   .     A
C674   O714    1.287   .     A
C674   C681    1.453   .     S
C675   C700    1.421   .     A
C675   O745    1.381   .     S
C675   C1457   1.398   1_554 S
C676   O747    1.381   .     S
C676   C699    1.422   .     A
C676   C1458   1.396   .     S
C677   C682    1.411   .     A
C677   O749    1.382   .     S
C678   C681    1.413   .     A
C678   O751    1.382   .     S
C678   C512    1.387   1_655 S
C679   O753    1.372   .     S
C679   C681    1.410   .     A
C679   C509    1.384   1_655 S
C680   O755    1.376   .     S
C680   C682    1.412   .     A
C683   N712    1.367   .     A
C683   H707    1.082   .     S
C684   H708    1.082   .     S
C684   N711    1.367   .     A
C684   C181    1.416   1_565 S
C685   N712    1.366   .     A
C685   H709    1.080   .     S
C686   N711    1.367   .     A
C686   H710    1.082   .     S
C686   C179    1.417   1_565 S
C687   O720    1.289   .     A
C687   C692    1.451   .     S
C687   O717    1.289   .     A
C688   O719    1.292   .     A
C688   O718    1.290   .     A
C688   C691    1.459   .     S
C689   C699    1.429   .     A
C689   C721    1.536   .     S
C689   C691    1.421   .     A
C690   C700    1.428   .     A
C690   C692    1.418   .     A
C690   C731    1.537   .     S
C691   C693    1.412   .     A
C692   C694    1.410   .     A
C693   O741    1.388   .     S
C693   C695    1.398   .     A
C694   C696    1.397   .     A
C694   O743    1.390   .     S
C695   C701    1.398   .     A
C695   C697    1.409   .     A
C696   C698    1.410   .     A
C696   C702    1.397   .     A
C697   C699    1.425   .     A
C697   C1454   1.419   .     S
C698   C700    1.426   .     A
C698   C1453   1.419   1_554 S
C701   H705    1.083   .     S
C701   C1431   1.398   .     S
C702   H706    1.083   .     S
C702   C1432   1.396   1_554 S
Cu703  O715    1.959   .     S
Cu703  O719    1.966   .     S
Cu703  Cu704   2.677   .     S
Cu703  O713    1.968   .     S
Cu703  N711    2.012   .     S
Cu703  O717    1.969   .     S
Cu704  O720    1.966   .     S
Cu704  O716    1.959   .     S
Cu704  O718    1.969   .     S
Cu704  N712    2.012   .     S
Cu704  O714    1.968   .     S
C721   H729    1.101   .     S
C721   H730    1.106   .     S
C721   C722    1.542   .     S
C722   H728    1.112   .     S
C722   C723    1.526   .     S
C722   H727    1.109   .     S
C723   H724    1.108   .     S
C723   H725    1.111   .     S
C723   H726    1.110   .     S
C731   H739    1.106   .     S
C731   C732    1.539   .     S
C731   H740    1.106   .     S
C732   H738    1.112   .     S
C732   C733    1.527   .     S
C732   H737    1.109   .     S
C733   H735    1.111   .     S
C733   H734    1.110   .     S
C733   H736    1.110   .     S
O741   H742    0.988   .     S
O743   H744    0.987   .     S
O745   H746    0.992   .     S
O747   H748    0.992   .     S
O749   H750    0.990   .     S
O751   H752    0.989   .     S
O753   H754    0.991   .     S
O755   H756    0.991   .     S
C757   O800    1.294   .     A
C757   O797    1.286   .     A
C757   C766    1.450   .     S
C758   O799    1.293   .     A
C758   O798    1.287   .     A
C758   C765    1.453   .     S
C759   C784    1.421   .     A
C759   O829    1.381   .     S
C760   O831    1.381   .     S
C760   C783    1.422   .     A
C760   C30     1.396   1_556 S
C761   C766    1.411   .     A
C761   O833    1.382   .     S
C761   C931    1.384   1_455 S
C762   C765    1.413   .     A
C762   O835    1.382   .     S
C762   C848    1.387   .     S
C763   O837    1.372   .     S
C763   C765    1.410   .     A
C763   C845    1.384   .     S
C764   O839    1.376   .     S
C764   C766    1.412   .     A
C764   C930    1.387   1_455 S
C767   N796    1.367   .     A
C767   H791    1.082   .     S
C767   C1274   1.417   1_545 S
C768   H792    1.082   .     S
C768   N795    1.367   .     A
C768   C1021   1.416   .     S
C769   N796    1.366   .     A
C769   H793    1.080   .     S
C769   C1272   1.416   1_545 S
C770   N795    1.367   .     A
C770   H794    1.082   .     S
C770   C1019   1.417   .     S
C771   O804    1.289   .     A
C771   C776    1.451   .     S
C771   O801    1.289   .     A
C772   O803    1.292   .     A
C772   O802    1.290   .     A
C772   C775    1.459   .     S
C773   C783    1.429   .     A
C773   C805    1.536   .     S
C773   C775    1.421   .     A
C774   C784    1.428   .     A
C774   C776    1.418   .     A
C774   C815    1.537   .     S
C775   C777    1.412   .     A
C776   C778    1.410   .     A
C777   O825    1.388   .     S
C777   C779    1.398   .     A
C778   C780    1.397   .     A
C778   O827    1.390   .     S
C779   C785    1.398   .     A
C779   C781    1.409   .     A
C780   C782    1.410   .     A
C780   C786    1.397   .     A
C781   C783    1.425   .     A
C781   C26     1.419   1_556 S
C782   C784    1.426   .     A
C785   H789    1.083   .     S
C785   C3      1.398   1_556 S
C786   H790    1.083   .     S
Cu787  O799    1.959   .     S
Cu787  O803    1.966   .     S
Cu787  Cu788   2.677   .     S
Cu787  O797    1.968   .     S
Cu787  N795    2.012   .     S
Cu787  O801    1.969   .     S
Cu788  O804    1.966   .     S
Cu788  O800    1.959   .     S
Cu788  O802    1.969   .     S
Cu788  N796    2.012   .     S
Cu788  O798    1.968   .     S
C805   H813    1.101   .     S
C805   H814    1.106   .     S
C805   C806    1.542   .     S
C806   H812    1.112   .     S
C806   C807    1.526   .     S
C806   H811    1.109   .     S
C807   H808    1.108   .     S
C807   H809    1.111   .     S
C807   H810    1.110   .     S
C815   H823    1.106   .     S
C815   C816    1.539   .     S
C815   H824    1.106   .     S
C816   H822    1.112   .     S
C816   C817    1.527   .     S
C816   H821    1.109   .     S
C817   H819    1.111   .     S
C817   H818    1.110   .     S
C817   H820    1.110   .     S
O825   H826    0.988   .     S
O827   H828    0.987   .     S
O829   H830    0.992   .     S
O831   H832    0.992   .     S
O833   H834    0.990   .     S
O835   H836    0.989   .     S
O837   H838    0.991   .     S
O839   H840    0.991   .     S
C841   O884    1.294   .     A
C841   O881    1.286   .     A
C841   C850    1.450   .     S
C842   O883    1.293   .     A
C842   O882    1.287   .     A
C842   C849    1.453   .     S
C843   C868    1.421   .     A
C843   O913    1.381   .     S
C844   O915    1.381   .     S
C844   C867    1.422   .     A
C844   C114    1.396   1_556 S
C845   C850    1.411   .     A
C845   O917    1.382   .     S
C846   C849    1.413   .     A
C846   O919    1.382   .     S
C846   C932    1.387   .     S
C847   O921    1.372   .     S
C847   C849    1.410   .     A
C847   C929    1.384   .     S
C848   O923    1.376   .     S
C848   C850    1.412   .     A
C851   N880    1.367   .     A
C851   H875    1.082   .     S
C851   C1358   1.417   1_545 S
C852   H876    1.082   .     S
C852   N879    1.367   .     A
C852   C1105   1.416   .     S
C853   N880    1.366   .     A
C853   H877    1.080   .     S
C853   C1356   1.416   1_545 S
C854   N879    1.367   .     A
C854   H878    1.082   .     S
C854   C1103   1.417   .     S
C855   O888    1.289   .     A
C855   C860    1.451   .     S
C855   O885    1.289   .     A
C856   O887    1.292   .     A
C856   O886    1.290   .     A
C856   C859    1.459   .     S
C857   C867    1.429   .     A
C857   C889    1.536   .     S
C857   C859    1.421   .     A
C858   C868    1.428   .     A
C858   C860    1.418   .     A
C858   C899    1.537   .     S
C859   C861    1.412   .     A
C860   C862    1.410   .     A
C861   O909    1.388   .     S
C861   C863    1.398   .     A
C862   C864    1.397   .     A
C862   O911    1.390   .     S
C863   C869    1.398   .     A
C863   C865    1.409   .     A
C864   C866    1.410   .     A
C864   C870    1.397   .     A
C865   C867    1.425   .     A
C865   C110    1.419   1_556 S
C866   C868    1.426   .     A
C869   H873    1.083   .     S
C869   C87     1.398   1_556 S
C870   H874    1.083   .     S
Cu871  O883    1.959   .     S
Cu871  O887    1.966   .     S
Cu871  Cu872   2.677   .     S
Cu871  O881    1.968   .     S
Cu871  N879    2.012   .     S
Cu871  O885    1.969   .     S
Cu872  O888    1.966   .     S
Cu872  O884    1.959   .     S
Cu872  O886    1.969   .     S
Cu872  N880    2.012   .     S
Cu872  O882    1.968   .     S
C889   H897    1.101   .     S
C889   H898    1.106   .     S
C889   C890    1.542   .     S
C890   H896    1.112   .     S
C890   C891    1.526   .     S
C890   H895    1.109   .     S
C891   H892    1.108   .     S
C891   H893    1.111   .     S
C891   H894    1.110   .     S
C899   H907    1.106   .     S
C899   C900    1.539   .     S
C899   H908    1.106   .     S
C900   H906    1.112   .     S
C900   C901    1.527   .     S
C900   H905    1.109   .     S
C901   H903    1.111   .     S
C901   H902    1.110   .     S
C901   H904    1.110   .     S
O909   H910    0.988   .     S
O911   H912    0.987   .     S
O913   H914    0.992   .     S
O915   H916    0.992   .     S
O917   H918    0.990   .     S
O919   H920    0.989   .     S
O921   H922    0.991   .     S
O923   H924    0.991   .     S
C925   O968    1.294   .     A
C925   O965    1.286   .     A
C925   C934    1.450   .     S
C926   O967    1.293   .     A
C926   O966    1.287   .     A
C926   C933    1.453   .     S
C927   C952    1.421   .     A
C927   O997    1.381   .     S
C928   O999    1.381   .     S
C928   C951    1.422   .     A
C928   C198    1.396   1_556 S
C929   C934    1.411   .     A
C929   O1001   1.382   .     S
C930   C933    1.413   .     A
C930   O1003   1.382   .     S
C930   C764    1.387   1_655 S
C931   O1005   1.372   .     S
C931   C933    1.410   .     A
C931   C761    1.384   1_655 S
C932   O1007   1.376   .     S
C932   C934    1.412   .     A
C935   N964    1.367   .     A
C935   H959    1.082   .     S
C935   C1442   1.417   1_545 S
C936   H960    1.082   .     S
C936   N963    1.367   .     A
C936   C1189   1.416   .     S
C937   N964    1.366   .     A
C937   H961    1.080   .     S
C937   C1440   1.416   1_545 S
C938   N963    1.367   .     A
C938   H962    1.082   .     S
C938   C1187   1.417   .     S
C939   O972    1.289   .     A
C939   C944    1.451   .     S
C939   O969    1.289   .     A
C940   O971    1.292   .     A
C940   O970    1.290   .     A
C940   C943    1.459   .     S
C941   C951    1.429   .     A
C941   C973    1.536   .     S
C941   C943    1.421   .     A
C942   C952    1.428   .     A
C942   C944    1.418   .     A
C942   C983    1.537   .     S
C943   C945    1.412   .     A
C944   C946    1.410   .     A
C945   O993    1.388   .     S
C945   C947    1.398   .     A
C946   C948    1.397   .     A
C946   O995    1.390   .     S
C947   C953    1.398   .     A
C947   C949    1.409   .     A
C948   C950    1.410   .     A
C948   C954    1.397   .     A
C949   C951    1.425   .     A
C949   C194    1.419   1_556 S
C950   C952    1.426   .     A
C953   H957    1.083   .     S
C953   C171    1.398   1_556 S
C954   H958    1.083   .     S
Cu955  O967    1.959   .     S
Cu955  O971    1.966   .     S
Cu955  Cu956   2.677   .     S
Cu955  O965    1.968   .     S
Cu955  N963    2.012   .     S
Cu955  O969    1.969   .     S
Cu956  O972    1.966   .     S
Cu956  O968    1.959   .     S
Cu956  O970    1.969   .     S
Cu956  N964    2.012   .     S
Cu956  O966    1.968   .     S
C973   H981    1.101   .     S
C973   H982    1.106   .     S
C973   C974    1.542   .     S
C974   H980    1.112   .     S
C974   C975    1.526   .     S
C974   H979    1.109   .     S
C975   H976    1.108   .     S
C975   H977    1.111   .     S
C975   H978    1.110   .     S
C983   H991    1.106   .     S
C983   C984    1.539   .     S
C983   H992    1.106   .     S
C984   H990    1.112   .     S
C984   C985    1.527   .     S
C984   H989    1.109   .     S
C985   H987    1.111   .     S
C985   H986    1.110   .     S
C985   H988    1.110   .     S
O993   H994    0.988   .     S
O995   H996    0.987   .     S
O997   H998    0.992   .     S
O999   H1000   0.992   .     S
O1001  H1002   0.990   .     S
O1003  H1004   0.989   .     S
O1005  H1006   0.991   .     S
O1007  H1008   0.991   .     S
C1009  O1052   1.294   .     A
C1009  O1049   1.286   .     A
C1009  C1018   1.450   .     S
C1010  O1051   1.293   .     A
C1010  O1050   1.287   .     A
C1010  C1017   1.453   .     S
C1011  C1036   1.421   .     A
C1011  O1081   1.381   .     S
C1012  O1083   1.381   .     S
C1012  C1035   1.422   .     A
C1012  C282    1.396   1_556 S
C1013  C1018   1.411   .     A
C1013  O1085   1.382   .     S
C1013  C1183   1.384   1_455 S
C1014  C1017   1.413   .     A
C1014  O1087   1.382   .     S
C1014  C1100   1.387   .     S
C1015  O1089   1.372   .     S
C1015  C1017   1.410   .     A
C1015  C1097   1.384   .     S
C1016  O1091   1.376   .     S
C1016  C1018   1.412   .     A
C1016  C1182   1.387   1_455 S
C1019  N1048   1.367   .     A
C1019  H1043   1.082   .     S
C1020  H1044   1.082   .     S
C1020  N1047   1.367   .     A
C1020  C1273   1.416   .     S
C1021  N1048   1.366   .     A
C1021  H1045   1.080   .     S
C1022  N1047   1.367   .     A
C1022  H1046   1.082   .     S
C1022  C1271   1.417   .     S
C1023  O1056   1.289   .     A
C1023  C1028   1.451   .     S
C1023  O1053   1.289   .     A
C1024  O1055   1.292   .     A
C1024  O1054   1.290   .     A
C1024  C1027   1.459   .     S
C1025  C1035   1.429   .     A
C1025  C1057   1.536   .     S
C1025  C1027   1.421   .     A
C1026  C1036   1.428   .     A
C1026  C1028   1.418   .     A
C1026  C1067   1.537   .     S
C1027  C1029   1.412   .     A
C1028  C1030   1.410   .     A
C1029  O1077   1.388   .     S
C1029  C1031   1.398   .     A
C1030  C1032   1.397   .     A
C1030  O1079   1.390   .     S
C1031  C1037   1.398   .     A
C1031  C1033   1.409   .     A
C1032  C1034   1.410   .     A
C1032  C1038   1.397   .     A
C1033  C1035   1.425   .     A
C1033  C278    1.419   1_556 S
C1034  C1036   1.426   .     A
C1037  H1041   1.083   .     S
C1037  C255    1.398   1_556 S
C1038  H1042   1.083   .     S
Cu1039 O1051   1.959   .     S
Cu1039 O1055   1.966   .     S
Cu1039 Cu1040  2.677   .     S
Cu1039 O1049   1.968   .     S
Cu1039 N1047   2.012   .     S
Cu1039 O1053   1.969   .     S
Cu1040 O1056   1.966   .     S
Cu1040 O1052   1.959   .     S
Cu1040 O1054   1.969   .     S
Cu1040 N1048   2.012   .     S
Cu1040 O1050   1.968   .     S
C1057  H1065   1.101   .     S
C1057  H1066   1.106   .     S
C1057  C1058   1.542   .     S
C1058  H1064   1.112   .     S
C1058  C1059   1.526   .     S
C1058  H1063   1.109   .     S
C1059  H1060   1.108   .     S
C1059  H1061   1.111   .     S
C1059  H1062   1.110   .     S
C1067  H1075   1.106   .     S
C1067  C1068   1.539   .     S
C1067  H1076   1.106   .     S
C1068  H1074   1.112   .     S
C1068  C1069   1.527   .     S
C1068  H1073   1.109   .     S
C1069  H1071   1.111   .     S
C1069  H1070   1.110   .     S
C1069  H1072   1.110   .     S
O1077  H1078   0.988   .     S
O1079  H1080   0.987   .     S
O1081  H1082   0.992   .     S
O1083  H1084   0.992   .     S
O1085  H1086   0.990   .     S
O1087  H1088   0.989   .     S
O1089  H1090   0.991   .     S
O1091  H1092   0.991   .     S
C1093  O1136   1.294   .     A
C1093  O1133   1.286   .     A
C1093  C1102   1.450   .     S
C1094  O1135   1.293   .     A
C1094  O1134   1.287   .     A
C1094  C1101   1.453   .     S
C1095  C1120   1.421   .     A
C1095  O1165   1.381   .     S
C1096  O1167   1.381   .     S
C1096  C1119   1.422   .     A
C1096  C366    1.396   1_556 S
C1097  C1102   1.411   .     A
C1097  O1169   1.382   .     S
C1098  C1101   1.413   .     A
C1098  O1171   1.382   .     S
C1098  C1184   1.387   .     S
C1099  O1173   1.372   .     S
C1099  C1101   1.410   .     A
C1099  C1181   1.384   .     S
C1100  O1175   1.376   .     S
C1100  C1102   1.412   .     A
C1103  N1132   1.367   .     A
C1103  H1127   1.082   .     S
C1104  H1128   1.082   .     S
C1104  N1131   1.367   .     A
C1104  C1357   1.416   .     S
C1105  N1132   1.366   .     A
C1105  H1129   1.080   .     S
C1106  N1131   1.367   .     A
C1106  H1130   1.082   .     S
C1106  C1355   1.417   .     S
C1107  O1140   1.289   .     A
C1107  C1112   1.451   .     S
C1107  O1137   1.289   .     A
C1108  O1139   1.292   .     A
C1108  O1138   1.290   .     A
C1108  C1111   1.459   .     S
C1109  C1119   1.429   .     A
C1109  C1141   1.536   .     S
C1109  C1111   1.421   .     A
C1110  C1120   1.428   .     A
C1110  C1112   1.418   .     A
C1110  C1151   1.537   .     S
C1111  C1113   1.412   .     A
C1112  C1114   1.410   .     A
C1113  O1161   1.388   .     S
C1113  C1115   1.398   .     A
C1114  C1116   1.397   .     A
C1114  O1163   1.390   .     S
C1115  C1121   1.398   .     A
C1115  C1117   1.409   .     A
C1116  C1118   1.410   .     A
C1116  C1122   1.397   .     A
C1117  C1119   1.425   .     A
C1117  C362    1.419   1_556 S
C1118  C1120   1.426   .     A
C1121  H1125   1.083   .     S
C1121  C339    1.398   1_556 S
C1122  H1126   1.083   .     S
Cu1123 O1135   1.959   .     S
Cu1123 O1139   1.966   .     S
Cu1123 Cu1124  2.677   .     S
Cu1123 O1133   1.968   .     S
Cu1123 N1131   2.012   .     S
Cu1123 O1137   1.969   .     S
Cu1124 O1140   1.966   .     S
Cu1124 O1136   1.959   .     S
Cu1124 O1138   1.969   .     S
Cu1124 N1132   2.012   .     S
Cu1124 O1134   1.968   .     S
C1141  H1149   1.101   .     S
C1141  H1150   1.106   .     S
C1141  C1142   1.542   .     S
C1142  H1148   1.112   .     S
C1142  C1143   1.526   .     S
C1142  H1147   1.109   .     S
C1143  H1144   1.108   .     S
C1143  H1145   1.111   .     S
C1143  H1146   1.110   .     S
C1151  H1159   1.106   .     S
C1151  C1152   1.539   .     S
C1151  H1160   1.106   .     S
C1152  H1158   1.112   .     S
C1152  C1153   1.527   .     S
C1152  H1157   1.109   .     S
C1153  H1155   1.111   .     S
C1153  H1154   1.110   .     S
C1153  H1156   1.110   .     S
O1161  H1162   0.988   .     S
O1163  H1164   0.987   .     S
O1165  H1166   0.992   .     S
O1167  H1168   0.992   .     S
O1169  H1170   0.990   .     S
O1171  H1172   0.989   .     S
O1173  H1174   0.991   .     S
O1175  H1176   0.991   .     S
C1177  O1220   1.294   .     A
C1177  O1217   1.286   .     A
C1177  C1186   1.450   .     S
C1178  O1219   1.293   .     A
C1178  O1218   1.287   .     A
C1178  C1185   1.453   .     S
C1179  C1204   1.421   .     A
C1179  O1249   1.381   .     S
C1180  O1251   1.381   .     S
C1180  C1203   1.422   .     A
C1180  C450    1.396   1_556 S
C1181  C1186   1.411   .     A
C1181  O1253   1.382   .     S
C1182  C1185   1.413   .     A
C1182  O1255   1.382   .     S
C1182  C1016   1.387   1_655 S
C1183  O1257   1.372   .     S
C1183  C1185   1.410   .     A
C1183  C1013   1.384   1_655 S
C1184  O1259   1.376   .     S
C1184  C1186   1.412   .     A
C1187  N1216   1.367   .     A
C1187  H1211   1.082   .     S
C1188  H1212   1.082   .     S
C1188  N1215   1.367   .     A
C1188  C1441   1.416   .     S
C1189  N1216   1.366   .     A
C1189  H1213   1.080   .     S
C1190  N1215   1.367   .     A
C1190  H1214   1.082   .     S
C1190  C1439   1.417   .     S
C1191  O1224   1.289   .     A
C1191  C1196   1.451   .     S
C1191  O1221   1.289   .     A
C1192  O1223   1.292   .     A
C1192  O1222   1.290   .     A
C1192  C1195   1.459   .     S
C1193  C1203   1.429   .     A
C1193  C1225   1.536   .     S
C1193  C1195   1.421   .     A
C1194  C1204   1.428   .     A
C1194  C1196   1.418   .     A
C1194  C1235   1.537   .     S
C1195  C1197   1.412   .     A
C1196  C1198   1.410   .     A
C1197  O1245   1.388   .     S
C1197  C1199   1.398   .     A
C1198  C1200   1.397   .     A
C1198  O1247   1.390   .     S
C1199  C1205   1.398   .     A
C1199  C1201   1.409   .     A
C1200  C1202   1.410   .     A
C1200  C1206   1.397   .     A
C1201  C1203   1.425   .     A
C1201  C446    1.419   1_556 S
C1202  C1204   1.426   .     A
C1205  H1209   1.083   .     S
C1205  C423    1.398   1_556 S
C1206  H1210   1.083   .     S
Cu1207 O1219   1.959   .     S
Cu1207 O1223   1.966   .     S
Cu1207 Cu1208  2.677   .     S
Cu1207 O1217   1.968   .     S
Cu1207 N1215   2.012   .     S
Cu1207 O1221   1.969   .     S
Cu1208 O1224   1.966   .     S
Cu1208 O1220   1.959   .     S
Cu1208 O1222   1.969   .     S
Cu1208 N1216   2.012   .     S
Cu1208 O1218   1.968   .     S
C1225  H1233   1.101   .     S
C1225  H1234   1.106   .     S
C1225  C1226   1.542   .     S
C1226  H1232   1.112   .     S
C1226  C1227   1.526   .     S
C1226  H1231   1.109   .     S
C1227  H1228   1.108   .     S
C1227  H1229   1.111   .     S
C1227  H1230   1.110   .     S
C1235  H1243   1.106   .     S
C1235  C1236   1.539   .     S
C1235  H1244   1.106   .     S
C1236  H1242   1.112   .     S
C1236  C1237   1.527   .     S
C1236  H1241   1.109   .     S
C1237  H1239   1.111   .     S
C1237  H1238   1.110   .     S
C1237  H1240   1.110   .     S
O1245  H1246   0.988   .     S
O1247  H1248   0.987   .     S
O1249  H1250   0.992   .     S
O1251  H1252   0.992   .     S
O1253  H1254   0.990   .     S
O1255  H1256   0.989   .     S
O1257  H1258   0.991   .     S
O1259  H1260   0.991   .     S
C1261  O1304   1.294   .     A
C1261  O1301   1.286   .     A
C1261  C1270   1.450   .     S
C1262  O1303   1.293   .     A
C1262  O1302   1.287   .     A
C1262  C1269   1.453   .     S
C1263  C1288   1.421   .     A
C1263  O1333   1.381   .     S
C1264  O1335   1.381   .     S
C1264  C1287   1.422   .     A
C1264  C534    1.396   1_556 S
C1265  C1270   1.411   .     A
C1265  O1337   1.382   .     S
C1265  C1435   1.384   1_455 S
C1266  C1269   1.413   .     A
C1266  O1339   1.382   .     S
C1266  C1352   1.387   .     S
C1267  O1341   1.372   .     S
C1267  C1269   1.410   .     A
C1267  C1349   1.384   .     S
C1268  O1343   1.376   .     S
C1268  C1270   1.412   .     A
C1268  C1434   1.387   1_455 S
C1271  N1300   1.367   .     A
C1271  H1295   1.082   .     S
C1272  H1296   1.082   .     S
C1272  N1299   1.367   .     A
C1272  C769    1.416   1_565 S
C1273  N1300   1.366   .     A
C1273  H1297   1.080   .     S
C1274  N1299   1.367   .     A
C1274  H1298   1.082   .     S
C1274  C767    1.417   1_565 S
C1275  O1308   1.289   .     A
C1275  C1280   1.451   .     S
C1275  O1305   1.289   .     A
C1276  O1307   1.292   .     A
C1276  O1306   1.290   .     A
C1276  C1279   1.459   .     S
C1277  C1287   1.429   .     A
C1277  C1309   1.536   .     S
C1277  C1279   1.421   .     A
C1278  C1288   1.428   .     A
C1278  C1280   1.418   .     A
C1278  C1319   1.537   .     S
C1279  C1281   1.412   .     A
C1280  C1282   1.410   .     A
C1281  O1329   1.388   .     S
C1281  C1283   1.398   .     A
C1282  C1284   1.397   .     A
C1282  O1331   1.390   .     S
C1283  C1289   1.398   .     A
C1283  C1285   1.409   .     A
C1284  C1286   1.410   .     A
C1284  C1290   1.397   .     A
C1285  C1287   1.425   .     A
C1285  C530    1.419   1_556 S
C1286  C1288   1.426   .     A
C1289  H1293   1.083   .     S
C1289  C507    1.398   1_556 S
C1290  H1294   1.083   .     S
Cu1291 O1303   1.959   .     S
Cu1291 O1307   1.966   .     S
Cu1291 Cu1292  2.677   .     S
Cu1291 O1301   1.968   .     S
Cu1291 N1299   2.012   .     S
Cu1291 O1305   1.969   .     S
Cu1292 O1308   1.966   .     S
Cu1292 O1304   1.959   .     S
Cu1292 O1306   1.969   .     S
Cu1292 N1300   2.012   .     S
Cu1292 O1302   1.968   .     S
C1309  H1317   1.101   .     S
C1309  H1318   1.106   .     S
C1309  C1310   1.542   .     S
C1310  H1316   1.112   .     S
C1310  C1311   1.526   .     S
C1310  H1315   1.109   .     S
C1311  H1312   1.108   .     S
C1311  H1313   1.111   .     S
C1311  H1314   1.110   .     S
C1319  H1327   1.106   .     S
C1319  C1320   1.539   .     S
C1319  H1328   1.106   .     S
C1320  H1326   1.112   .     S
C1320  C1321   1.527   .     S
C1320  H1325   1.109   .     S
C1321  H1323   1.111   .     S
C1321  H1322   1.110   .     S
C1321  H1324   1.110   .     S
O1329  H1330   0.988   .     S
O1331  H1332   0.987   .     S
O1333  H1334   0.992   .     S
O1335  H1336   0.992   .     S
O1337  H1338   0.990   .     S
O1339  H1340   0.989   .     S
O1341  H1342   0.991   .     S
O1343  H1344   0.991   .     S
C1345  O1388   1.294   .     A
C1345  O1385   1.286   .     A
C1345  C1354   1.450   .     S
C1346  O1387   1.293   .     A
C1346  O1386   1.287   .     A
C1346  C1353   1.453   .     S
C1347  C1372   1.421   .     A
C1347  O1417   1.381   .     S
C1348  O1419   1.381   .     S
C1348  C1371   1.422   .     A
C1348  C618    1.396   1_556 S
C1349  C1354   1.411   .     A
C1349  O1421   1.382   .     S
C1350  C1353   1.413   .     A
C1350  O1423   1.382   .     S
C1350  C1436   1.387   .     S
C1351  O1425   1.372   .     S
C1351  C1353   1.410   .     A
C1351  C1433   1.384   .     S
C1352  O1427   1.376   .     S
C1352  C1354   1.412   .     A
C1355  N1384   1.367   .     A
C1355  H1379   1.082   .     S
C1356  H1380   1.082   .     S
C1356  N1383   1.367   .     A
C1356  C853    1.416   1_565 S
C1357  N1384   1.366   .     A
C1357  H1381   1.080   .     S
C1358  N1383   1.367   .     A
C1358  H1382   1.082   .     S
C1358  C851    1.417   1_565 S
C1359  O1392   1.289   .     A
C1359  C1364   1.451   .     S
C1359  O1389   1.289   .     A
C1360  O1391   1.292   .     A
C1360  O1390   1.290   .     A
C1360  C1363   1.459   .     S
C1361  C1371   1.429   .     A
C1361  C1393   1.536   .     S
C1361  C1363   1.421   .     A
C1362  C1372   1.428   .     A
C1362  C1364   1.418   .     A
C1362  C1403   1.537   .     S
C1363  C1365   1.412   .     A
C1364  C1366   1.410   .     A
C1365  O1413   1.388   .     S
C1365  C1367   1.398   .     A
C1366  C1368   1.397   .     A
C1366  O1415   1.390   .     S
C1367  C1373   1.398   .     A
C1367  C1369   1.409   .     A
C1368  C1370   1.410   .     A
C1368  C1374   1.397   .     A
C1369  C1371   1.425   .     A
C1369  C614    1.419   1_556 S
C1370  C1372   1.426   .     A
C1373  H1377   1.083   .     S
C1373  C591    1.398   1_556 S
C1374  H1378   1.083   .     S
Cu1375 O1387   1.959   .     S
Cu1375 O1391   1.966   .     S
Cu1375 Cu1376  2.677   .     S
Cu1375 O1385   1.968   .     S
Cu1375 N1383   2.012   .     S
Cu1375 O1389   1.969   .     S
Cu1376 O1392   1.966   .     S
Cu1376 O1388   1.959   .     S
Cu1376 O1390   1.969   .     S
Cu1376 N1384   2.012   .     S
Cu1376 O1386   1.968   .     S
C1393  H1401   1.101   .     S
C1393  H1402   1.106   .     S
C1393  C1394   1.542   .     S
C1394  H1400   1.112   .     S
C1394  C1395   1.526   .     S
C1394  H1399   1.109   .     S
C1395  H1396   1.108   .     S
C1395  H1397   1.111   .     S
C1395  H1398   1.110   .     S
C1403  H1411   1.106   .     S
C1403  C1404   1.539   .     S
C1403  H1412   1.106   .     S
C1404  H1410   1.112   .     S
C1404  C1405   1.527   .     S
C1404  H1409   1.109   .     S
C1405  H1407   1.111   .     S
C1405  H1406   1.110   .     S
C1405  H1408   1.110   .     S
O1413  H1414   0.988   .     S
O1415  H1416   0.987   .     S
O1417  H1418   0.992   .     S
O1419  H1420   0.992   .     S
O1421  H1422   0.990   .     S
O1423  H1424   0.989   .     S
O1425  H1426   0.991   .     S
O1427  H1428   0.991   .     S
C1429  O1472   1.294   .     A
C1429  O1469   1.286   .     A
C1429  C1438   1.450   .     S
C1430  O1471   1.293   .     A
C1430  O1470   1.287   .     A
C1430  C1437   1.453   .     S
C1431  C1456   1.421   .     A
C1431  O1501   1.381   .     S
C1432  O1503   1.381   .     S
C1432  C1455   1.422   .     A
C1432  C702    1.396   1_556 S
C1433  C1438   1.411   .     A
C1433  O1505   1.382   .     S
C1434  C1437   1.413   .     A
C1434  O1507   1.382   .     S
C1434  C1268   1.387   1_655 S
C1435  O1509   1.372   .     S
C1435  C1437   1.410   .     A
C1435  C1265   1.384   1_655 S
C1436  O1511   1.376   .     S
C1436  C1438   1.412   .     A
C1439  N1468   1.367   .     A
C1439  H1463   1.082   .     S
C1440  H1464   1.082   .     S
C1440  N1467   1.367   .     A
C1440  C937    1.416   1_565 S
C1441  N1468   1.366   .     A
C1441  H1465   1.080   .     S
C1442  N1467   1.367   .     A
C1442  H1466   1.082   .     S
C1442  C935    1.417   1_565 S
C1443  O1476   1.289   .     A
C1443  C1448   1.451   .     S
C1443  O1473   1.289   .     A
C1444  O1475   1.292   .     A
C1444  O1474   1.290   .     A
C1444  C1447   1.459   .     S
C1445  C1455   1.429   .     A
C1445  C1477   1.536   .     S
C1445  C1447   1.421   .     A
C1446  C1456   1.428   .     A
C1446  C1448   1.418   .     A
C1446  C1487   1.537   .     S
C1447  C1449   1.412   .     A
C1448  C1450   1.410   .     A
C1449  O1497   1.388   .     S
C1449  C1451   1.398   .     A
C1450  C1452   1.397   .     A
C1450  O1499   1.390   .     S
C1451  C1457   1.398   .     A
C1451  C1453   1.409   .     A
C1452  C1454   1.410   .     A
C1452  C1458   1.397   .     A
C1453  C1455   1.425   .     A
C1453  C698    1.419   1_556 S
C1454  C1456   1.426   .     A
C1457  H1461   1.083   .     S
C1457  C675    1.398   1_556 S
C1458  H1462   1.083   .     S
Cu1459 O1471   1.959   .     S
Cu1459 O1475   1.966   .     S
Cu1459 Cu1460  2.677   .     S
Cu1459 O1469   1.968   .     S
Cu1459 N1467   2.012   .     S
Cu1459 O1473   1.969   .     S
Cu1460 O1476   1.966   .     S
Cu1460 O1472   1.959   .     S
Cu1460 O1474   1.969   .     S
Cu1460 N1468   2.012   .     S
Cu1460 O1470   1.968   .     S
C1477  H1485   1.101   .     S
C1477  H1486   1.106   .     S
C1477  C1478   1.542   .     S
C1478  H1484   1.112   .     S
C1478  C1479   1.526   .     S
C1478  H1483   1.109   .     S
C1479  H1480   1.108   .     S
C1479  H1481   1.111   .     S
C1479  H1482   1.110   .     S
C1487  H1495   1.106   .     S
C1487  C1488   1.539   .     S
C1487  H1496   1.106   .     S
C1488  H1494   1.112   .     S
C1488  C1489   1.527   .     S
C1488  H1493   1.109   .     S
C1489  H1491   1.111   .     S
C1489  H1490   1.110   .     S
C1489  H1492   1.110   .     S
O1497  H1498   0.988   .     S
O1499  H1500   0.987   .     S
O1501  H1502   0.992   .     S
O1503  H1504   0.992   .     S
O1505  H1506   0.990   .     S
O1507  H1508   0.989   .     S
O1509  H1510   0.991   .     S
O1511  H1512   0.991   .     S
