data_str_m2_o1_o17_pcu_sym.72
_audit_creation_date              2020-01-03
_audit_creation_method            'Materials Studio'
_symmetry_space_group_name_H-M    'P1'
_symmetry_Int_Tables_number       1
_symmetry_cell_setting            triclinic
loop_
_symmetry_equiv_pos_as_xyz
  x,y,z
_cell_length_a                    32.3589
_cell_length_b                    28.5706
_cell_length_c                    30.1351
_cell_angle_alpha                 90.0897
_cell_angle_beta                  89.6691
_cell_angle_gamma                 89.9379
loop_
_atom_site_label
_atom_site_type_symbol
_atom_site_fract_x
_atom_site_fract_y
_atom_site_fract_z
_atom_site_U_iso_or_equiv
_atom_site_adp_type
_atom_site_occupancy
O1     O     0.10655   0.20625   0.24999   0.00000  Uiso   1.00
O2     O     0.22679   0.12709   0.25000   0.00000  Uiso   1.00
O3     O     0.22679   0.20625   0.25000   0.00000  Uiso   1.00
O4     O     0.10655   0.12709   0.24999   0.00000  Uiso   1.00
C5     C     0.08746   0.16670   0.25004   0.00000  Uiso   1.00
C6     C     0.24588   0.16663   0.24996   0.00000  Uiso   1.00
O7     O     0.16666   0.20627   0.18513   0.00000  Uiso   1.00
O8     O     0.16668   0.12707   0.31487   0.00000  Uiso   1.00
O9     O     0.16668   0.20627   0.31487   0.00000  Uiso   1.00
O10    O     0.16666   0.12707   0.18513   0.00000  Uiso   1.00
C11    C     0.16477   0.16662   0.16447   0.00000  Uiso   1.00
C12    C     0.16857   0.16671   0.33552   0.00000  Uiso   1.00
Cu13   Cu    0.16667   0.21355   0.25000   0.00000  Uiso   1.00
Cu14   Cu    0.16667   0.11978   0.25000   0.00000  Uiso   1.00
C15    C     0.19692   0.13557   0.40731   0.00000  Uiso   1.00
C16    C     0.13642   0.19776   0.09269   0.00000  Uiso   1.00
C17    C     0.17116   0.16702   0.38383   0.00000  Uiso   1.00
C18    C     0.16218   0.16632   0.11617   0.00000  Uiso   1.00
C19    C     0.14652   0.19941   0.40653   0.00000  Uiso   1.00
C20    C     0.18681   0.13393   0.09347   0.00000  Uiso   1.00
C21    C     0.14478   0.19960   0.45252   0.00000  Uiso   1.00
C22    C     0.18855   0.13374   0.04748   0.00000  Uiso   1.00
C23    C     0.16801   0.16675   0.47664   0.00000  Uiso   1.00
C24    C     0.16533   0.16658   0.02336   0.00000  Uiso   1.00
C25    C     0.19404   0.13433   0.45420   0.00000  Uiso   1.00
C26    C     0.13929   0.19901   0.04580   0.00000  Uiso   1.00
C27    C     0.11953   0.23191   0.47459   0.00000  Uiso   1.00
C28    C     0.21381   0.10143   0.02541   0.00000  Uiso   1.00
C29    C     0.11681   0.23175   0.02062   0.00000  Uiso   1.00
C30    C     0.21653   0.10159   0.47938   0.00000  Uiso   1.00
H31    H     0.12790   0.22417   0.38812   0.00000  Uiso   1.00
H32    H     0.20543   0.10916   0.11188   0.00000  Uiso   1.00
H33    H     0.10169   0.25740   0.45616   0.00000  Uiso   1.00
H34    H     0.23164   0.07594   0.04384   0.00000  Uiso   1.00
H35    H     0.09716   0.25782   0.03603   0.00000  Uiso   1.00
H36    H     0.23617   0.07551   0.46397   0.00000  Uiso   1.00
C37    C     0.02182   0.14497   0.21490   0.00000  Uiso   1.00
C38    C     0.31151   0.18837   0.28510   0.00000  Uiso   1.00
C39    C     0.31204   0.14479   0.21498   0.00000  Uiso   1.00
C40    C     0.02129   0.18854   0.28502   0.00000  Uiso   1.00
C41    C     0.29048   0.16656   0.25003   0.00000  Uiso   1.00
C42    C     0.04285   0.16678   0.24997   0.00000  Uiso   1.00
C43    C     0.14070   0.02478   0.22295   0.00000  Uiso   1.00
C44    C     0.19263   0.30855   0.27705   0.00000  Uiso   1.00
C45    C     0.19266   0.02481   0.27702   0.00000  Uiso   1.00
C46    C     0.14067   0.30853   0.22298   0.00000  Uiso   1.00
H47    H     0.11992   0.04343   0.20125   0.00000  Uiso   1.00
H48    H     0.21341   0.28990   0.29875   0.00000  Uiso   1.00
H49    H     0.21353   0.04347   0.29861   0.00000  Uiso   1.00
H50    H     0.11980   0.28986   0.20139   0.00000  Uiso   1.00
N51    N     0.16667   0.28402   0.25000   0.00000  Uiso   1.00
N52    N     0.16667   0.04931   0.25000   0.00000  Uiso   1.00
C53    C     0.22881   0.10565   0.38330   0.00000  Uiso   1.00
H54    H     0.25947   0.11000   0.39912   0.00000  Uiso   1.00
H55    H     0.21951   0.06828   0.38462   0.00000  Uiso   1.00
H56    H     0.23370   0.11581   0.34825   0.00000  Uiso   1.00
C57    C     0.10453   0.22769   0.11670   0.00000  Uiso   1.00
H58    H     0.07386   0.22334   0.10087   0.00000  Uiso   1.00
H59    H     0.09963   0.21753   0.15175   0.00000  Uiso   1.00
H60    H     0.11383   0.26506   0.11538   0.00000  Uiso   1.00
Br61   Br    0.05191   0.11739   0.16577   0.00000  Uiso   1.00
Br62   Br    0.28142   0.21594   0.33423   0.00000  Uiso   1.00
Br63   Br    0.28273   0.11657   0.16616   0.00000  Uiso   1.00
Br64   Br    0.05060   0.21677   0.33384   0.00000  Uiso   1.00
O65    O     0.43988   0.20625   0.24999   0.00000  Uiso   1.00
O66    O     0.56012   0.12709   0.25000   0.00000  Uiso   1.00
O67    O     0.56012   0.20625   0.25000   0.00000  Uiso   1.00
O68    O     0.43988   0.12709   0.24999   0.00000  Uiso   1.00
C69    C     0.42079   0.16670   0.25004   0.00000  Uiso   1.00
C70    C     0.57921   0.16663   0.24996   0.00000  Uiso   1.00
O71    O     0.49999   0.20627   0.18513   0.00000  Uiso   1.00
O72    O     0.50001   0.12707   0.31487   0.00000  Uiso   1.00
O73    O     0.50001   0.20627   0.31487   0.00000  Uiso   1.00
O74    O     0.49999   0.12707   0.18513   0.00000  Uiso   1.00
C75    C     0.49810   0.16662   0.16447   0.00000  Uiso   1.00
C76    C     0.50190   0.16671   0.33552   0.00000  Uiso   1.00
Cu77   Cu    0.50000   0.21355   0.25000   0.00000  Uiso   1.00
Cu78   Cu    0.50000   0.11978   0.25000   0.00000  Uiso   1.00
C79    C     0.53025   0.13557   0.40731   0.00000  Uiso   1.00
C80    C     0.46975   0.19776   0.09269   0.00000  Uiso   1.00
C81    C     0.50449   0.16702   0.38383   0.00000  Uiso   1.00
C82    C     0.49551   0.16632   0.11617   0.00000  Uiso   1.00
C83    C     0.47985   0.19941   0.40653   0.00000  Uiso   1.00
C84    C     0.52015   0.13393   0.09347   0.00000  Uiso   1.00
C85    C     0.47811   0.19960   0.45252   0.00000  Uiso   1.00
C86    C     0.52189   0.13374   0.04748   0.00000  Uiso   1.00
C87    C     0.50134   0.16675   0.47664   0.00000  Uiso   1.00
C88    C     0.49866   0.16658   0.02336   0.00000  Uiso   1.00
C89    C     0.52738   0.13433   0.45420   0.00000  Uiso   1.00
C90    C     0.47263   0.19901   0.04580   0.00000  Uiso   1.00
C91    C     0.45286   0.23191   0.47459   0.00000  Uiso   1.00
C92    C     0.54714   0.10143   0.02541   0.00000  Uiso   1.00
C93    C     0.45014   0.23175   0.02062   0.00000  Uiso   1.00
C94    C     0.54986   0.10159   0.47938   0.00000  Uiso   1.00
H95    H     0.46123   0.22417   0.38812   0.00000  Uiso   1.00
H96    H     0.53877   0.10916   0.11188   0.00000  Uiso   1.00
H97    H     0.43503   0.25740   0.45616   0.00000  Uiso   1.00
H98    H     0.56497   0.07594   0.04384   0.00000  Uiso   1.00
H99    H     0.43050   0.25782   0.03603   0.00000  Uiso   1.00
H100   H     0.56950   0.07551   0.46397   0.00000  Uiso   1.00
C101   C     0.35516   0.14497   0.21490   0.00000  Uiso   1.00
C102   C     0.64484   0.18837   0.28510   0.00000  Uiso   1.00
C103   C     0.64538   0.14479   0.21498   0.00000  Uiso   1.00
C104   C     0.35462   0.18854   0.28502   0.00000  Uiso   1.00
C105   C     0.62382   0.16656   0.25003   0.00000  Uiso   1.00
C106   C     0.37618   0.16678   0.24997   0.00000  Uiso   1.00
C107   C     0.47403   0.02478   0.22295   0.00000  Uiso   1.00
C108   C     0.52597   0.30855   0.27705   0.00000  Uiso   1.00
C109   C     0.52599   0.02481   0.27702   0.00000  Uiso   1.00
C110   C     0.47401   0.30853   0.22298   0.00000  Uiso   1.00
H111   H     0.45325   0.04343   0.20125   0.00000  Uiso   1.00
H112   H     0.54675   0.28990   0.29875   0.00000  Uiso   1.00
H113   H     0.54687   0.04347   0.29861   0.00000  Uiso   1.00
H114   H     0.45313   0.28986   0.20139   0.00000  Uiso   1.00
N115   N     0.50000   0.28402   0.25000   0.00000  Uiso   1.00
N116   N     0.50000   0.04931   0.25000   0.00000  Uiso   1.00
C117   C     0.56214   0.10565   0.38330   0.00000  Uiso   1.00
H118   H     0.59281   0.11000   0.39912   0.00000  Uiso   1.00
H119   H     0.55284   0.06828   0.38462   0.00000  Uiso   1.00
H120   H     0.56703   0.11581   0.34825   0.00000  Uiso   1.00
C121   C     0.43786   0.22769   0.11670   0.00000  Uiso   1.00
H122   H     0.40719   0.22334   0.10087   0.00000  Uiso   1.00
H123   H     0.43297   0.21753   0.15175   0.00000  Uiso   1.00
H124   H     0.44716   0.26506   0.11538   0.00000  Uiso   1.00
Br125  Br    0.38525   0.11739   0.16577   0.00000  Uiso   1.00
Br126  Br    0.61475   0.21594   0.33423   0.00000  Uiso   1.00
Br127  Br    0.61606   0.11657   0.16616   0.00000  Uiso   1.00
Br128  Br    0.38394   0.21677   0.33384   0.00000  Uiso   1.00
O129   O     0.77321   0.20625   0.24999   0.00000  Uiso   1.00
O130   O     0.89345   0.12709   0.25000   0.00000  Uiso   1.00
O131   O     0.89345   0.20625   0.25000   0.00000  Uiso   1.00
O132   O     0.77321   0.12709   0.24999   0.00000  Uiso   1.00
C133   C     0.75412   0.16670   0.25004   0.00000  Uiso   1.00
C134   C     0.91254   0.16663   0.24996   0.00000  Uiso   1.00
O135   O     0.83332   0.20627   0.18513   0.00000  Uiso   1.00
O136   O     0.83334   0.12707   0.31487   0.00000  Uiso   1.00
O137   O     0.83334   0.20627   0.31487   0.00000  Uiso   1.00
O138   O     0.83332   0.12707   0.18513   0.00000  Uiso   1.00
C139   C     0.83143   0.16662   0.16447   0.00000  Uiso   1.00
C140   C     0.83523   0.16671   0.33552   0.00000  Uiso   1.00
Cu141  Cu    0.83333   0.21355   0.25000   0.00000  Uiso   1.00
Cu142  Cu    0.83333   0.11978   0.25000   0.00000  Uiso   1.00
C143   C     0.86358   0.13557   0.40731   0.00000  Uiso   1.00
C144   C     0.80309   0.19776   0.09269   0.00000  Uiso   1.00
C145   C     0.83782   0.16702   0.38383   0.00000  Uiso   1.00
C146   C     0.82884   0.16632   0.11617   0.00000  Uiso   1.00
C147   C     0.81319   0.19941   0.40653   0.00000  Uiso   1.00
C148   C     0.85348   0.13393   0.09347   0.00000  Uiso   1.00
C149   C     0.81145   0.19960   0.45252   0.00000  Uiso   1.00
C150   C     0.85522   0.13374   0.04748   0.00000  Uiso   1.00
C151   C     0.83467   0.16675   0.47664   0.00000  Uiso   1.00
C152   C     0.83200   0.16658   0.02336   0.00000  Uiso   1.00
C153   C     0.86071   0.13433   0.45420   0.00000  Uiso   1.00
C154   C     0.80596   0.19901   0.04580   0.00000  Uiso   1.00
C155   C     0.78619   0.23191   0.47459   0.00000  Uiso   1.00
C156   C     0.88048   0.10143   0.02541   0.00000  Uiso   1.00
C157   C     0.78347   0.23175   0.02062   0.00000  Uiso   1.00
C158   C     0.88319   0.10159   0.47938   0.00000  Uiso   1.00
H159   H     0.79457   0.22417   0.38812   0.00000  Uiso   1.00
H160   H     0.87210   0.10916   0.11188   0.00000  Uiso   1.00
H161   H     0.76836   0.25740   0.45616   0.00000  Uiso   1.00
H162   H     0.89831   0.07594   0.04384   0.00000  Uiso   1.00
H163   H     0.76383   0.25782   0.03603   0.00000  Uiso   1.00
H164   H     0.90284   0.07551   0.46397   0.00000  Uiso   1.00
C165   C     0.68849   0.14497   0.21490   0.00000  Uiso   1.00
C166   C     0.97818   0.18837   0.28510   0.00000  Uiso   1.00
C167   C     0.97871   0.14479   0.21498   0.00000  Uiso   1.00
C168   C     0.68796   0.18854   0.28502   0.00000  Uiso   1.00
C169   C     0.95715   0.16656   0.25003   0.00000  Uiso   1.00
C170   C     0.70952   0.16678   0.24997   0.00000  Uiso   1.00
C171   C     0.80737   0.02478   0.22295   0.00000  Uiso   1.00
C172   C     0.85930   0.30855   0.27705   0.00000  Uiso   1.00
C173   C     0.85933   0.02481   0.27702   0.00000  Uiso   1.00
C174   C     0.80734   0.30853   0.22298   0.00000  Uiso   1.00
H175   H     0.78659   0.04343   0.20125   0.00000  Uiso   1.00
H176   H     0.88008   0.28990   0.29875   0.00000  Uiso   1.00
H177   H     0.88020   0.04347   0.29861   0.00000  Uiso   1.00
H178   H     0.78647   0.28986   0.20139   0.00000  Uiso   1.00
N179   N     0.83333   0.28402   0.25000   0.00000  Uiso   1.00
N180   N     0.83333   0.04931   0.25000   0.00000  Uiso   1.00
C181   C     0.89547   0.10565   0.38330   0.00000  Uiso   1.00
H182   H     0.92614   0.11000   0.39912   0.00000  Uiso   1.00
H183   H     0.88617   0.06828   0.38462   0.00000  Uiso   1.00
H184   H     0.90037   0.11581   0.34825   0.00000  Uiso   1.00
C185   C     0.77120   0.22769   0.11670   0.00000  Uiso   1.00
H186   H     0.74053   0.22334   0.10087   0.00000  Uiso   1.00
H187   H     0.76630   0.21753   0.15175   0.00000  Uiso   1.00
H188   H     0.78050   0.26506   0.11538   0.00000  Uiso   1.00
Br189  Br    0.71858   0.11739   0.16577   0.00000  Uiso   1.00
Br190  Br    0.94809   0.21594   0.33423   0.00000  Uiso   1.00
Br191  Br    0.94940   0.11657   0.16616   0.00000  Uiso   1.00
Br192  Br    0.71727   0.21677   0.33384   0.00000  Uiso   1.00
O193   O     0.10655   0.53958   0.24999   0.00000  Uiso   1.00
O194   O     0.22679   0.46042   0.25000   0.00000  Uiso   1.00
O195   O     0.22679   0.53958   0.25000   0.00000  Uiso   1.00
O196   O     0.10655   0.46042   0.24999   0.00000  Uiso   1.00
C197   C     0.08746   0.50003   0.25004   0.00000  Uiso   1.00
C198   C     0.24588   0.49997   0.24996   0.00000  Uiso   1.00
O199   O     0.16666   0.53960   0.18513   0.00000  Uiso   1.00
O200   O     0.16668   0.46040   0.31487   0.00000  Uiso   1.00
O201   O     0.16668   0.53960   0.31487   0.00000  Uiso   1.00
O202   O     0.16666   0.46040   0.18513   0.00000  Uiso   1.00
C203   C     0.16477   0.49996   0.16447   0.00000  Uiso   1.00
C204   C     0.16857   0.50004   0.33552   0.00000  Uiso   1.00
Cu205  Cu    0.16667   0.54689   0.25000   0.00000  Uiso   1.00
Cu206  Cu    0.16667   0.45311   0.25000   0.00000  Uiso   1.00
C207   C     0.19692   0.46891   0.40731   0.00000  Uiso   1.00
C208   C     0.13642   0.53109   0.09269   0.00000  Uiso   1.00
C209   C     0.17116   0.50035   0.38383   0.00000  Uiso   1.00
C210   C     0.16218   0.49965   0.11617   0.00000  Uiso   1.00
C211   C     0.14652   0.53274   0.40653   0.00000  Uiso   1.00
C212   C     0.18681   0.46726   0.09347   0.00000  Uiso   1.00
C213   C     0.14478   0.53293   0.45252   0.00000  Uiso   1.00
C214   C     0.18855   0.46707   0.04748   0.00000  Uiso   1.00
C215   C     0.16801   0.50009   0.47664   0.00000  Uiso   1.00
C216   C     0.16533   0.49992   0.02336   0.00000  Uiso   1.00
C217   C     0.19404   0.46766   0.45420   0.00000  Uiso   1.00
C218   C     0.13929   0.53234   0.04580   0.00000  Uiso   1.00
C219   C     0.11953   0.56524   0.47459   0.00000  Uiso   1.00
C220   C     0.21381   0.43476   0.02541   0.00000  Uiso   1.00
C221   C     0.11681   0.56508   0.02062   0.00000  Uiso   1.00
C222   C     0.21653   0.43492   0.47938   0.00000  Uiso   1.00
H223   H     0.12790   0.55750   0.38812   0.00000  Uiso   1.00
H224   H     0.20543   0.44250   0.11188   0.00000  Uiso   1.00
H225   H     0.10169   0.59073   0.45616   0.00000  Uiso   1.00
H226   H     0.23164   0.40927   0.04384   0.00000  Uiso   1.00
H227   H     0.09716   0.59116   0.03603   0.00000  Uiso   1.00
H228   H     0.23617   0.40885   0.46397   0.00000  Uiso   1.00
C229   C     0.02182   0.47830   0.21490   0.00000  Uiso   1.00
C230   C     0.31151   0.52170   0.28510   0.00000  Uiso   1.00
C231   C     0.31204   0.47812   0.21498   0.00000  Uiso   1.00
C232   C     0.02129   0.52188   0.28502   0.00000  Uiso   1.00
C233   C     0.29048   0.49989   0.25003   0.00000  Uiso   1.00
C234   C     0.04285   0.50011   0.24997   0.00000  Uiso   1.00
C235   C     0.14070   0.35812   0.22295   0.00000  Uiso   1.00
C236   C     0.19263   0.64188   0.27705   0.00000  Uiso   1.00
C237   C     0.19266   0.35814   0.27702   0.00000  Uiso   1.00
C238   C     0.14067   0.64186   0.22298   0.00000  Uiso   1.00
H239   H     0.11992   0.37677   0.20125   0.00000  Uiso   1.00
H240   H     0.21341   0.62323   0.29875   0.00000  Uiso   1.00
H241   H     0.21353   0.37680   0.29861   0.00000  Uiso   1.00
H242   H     0.11980   0.62320   0.20139   0.00000  Uiso   1.00
N243   N     0.16667   0.61736   0.25000   0.00000  Uiso   1.00
N244   N     0.16667   0.38264   0.25000   0.00000  Uiso   1.00
C245   C     0.22881   0.43898   0.38330   0.00000  Uiso   1.00
H246   H     0.25947   0.44333   0.39912   0.00000  Uiso   1.00
H247   H     0.21951   0.40161   0.38462   0.00000  Uiso   1.00
H248   H     0.23370   0.44914   0.34825   0.00000  Uiso   1.00
C249   C     0.10453   0.56102   0.11670   0.00000  Uiso   1.00
H250   H     0.07386   0.55667   0.10087   0.00000  Uiso   1.00
H251   H     0.09963   0.55086   0.15175   0.00000  Uiso   1.00
H252   H     0.11383   0.59839   0.11538   0.00000  Uiso   1.00
Br253  Br    0.05191   0.45072   0.16577   0.00000  Uiso   1.00
Br254  Br    0.28142   0.54928   0.33423   0.00000  Uiso   1.00
Br255  Br    0.28273   0.44990   0.16616   0.00000  Uiso   1.00
Br256  Br    0.05060   0.55010   0.33384   0.00000  Uiso   1.00
O257   O     0.43988   0.53958   0.24999   0.00000  Uiso   1.00
O258   O     0.56012   0.46042   0.25000   0.00000  Uiso   1.00
O259   O     0.56012   0.53958   0.25000   0.00000  Uiso   1.00
O260   O     0.43988   0.46042   0.24999   0.00000  Uiso   1.00
C261   C     0.42079   0.50003   0.25004   0.00000  Uiso   1.00
C262   C     0.57921   0.49997   0.24996   0.00000  Uiso   1.00
O263   O     0.49999   0.53960   0.18513   0.00000  Uiso   1.00
O264   O     0.50001   0.46040   0.31487   0.00000  Uiso   1.00
O265   O     0.50001   0.53960   0.31487   0.00000  Uiso   1.00
O266   O     0.49999   0.46040   0.18513   0.00000  Uiso   1.00
C267   C     0.49810   0.49996   0.16447   0.00000  Uiso   1.00
C268   C     0.50190   0.50004   0.33552   0.00000  Uiso   1.00
Cu269  Cu    0.50000   0.54689   0.25000   0.00000  Uiso   1.00
Cu270  Cu    0.50000   0.45311   0.25000   0.00000  Uiso   1.00
C271   C     0.53025   0.46891   0.40731   0.00000  Uiso   1.00
C272   C     0.46975   0.53109   0.09269   0.00000  Uiso   1.00
C273   C     0.50449   0.50035   0.38383   0.00000  Uiso   1.00
C274   C     0.49551   0.49965   0.11617   0.00000  Uiso   1.00
C275   C     0.47985   0.53274   0.40653   0.00000  Uiso   1.00
C276   C     0.52015   0.46726   0.09347   0.00000  Uiso   1.00
C277   C     0.47811   0.53293   0.45252   0.00000  Uiso   1.00
C278   C     0.52189   0.46707   0.04748   0.00000  Uiso   1.00
C279   C     0.50134   0.50009   0.47664   0.00000  Uiso   1.00
C280   C     0.49866   0.49992   0.02336   0.00000  Uiso   1.00
C281   C     0.52738   0.46766   0.45420   0.00000  Uiso   1.00
C282   C     0.47263   0.53234   0.04580   0.00000  Uiso   1.00
C283   C     0.45286   0.56524   0.47459   0.00000  Uiso   1.00
C284   C     0.54714   0.43476   0.02541   0.00000  Uiso   1.00
C285   C     0.45014   0.56508   0.02062   0.00000  Uiso   1.00
C286   C     0.54986   0.43492   0.47938   0.00000  Uiso   1.00
H287   H     0.46123   0.55750   0.38812   0.00000  Uiso   1.00
H288   H     0.53877   0.44250   0.11188   0.00000  Uiso   1.00
H289   H     0.43503   0.59073   0.45616   0.00000  Uiso   1.00
H290   H     0.56497   0.40927   0.04384   0.00000  Uiso   1.00
H291   H     0.43050   0.59116   0.03603   0.00000  Uiso   1.00
H292   H     0.56950   0.40885   0.46397   0.00000  Uiso   1.00
C293   C     0.35516   0.47830   0.21490   0.00000  Uiso   1.00
C294   C     0.64484   0.52170   0.28510   0.00000  Uiso   1.00
C295   C     0.64538   0.47812   0.21498   0.00000  Uiso   1.00
C296   C     0.35462   0.52188   0.28502   0.00000  Uiso   1.00
C297   C     0.62382   0.49989   0.25003   0.00000  Uiso   1.00
C298   C     0.37618   0.50011   0.24997   0.00000  Uiso   1.00
C299   C     0.47403   0.35812   0.22295   0.00000  Uiso   1.00
C300   C     0.52597   0.64188   0.27705   0.00000  Uiso   1.00
C301   C     0.52599   0.35814   0.27702   0.00000  Uiso   1.00
C302   C     0.47401   0.64186   0.22298   0.00000  Uiso   1.00
H303   H     0.45325   0.37677   0.20125   0.00000  Uiso   1.00
H304   H     0.54675   0.62323   0.29875   0.00000  Uiso   1.00
H305   H     0.54687   0.37680   0.29861   0.00000  Uiso   1.00
H306   H     0.45313   0.62320   0.20139   0.00000  Uiso   1.00
N307   N     0.50000   0.61736   0.25000   0.00000  Uiso   1.00
N308   N     0.50000   0.38264   0.25000   0.00000  Uiso   1.00
C309   C     0.56214   0.43898   0.38330   0.00000  Uiso   1.00
H310   H     0.59281   0.44333   0.39912   0.00000  Uiso   1.00
H311   H     0.55284   0.40161   0.38462   0.00000  Uiso   1.00
H312   H     0.56703   0.44914   0.34825   0.00000  Uiso   1.00
C313   C     0.43786   0.56102   0.11670   0.00000  Uiso   1.00
H314   H     0.40719   0.55667   0.10087   0.00000  Uiso   1.00
H315   H     0.43297   0.55086   0.15175   0.00000  Uiso   1.00
H316   H     0.44716   0.59839   0.11538   0.00000  Uiso   1.00
Br317  Br    0.38525   0.45072   0.16577   0.00000  Uiso   1.00
Br318  Br    0.61475   0.54928   0.33423   0.00000  Uiso   1.00
Br319  Br    0.61606   0.44990   0.16616   0.00000  Uiso   1.00
Br320  Br    0.38394   0.55010   0.33384   0.00000  Uiso   1.00
O321   O     0.77321   0.53958   0.24999   0.00000  Uiso   1.00
O322   O     0.89345   0.46042   0.25000   0.00000  Uiso   1.00
O323   O     0.89345   0.53958   0.25000   0.00000  Uiso   1.00
O324   O     0.77321   0.46042   0.24999   0.00000  Uiso   1.00
C325   C     0.75412   0.50003   0.25004   0.00000  Uiso   1.00
C326   C     0.91254   0.49997   0.24996   0.00000  Uiso   1.00
O327   O     0.83332   0.53960   0.18513   0.00000  Uiso   1.00
O328   O     0.83334   0.46040   0.31487   0.00000  Uiso   1.00
O329   O     0.83334   0.53960   0.31487   0.00000  Uiso   1.00
O330   O     0.83332   0.46040   0.18513   0.00000  Uiso   1.00
C331   C     0.83143   0.49996   0.16447   0.00000  Uiso   1.00
C332   C     0.83523   0.50004   0.33552   0.00000  Uiso   1.00
Cu333  Cu    0.83333   0.54689   0.25000   0.00000  Uiso   1.00
Cu334  Cu    0.83333   0.45311   0.25000   0.00000  Uiso   1.00
C335   C     0.86358   0.46891   0.40731   0.00000  Uiso   1.00
C336   C     0.80309   0.53109   0.09269   0.00000  Uiso   1.00
C337   C     0.83782   0.50035   0.38383   0.00000  Uiso   1.00
C338   C     0.82884   0.49965   0.11617   0.00000  Uiso   1.00
C339   C     0.81319   0.53274   0.40653   0.00000  Uiso   1.00
C340   C     0.85348   0.46726   0.09347   0.00000  Uiso   1.00
C341   C     0.81145   0.53293   0.45252   0.00000  Uiso   1.00
C342   C     0.85522   0.46707   0.04748   0.00000  Uiso   1.00
C343   C     0.83467   0.50009   0.47664   0.00000  Uiso   1.00
C344   C     0.83200   0.49992   0.02336   0.00000  Uiso   1.00
C345   C     0.86071   0.46766   0.45420   0.00000  Uiso   1.00
C346   C     0.80596   0.53234   0.04580   0.00000  Uiso   1.00
C347   C     0.78619   0.56524   0.47459   0.00000  Uiso   1.00
C348   C     0.88048   0.43476   0.02541   0.00000  Uiso   1.00
C349   C     0.78347   0.56508   0.02062   0.00000  Uiso   1.00
C350   C     0.88319   0.43492   0.47938   0.00000  Uiso   1.00
H351   H     0.79457   0.55750   0.38812   0.00000  Uiso   1.00
H352   H     0.87210   0.44250   0.11188   0.00000  Uiso   1.00
H353   H     0.76836   0.59073   0.45616   0.00000  Uiso   1.00
H354   H     0.89831   0.40927   0.04384   0.00000  Uiso   1.00
H355   H     0.76383   0.59116   0.03603   0.00000  Uiso   1.00
H356   H     0.90284   0.40885   0.46397   0.00000  Uiso   1.00
C357   C     0.68849   0.47830   0.21490   0.00000  Uiso   1.00
C358   C     0.97818   0.52170   0.28510   0.00000  Uiso   1.00
C359   C     0.97871   0.47812   0.21498   0.00000  Uiso   1.00
C360   C     0.68796   0.52188   0.28502   0.00000  Uiso   1.00
C361   C     0.95715   0.49989   0.25003   0.00000  Uiso   1.00
C362   C     0.70952   0.50011   0.24997   0.00000  Uiso   1.00
C363   C     0.80737   0.35812   0.22295   0.00000  Uiso   1.00
C364   C     0.85930   0.64188   0.27705   0.00000  Uiso   1.00
C365   C     0.85933   0.35814   0.27702   0.00000  Uiso   1.00
C366   C     0.80734   0.64186   0.22298   0.00000  Uiso   1.00
H367   H     0.78659   0.37677   0.20125   0.00000  Uiso   1.00
H368   H     0.88008   0.62323   0.29875   0.00000  Uiso   1.00
H369   H     0.88020   0.37680   0.29861   0.00000  Uiso   1.00
H370   H     0.78647   0.62320   0.20139   0.00000  Uiso   1.00
N371   N     0.83333   0.61736   0.25000   0.00000  Uiso   1.00
N372   N     0.83333   0.38264   0.25000   0.00000  Uiso   1.00
C373   C     0.89547   0.43898   0.38330   0.00000  Uiso   1.00
H374   H     0.92614   0.44333   0.39912   0.00000  Uiso   1.00
H375   H     0.88617   0.40161   0.38462   0.00000  Uiso   1.00
H376   H     0.90037   0.44914   0.34825   0.00000  Uiso   1.00
C377   C     0.77120   0.56102   0.11670   0.00000  Uiso   1.00
H378   H     0.74053   0.55667   0.10087   0.00000  Uiso   1.00
H379   H     0.76630   0.55086   0.15175   0.00000  Uiso   1.00
H380   H     0.78050   0.59839   0.11538   0.00000  Uiso   1.00
Br381  Br    0.71858   0.45072   0.16577   0.00000  Uiso   1.00
Br382  Br    0.94809   0.54928   0.33423   0.00000  Uiso   1.00
Br383  Br    0.94940   0.44990   0.16616   0.00000  Uiso   1.00
Br384  Br    0.71727   0.55010   0.33384   0.00000  Uiso   1.00
O385   O     0.10655   0.87291   0.24999   0.00000  Uiso   1.00
O386   O     0.22679   0.79375   0.25000   0.00000  Uiso   1.00
O387   O     0.22679   0.87291   0.25000   0.00000  Uiso   1.00
O388   O     0.10655   0.79375   0.24999   0.00000  Uiso   1.00
C389   C     0.08746   0.83337   0.25004   0.00000  Uiso   1.00
C390   C     0.24588   0.83330   0.24996   0.00000  Uiso   1.00
O391   O     0.16666   0.87293   0.18513   0.00000  Uiso   1.00
O392   O     0.16668   0.79373   0.31487   0.00000  Uiso   1.00
O393   O     0.16668   0.87293   0.31487   0.00000  Uiso   1.00
O394   O     0.16666   0.79373   0.18513   0.00000  Uiso   1.00
C395   C     0.16477   0.83329   0.16447   0.00000  Uiso   1.00
C396   C     0.16857   0.83338   0.33552   0.00000  Uiso   1.00
Cu397  Cu    0.16667   0.88022   0.25000   0.00000  Uiso   1.00
Cu398  Cu    0.16667   0.78645   0.25000   0.00000  Uiso   1.00
C399   C     0.19692   0.80224   0.40731   0.00000  Uiso   1.00
C400   C     0.13642   0.86443   0.09269   0.00000  Uiso   1.00
C401   C     0.17116   0.83368   0.38383   0.00000  Uiso   1.00
C402   C     0.16218   0.83298   0.11617   0.00000  Uiso   1.00
C403   C     0.14652   0.86607   0.40653   0.00000  Uiso   1.00
C404   C     0.18681   0.80059   0.09347   0.00000  Uiso   1.00
C405   C     0.14478   0.86627   0.45252   0.00000  Uiso   1.00
C406   C     0.18855   0.80040   0.04748   0.00000  Uiso   1.00
C407   C     0.16801   0.83342   0.47664   0.00000  Uiso   1.00
C408   C     0.16533   0.83325   0.02336   0.00000  Uiso   1.00
C409   C     0.19404   0.80099   0.45420   0.00000  Uiso   1.00
C410   C     0.13929   0.86568   0.04580   0.00000  Uiso   1.00
C411   C     0.11953   0.89858   0.47459   0.00000  Uiso   1.00
C412   C     0.21381   0.76809   0.02541   0.00000  Uiso   1.00
C413   C     0.11681   0.89841   0.02062   0.00000  Uiso   1.00
C414   C     0.21653   0.76826   0.47938   0.00000  Uiso   1.00
H415   H     0.12790   0.89084   0.38812   0.00000  Uiso   1.00
H416   H     0.20543   0.77583   0.11188   0.00000  Uiso   1.00
H417   H     0.10169   0.92406   0.45616   0.00000  Uiso   1.00
H418   H     0.23164   0.74260   0.04384   0.00000  Uiso   1.00
H419   H     0.09716   0.92449   0.03603   0.00000  Uiso   1.00
H420   H     0.23617   0.74218   0.46397   0.00000  Uiso   1.00
C421   C     0.02182   0.81163   0.21490   0.00000  Uiso   1.00
C422   C     0.31151   0.85503   0.28510   0.00000  Uiso   1.00
C423   C     0.31204   0.81146   0.21498   0.00000  Uiso   1.00
C424   C     0.02129   0.85521   0.28502   0.00000  Uiso   1.00
C425   C     0.29048   0.83322   0.25003   0.00000  Uiso   1.00
C426   C     0.04285   0.83344   0.24997   0.00000  Uiso   1.00
C427   C     0.14070   0.69145   0.22295   0.00000  Uiso   1.00
C428   C     0.19263   0.97522   0.27705   0.00000  Uiso   1.00
C429   C     0.19266   0.69147   0.27702   0.00000  Uiso   1.00
C430   C     0.14067   0.97519   0.22298   0.00000  Uiso   1.00
H431   H     0.11992   0.71010   0.20125   0.00000  Uiso   1.00
H432   H     0.21341   0.95657   0.29875   0.00000  Uiso   1.00
H433   H     0.21353   0.71014   0.29861   0.00000  Uiso   1.00
H434   H     0.11980   0.95653   0.20139   0.00000  Uiso   1.00
N435   N     0.16667   0.95069   0.25000   0.00000  Uiso   1.00
N436   N     0.16667   0.71598   0.25000   0.00000  Uiso   1.00
C437   C     0.22881   0.77232   0.38330   0.00000  Uiso   1.00
H438   H     0.25947   0.77666   0.39912   0.00000  Uiso   1.00
H439   H     0.21951   0.73495   0.38462   0.00000  Uiso   1.00
H440   H     0.23370   0.78247   0.34825   0.00000  Uiso   1.00
C441   C     0.10453   0.89435   0.11670   0.00000  Uiso   1.00
H442   H     0.07386   0.89001   0.10087   0.00000  Uiso   1.00
H443   H     0.09963   0.88419   0.15175   0.00000  Uiso   1.00
H444   H     0.11383   0.93172   0.11538   0.00000  Uiso   1.00
Br445  Br    0.05191   0.78406   0.16577   0.00000  Uiso   1.00
Br446  Br    0.28142   0.88261   0.33423   0.00000  Uiso   1.00
Br447  Br    0.28273   0.78323   0.16616   0.00000  Uiso   1.00
Br448  Br    0.05060   0.88343   0.33384   0.00000  Uiso   1.00
O449   O     0.43988   0.87291   0.24999   0.00000  Uiso   1.00
O450   O     0.56012   0.79375   0.25000   0.00000  Uiso   1.00
O451   O     0.56012   0.87291   0.25000   0.00000  Uiso   1.00
O452   O     0.43988   0.79375   0.24999   0.00000  Uiso   1.00
C453   C     0.42079   0.83337   0.25004   0.00000  Uiso   1.00
C454   C     0.57921   0.83330   0.24996   0.00000  Uiso   1.00
O455   O     0.49999   0.87293   0.18513   0.00000  Uiso   1.00
O456   O     0.50001   0.79373   0.31487   0.00000  Uiso   1.00
O457   O     0.50001   0.87293   0.31487   0.00000  Uiso   1.00
O458   O     0.49999   0.79373   0.18513   0.00000  Uiso   1.00
C459   C     0.49810   0.83329   0.16447   0.00000  Uiso   1.00
C460   C     0.50190   0.83338   0.33552   0.00000  Uiso   1.00
Cu461  Cu    0.50000   0.88022   0.25000   0.00000  Uiso   1.00
Cu462  Cu    0.50000   0.78645   0.25000   0.00000  Uiso   1.00
C463   C     0.53025   0.80224   0.40731   0.00000  Uiso   1.00
C464   C     0.46975   0.86443   0.09269   0.00000  Uiso   1.00
C465   C     0.50449   0.83368   0.38383   0.00000  Uiso   1.00
C466   C     0.49551   0.83298   0.11617   0.00000  Uiso   1.00
C467   C     0.47985   0.86607   0.40653   0.00000  Uiso   1.00
C468   C     0.52015   0.80059   0.09347   0.00000  Uiso   1.00
C469   C     0.47811   0.86627   0.45252   0.00000  Uiso   1.00
C470   C     0.52189   0.80040   0.04748   0.00000  Uiso   1.00
C471   C     0.50134   0.83342   0.47664   0.00000  Uiso   1.00
C472   C     0.49866   0.83325   0.02336   0.00000  Uiso   1.00
C473   C     0.52738   0.80099   0.45420   0.00000  Uiso   1.00
C474   C     0.47263   0.86568   0.04580   0.00000  Uiso   1.00
C475   C     0.45286   0.89858   0.47459   0.00000  Uiso   1.00
C476   C     0.54714   0.76809   0.02541   0.00000  Uiso   1.00
C477   C     0.45014   0.89841   0.02062   0.00000  Uiso   1.00
C478   C     0.54986   0.76826   0.47938   0.00000  Uiso   1.00
H479   H     0.46123   0.89084   0.38812   0.00000  Uiso   1.00
H480   H     0.53877   0.77583   0.11188   0.00000  Uiso   1.00
H481   H     0.43503   0.92406   0.45616   0.00000  Uiso   1.00
H482   H     0.56497   0.74260   0.04384   0.00000  Uiso   1.00
H483   H     0.43050   0.92449   0.03603   0.00000  Uiso   1.00
H484   H     0.56950   0.74218   0.46397   0.00000  Uiso   1.00
C485   C     0.35516   0.81163   0.21490   0.00000  Uiso   1.00
C486   C     0.64484   0.85503   0.28510   0.00000  Uiso   1.00
C487   C     0.64538   0.81146   0.21498   0.00000  Uiso   1.00
C488   C     0.35462   0.85521   0.28502   0.00000  Uiso   1.00
C489   C     0.62382   0.83322   0.25003   0.00000  Uiso   1.00
C490   C     0.37618   0.83344   0.24997   0.00000  Uiso   1.00
C491   C     0.47403   0.69145   0.22295   0.00000  Uiso   1.00
C492   C     0.52597   0.97522   0.27705   0.00000  Uiso   1.00
C493   C     0.52599   0.69147   0.27702   0.00000  Uiso   1.00
C494   C     0.47401   0.97519   0.22298   0.00000  Uiso   1.00
H495   H     0.45325   0.71010   0.20125   0.00000  Uiso   1.00
H496   H     0.54675   0.95657   0.29875   0.00000  Uiso   1.00
H497   H     0.54687   0.71014   0.29861   0.00000  Uiso   1.00
H498   H     0.45313   0.95653   0.20139   0.00000  Uiso   1.00
N499   N     0.50000   0.95069   0.25000   0.00000  Uiso   1.00
N500   N     0.50000   0.71598   0.25000   0.00000  Uiso   1.00
C501   C     0.56214   0.77232   0.38330   0.00000  Uiso   1.00
H502   H     0.59281   0.77666   0.39912   0.00000  Uiso   1.00
H503   H     0.55284   0.73495   0.38462   0.00000  Uiso   1.00
H504   H     0.56703   0.78247   0.34825   0.00000  Uiso   1.00
C505   C     0.43786   0.89435   0.11670   0.00000  Uiso   1.00
H506   H     0.40719   0.89001   0.10087   0.00000  Uiso   1.00
H507   H     0.43297   0.88419   0.15175   0.00000  Uiso   1.00
H508   H     0.44716   0.93172   0.11538   0.00000  Uiso   1.00
Br509  Br    0.38525   0.78406   0.16577   0.00000  Uiso   1.00
Br510  Br    0.61475   0.88261   0.33423   0.00000  Uiso   1.00
Br511  Br    0.61606   0.78323   0.16616   0.00000  Uiso   1.00
Br512  Br    0.38394   0.88343   0.33384   0.00000  Uiso   1.00
O513   O     0.77321   0.87291   0.24999   0.00000  Uiso   1.00
O514   O     0.89345   0.79375   0.25000   0.00000  Uiso   1.00
O515   O     0.89345   0.87291   0.25000   0.00000  Uiso   1.00
O516   O     0.77321   0.79375   0.24999   0.00000  Uiso   1.00
C517   C     0.75412   0.83337   0.25004   0.00000  Uiso   1.00
C518   C     0.91254   0.83330   0.24996   0.00000  Uiso   1.00
O519   O     0.83332   0.87293   0.18513   0.00000  Uiso   1.00
O520   O     0.83334   0.79373   0.31487   0.00000  Uiso   1.00
O521   O     0.83334   0.87293   0.31487   0.00000  Uiso   1.00
O522   O     0.83332   0.79373   0.18513   0.00000  Uiso   1.00
C523   C     0.83143   0.83329   0.16447   0.00000  Uiso   1.00
C524   C     0.83523   0.83338   0.33552   0.00000  Uiso   1.00
Cu525  Cu    0.83333   0.88022   0.25000   0.00000  Uiso   1.00
Cu526  Cu    0.83333   0.78645   0.25000   0.00000  Uiso   1.00
C527   C     0.86358   0.80224   0.40731   0.00000  Uiso   1.00
C528   C     0.80309   0.86443   0.09269   0.00000  Uiso   1.00
C529   C     0.83782   0.83368   0.38383   0.00000  Uiso   1.00
C530   C     0.82884   0.83298   0.11617   0.00000  Uiso   1.00
C531   C     0.81319   0.86607   0.40653   0.00000  Uiso   1.00
C532   C     0.85348   0.80059   0.09347   0.00000  Uiso   1.00
C533   C     0.81145   0.86627   0.45252   0.00000  Uiso   1.00
C534   C     0.85522   0.80040   0.04748   0.00000  Uiso   1.00
C535   C     0.83467   0.83342   0.47664   0.00000  Uiso   1.00
C536   C     0.83200   0.83325   0.02336   0.00000  Uiso   1.00
C537   C     0.86071   0.80099   0.45420   0.00000  Uiso   1.00
C538   C     0.80596   0.86568   0.04580   0.00000  Uiso   1.00
C539   C     0.78619   0.89858   0.47459   0.00000  Uiso   1.00
C540   C     0.88048   0.76809   0.02541   0.00000  Uiso   1.00
C541   C     0.78347   0.89841   0.02062   0.00000  Uiso   1.00
C542   C     0.88319   0.76826   0.47938   0.00000  Uiso   1.00
H543   H     0.79457   0.89084   0.38812   0.00000  Uiso   1.00
H544   H     0.87210   0.77583   0.11188   0.00000  Uiso   1.00
H545   H     0.76836   0.92406   0.45616   0.00000  Uiso   1.00
H546   H     0.89831   0.74260   0.04384   0.00000  Uiso   1.00
H547   H     0.76383   0.92449   0.03603   0.00000  Uiso   1.00
H548   H     0.90284   0.74218   0.46397   0.00000  Uiso   1.00
C549   C     0.68849   0.81163   0.21490   0.00000  Uiso   1.00
C550   C     0.97818   0.85503   0.28510   0.00000  Uiso   1.00
C551   C     0.97871   0.81146   0.21498   0.00000  Uiso   1.00
C552   C     0.68796   0.85521   0.28502   0.00000  Uiso   1.00
C553   C     0.95715   0.83322   0.25003   0.00000  Uiso   1.00
C554   C     0.70952   0.83344   0.24997   0.00000  Uiso   1.00
C555   C     0.80737   0.69145   0.22295   0.00000  Uiso   1.00
C556   C     0.85930   0.97522   0.27705   0.00000  Uiso   1.00
C557   C     0.85933   0.69147   0.27702   0.00000  Uiso   1.00
C558   C     0.80734   0.97519   0.22298   0.00000  Uiso   1.00
H559   H     0.78659   0.71010   0.20125   0.00000  Uiso   1.00
H560   H     0.88008   0.95657   0.29875   0.00000  Uiso   1.00
H561   H     0.88020   0.71014   0.29861   0.00000  Uiso   1.00
H562   H     0.78647   0.95653   0.20139   0.00000  Uiso   1.00
N563   N     0.83333   0.95069   0.25000   0.00000  Uiso   1.00
N564   N     0.83333   0.71598   0.25000   0.00000  Uiso   1.00
C565   C     0.89547   0.77232   0.38330   0.00000  Uiso   1.00
H566   H     0.92614   0.77666   0.39912   0.00000  Uiso   1.00
H567   H     0.88617   0.73495   0.38462   0.00000  Uiso   1.00
H568   H     0.90037   0.78247   0.34825   0.00000  Uiso   1.00
C569   C     0.77120   0.89435   0.11670   0.00000  Uiso   1.00
H570   H     0.74053   0.89001   0.10087   0.00000  Uiso   1.00
H571   H     0.76630   0.88419   0.15175   0.00000  Uiso   1.00
H572   H     0.78050   0.93172   0.11538   0.00000  Uiso   1.00
Br573  Br    0.71858   0.78406   0.16577   0.00000  Uiso   1.00
Br574  Br    0.94809   0.88261   0.33423   0.00000  Uiso   1.00
Br575  Br    0.94940   0.78323   0.16616   0.00000  Uiso   1.00
Br576  Br    0.71727   0.88343   0.33384   0.00000  Uiso   1.00
O577   O     0.10655   0.20625   0.74999   0.00000  Uiso   1.00
O578   O     0.22679   0.12709   0.75000   0.00000  Uiso   1.00
O579   O     0.22679   0.20625   0.75000   0.00000  Uiso   1.00
O580   O     0.10655   0.12709   0.74999   0.00000  Uiso   1.00
C581   C     0.08746   0.16670   0.75004   0.00000  Uiso   1.00
C582   C     0.24588   0.16663   0.74996   0.00000  Uiso   1.00
O583   O     0.16666   0.20627   0.68513   0.00000  Uiso   1.00
O584   O     0.16668   0.12707   0.81487   0.00000  Uiso   1.00
O585   O     0.16668   0.20627   0.81487   0.00000  Uiso   1.00
O586   O     0.16666   0.12707   0.68513   0.00000  Uiso   1.00
C587   C     0.16477   0.16662   0.66447   0.00000  Uiso   1.00
C588   C     0.16857   0.16671   0.83552   0.00000  Uiso   1.00
Cu589  Cu    0.16667   0.21355   0.75000   0.00000  Uiso   1.00
Cu590  Cu    0.16667   0.11978   0.75000   0.00000  Uiso   1.00
C591   C     0.19692   0.13557   0.90731   0.00000  Uiso   1.00
C592   C     0.13642   0.19776   0.59269   0.00000  Uiso   1.00
C593   C     0.17116   0.16702   0.88383   0.00000  Uiso   1.00
C594   C     0.16218   0.16632   0.61617   0.00000  Uiso   1.00
C595   C     0.14652   0.19941   0.90653   0.00000  Uiso   1.00
C596   C     0.18681   0.13393   0.59347   0.00000  Uiso   1.00
C597   C     0.14478   0.19960   0.95252   0.00000  Uiso   1.00
C598   C     0.18855   0.13374   0.54748   0.00000  Uiso   1.00
C599   C     0.16801   0.16675   0.97664   0.00000  Uiso   1.00
C600   C     0.16533   0.16658   0.52336   0.00000  Uiso   1.00
C601   C     0.19404   0.13433   0.95420   0.00000  Uiso   1.00
C602   C     0.13929   0.19901   0.54580   0.00000  Uiso   1.00
C603   C     0.11953   0.23191   0.97459   0.00000  Uiso   1.00
C604   C     0.21381   0.10143   0.52541   0.00000  Uiso   1.00
C605   C     0.11681   0.23175   0.52062   0.00000  Uiso   1.00
C606   C     0.21653   0.10159   0.97938   0.00000  Uiso   1.00
H607   H     0.12790   0.22417   0.88812   0.00000  Uiso   1.00
H608   H     0.20543   0.10916   0.61188   0.00000  Uiso   1.00
H609   H     0.10169   0.25740   0.95616   0.00000  Uiso   1.00
H610   H     0.23164   0.07594   0.54384   0.00000  Uiso   1.00
H611   H     0.09716   0.25782   0.53603   0.00000  Uiso   1.00
H612   H     0.23617   0.07551   0.96397   0.00000  Uiso   1.00
C613   C     0.02182   0.14497   0.71490   0.00000  Uiso   1.00
C614   C     0.31151   0.18837   0.78510   0.00000  Uiso   1.00
C615   C     0.31204   0.14479   0.71498   0.00000  Uiso   1.00
C616   C     0.02129   0.18854   0.78502   0.00000  Uiso   1.00
C617   C     0.29048   0.16656   0.75003   0.00000  Uiso   1.00
C618   C     0.04285   0.16678   0.74997   0.00000  Uiso   1.00
C619   C     0.14070   0.02478   0.72295   0.00000  Uiso   1.00
C620   C     0.19263   0.30855   0.77705   0.00000  Uiso   1.00
C621   C     0.19266   0.02481   0.77702   0.00000  Uiso   1.00
C622   C     0.14067   0.30853   0.72298   0.00000  Uiso   1.00
H623   H     0.11992   0.04343   0.70125   0.00000  Uiso   1.00
H624   H     0.21341   0.28990   0.79875   0.00000  Uiso   1.00
H625   H     0.21353   0.04347   0.79861   0.00000  Uiso   1.00
H626   H     0.11980   0.28986   0.70139   0.00000  Uiso   1.00
N627   N     0.16667   0.28402   0.75000   0.00000  Uiso   1.00
N628   N     0.16667   0.04931   0.75000   0.00000  Uiso   1.00
C629   C     0.22881   0.10565   0.88330   0.00000  Uiso   1.00
H630   H     0.25947   0.11000   0.89912   0.00000  Uiso   1.00
H631   H     0.21951   0.06828   0.88462   0.00000  Uiso   1.00
H632   H     0.23370   0.11581   0.84825   0.00000  Uiso   1.00
C633   C     0.10453   0.22769   0.61670   0.00000  Uiso   1.00
H634   H     0.07386   0.22334   0.60087   0.00000  Uiso   1.00
H635   H     0.09963   0.21753   0.65175   0.00000  Uiso   1.00
H636   H     0.11383   0.26506   0.61538   0.00000  Uiso   1.00
Br637  Br    0.05191   0.11739   0.66577   0.00000  Uiso   1.00
Br638  Br    0.28142   0.21594   0.83423   0.00000  Uiso   1.00
Br639  Br    0.28273   0.11657   0.66616   0.00000  Uiso   1.00
Br640  Br    0.05060   0.21677   0.83384   0.00000  Uiso   1.00
O641   O     0.43988   0.20625   0.74999   0.00000  Uiso   1.00
O642   O     0.56012   0.12709   0.75000   0.00000  Uiso   1.00
O643   O     0.56012   0.20625   0.75000   0.00000  Uiso   1.00
O644   O     0.43988   0.12709   0.74999   0.00000  Uiso   1.00
C645   C     0.42079   0.16670   0.75004   0.00000  Uiso   1.00
C646   C     0.57921   0.16663   0.74996   0.00000  Uiso   1.00
O647   O     0.49999   0.20627   0.68513   0.00000  Uiso   1.00
O648   O     0.50001   0.12707   0.81487   0.00000  Uiso   1.00
O649   O     0.50001   0.20627   0.81487   0.00000  Uiso   1.00
O650   O     0.49999   0.12707   0.68513   0.00000  Uiso   1.00
C651   C     0.49810   0.16662   0.66447   0.00000  Uiso   1.00
C652   C     0.50190   0.16671   0.83552   0.00000  Uiso   1.00
Cu653  Cu    0.50000   0.21355   0.75000   0.00000  Uiso   1.00
Cu654  Cu    0.50000   0.11978   0.75000   0.00000  Uiso   1.00
C655   C     0.53025   0.13557   0.90731   0.00000  Uiso   1.00
C656   C     0.46975   0.19776   0.59269   0.00000  Uiso   1.00
C657   C     0.50449   0.16702   0.88383   0.00000  Uiso   1.00
C658   C     0.49551   0.16632   0.61617   0.00000  Uiso   1.00
C659   C     0.47985   0.19941   0.90653   0.00000  Uiso   1.00
C660   C     0.52015   0.13393   0.59347   0.00000  Uiso   1.00
C661   C     0.47811   0.19960   0.95252   0.00000  Uiso   1.00
C662   C     0.52189   0.13374   0.54748   0.00000  Uiso   1.00
C663   C     0.50134   0.16675   0.97664   0.00000  Uiso   1.00
C664   C     0.49866   0.16658   0.52336   0.00000  Uiso   1.00
C665   C     0.52738   0.13433   0.95420   0.00000  Uiso   1.00
C666   C     0.47263   0.19901   0.54580   0.00000  Uiso   1.00
C667   C     0.45286   0.23191   0.97459   0.00000  Uiso   1.00
C668   C     0.54714   0.10143   0.52541   0.00000  Uiso   1.00
C669   C     0.45014   0.23175   0.52062   0.00000  Uiso   1.00
C670   C     0.54986   0.10159   0.97938   0.00000  Uiso   1.00
H671   H     0.46123   0.22417   0.88812   0.00000  Uiso   1.00
H672   H     0.53877   0.10916   0.61188   0.00000  Uiso   1.00
H673   H     0.43503   0.25740   0.95616   0.00000  Uiso   1.00
H674   H     0.56497   0.07594   0.54384   0.00000  Uiso   1.00
H675   H     0.43050   0.25782   0.53603   0.00000  Uiso   1.00
H676   H     0.56950   0.07551   0.96397   0.00000  Uiso   1.00
C677   C     0.35516   0.14497   0.71490   0.00000  Uiso   1.00
C678   C     0.64484   0.18837   0.78510   0.00000  Uiso   1.00
C679   C     0.64538   0.14479   0.71498   0.00000  Uiso   1.00
C680   C     0.35462   0.18854   0.78502   0.00000  Uiso   1.00
C681   C     0.62382   0.16656   0.75003   0.00000  Uiso   1.00
C682   C     0.37618   0.16678   0.74997   0.00000  Uiso   1.00
C683   C     0.47403   0.02478   0.72295   0.00000  Uiso   1.00
C684   C     0.52597   0.30855   0.77705   0.00000  Uiso   1.00
C685   C     0.52599   0.02481   0.77702   0.00000  Uiso   1.00
C686   C     0.47401   0.30853   0.72298   0.00000  Uiso   1.00
H687   H     0.45325   0.04343   0.70125   0.00000  Uiso   1.00
H688   H     0.54675   0.28990   0.79875   0.00000  Uiso   1.00
H689   H     0.54687   0.04347   0.79861   0.00000  Uiso   1.00
H690   H     0.45313   0.28986   0.70139   0.00000  Uiso   1.00
N691   N     0.50000   0.28402   0.75000   0.00000  Uiso   1.00
N692   N     0.50000   0.04931   0.75000   0.00000  Uiso   1.00
C693   C     0.56214   0.10565   0.88330   0.00000  Uiso   1.00
H694   H     0.59281   0.11000   0.89912   0.00000  Uiso   1.00
H695   H     0.55284   0.06828   0.88462   0.00000  Uiso   1.00
H696   H     0.56703   0.11581   0.84825   0.00000  Uiso   1.00
C697   C     0.43786   0.22769   0.61670   0.00000  Uiso   1.00
H698   H     0.40719   0.22334   0.60087   0.00000  Uiso   1.00
H699   H     0.43297   0.21753   0.65175   0.00000  Uiso   1.00
H700   H     0.44716   0.26506   0.61538   0.00000  Uiso   1.00
Br701  Br    0.38525   0.11739   0.66577   0.00000  Uiso   1.00
Br702  Br    0.61475   0.21594   0.83423   0.00000  Uiso   1.00
Br703  Br    0.61606   0.11657   0.66616   0.00000  Uiso   1.00
Br704  Br    0.38394   0.21677   0.83384   0.00000  Uiso   1.00
O705   O     0.77321   0.20625   0.74999   0.00000  Uiso   1.00
O706   O     0.89345   0.12709   0.75000   0.00000  Uiso   1.00
O707   O     0.89345   0.20625   0.75000   0.00000  Uiso   1.00
O708   O     0.77321   0.12709   0.74999   0.00000  Uiso   1.00
C709   C     0.75412   0.16670   0.75004   0.00000  Uiso   1.00
C710   C     0.91254   0.16663   0.74996   0.00000  Uiso   1.00
O711   O     0.83332   0.20627   0.68513   0.00000  Uiso   1.00
O712   O     0.83334   0.12707   0.81487   0.00000  Uiso   1.00
O713   O     0.83334   0.20627   0.81487   0.00000  Uiso   1.00
O714   O     0.83332   0.12707   0.68513   0.00000  Uiso   1.00
C715   C     0.83143   0.16662   0.66447   0.00000  Uiso   1.00
C716   C     0.83523   0.16671   0.83552   0.00000  Uiso   1.00
Cu717  Cu    0.83333   0.21355   0.75000   0.00000  Uiso   1.00
Cu718  Cu    0.83333   0.11978   0.75000   0.00000  Uiso   1.00
C719   C     0.86358   0.13557   0.90731   0.00000  Uiso   1.00
C720   C     0.80309   0.19776   0.59269   0.00000  Uiso   1.00
C721   C     0.83782   0.16702   0.88383   0.00000  Uiso   1.00
C722   C     0.82884   0.16632   0.61617   0.00000  Uiso   1.00
C723   C     0.81319   0.19941   0.90653   0.00000  Uiso   1.00
C724   C     0.85348   0.13393   0.59347   0.00000  Uiso   1.00
C725   C     0.81145   0.19960   0.95252   0.00000  Uiso   1.00
C726   C     0.85522   0.13374   0.54748   0.00000  Uiso   1.00
C727   C     0.83467   0.16675   0.97664   0.00000  Uiso   1.00
C728   C     0.83200   0.16658   0.52336   0.00000  Uiso   1.00
C729   C     0.86071   0.13433   0.95420   0.00000  Uiso   1.00
C730   C     0.80596   0.19901   0.54580   0.00000  Uiso   1.00
C731   C     0.78619   0.23191   0.97459   0.00000  Uiso   1.00
C732   C     0.88048   0.10143   0.52541   0.00000  Uiso   1.00
C733   C     0.78347   0.23175   0.52062   0.00000  Uiso   1.00
C734   C     0.88319   0.10159   0.97938   0.00000  Uiso   1.00
H735   H     0.79457   0.22417   0.88812   0.00000  Uiso   1.00
H736   H     0.87210   0.10916   0.61188   0.00000  Uiso   1.00
H737   H     0.76836   0.25740   0.95616   0.00000  Uiso   1.00
H738   H     0.89831   0.07594   0.54384   0.00000  Uiso   1.00
H739   H     0.76383   0.25782   0.53603   0.00000  Uiso   1.00
H740   H     0.90284   0.07551   0.96397   0.00000  Uiso   1.00
C741   C     0.68849   0.14497   0.71490   0.00000  Uiso   1.00
C742   C     0.97818   0.18837   0.78510   0.00000  Uiso   1.00
C743   C     0.97871   0.14479   0.71498   0.00000  Uiso   1.00
C744   C     0.68796   0.18854   0.78502   0.00000  Uiso   1.00
C745   C     0.95715   0.16656   0.75003   0.00000  Uiso   1.00
C746   C     0.70952   0.16678   0.74997   0.00000  Uiso   1.00
C747   C     0.80737   0.02478   0.72295   0.00000  Uiso   1.00
C748   C     0.85930   0.30855   0.77705   0.00000  Uiso   1.00
C749   C     0.85933   0.02481   0.77702   0.00000  Uiso   1.00
C750   C     0.80734   0.30853   0.72298   0.00000  Uiso   1.00
H751   H     0.78659   0.04343   0.70125   0.00000  Uiso   1.00
H752   H     0.88008   0.28990   0.79875   0.00000  Uiso   1.00
H753   H     0.88020   0.04347   0.79861   0.00000  Uiso   1.00
H754   H     0.78647   0.28986   0.70139   0.00000  Uiso   1.00
N755   N     0.83333   0.28402   0.75000   0.00000  Uiso   1.00
N756   N     0.83333   0.04931   0.75000   0.00000  Uiso   1.00
C757   C     0.89547   0.10565   0.88330   0.00000  Uiso   1.00
H758   H     0.92614   0.11000   0.89912   0.00000  Uiso   1.00
H759   H     0.88617   0.06828   0.88462   0.00000  Uiso   1.00
H760   H     0.90037   0.11581   0.84825   0.00000  Uiso   1.00
C761   C     0.77120   0.22769   0.61670   0.00000  Uiso   1.00
H762   H     0.74053   0.22334   0.60087   0.00000  Uiso   1.00
H763   H     0.76630   0.21753   0.65175   0.00000  Uiso   1.00
H764   H     0.78050   0.26506   0.61538   0.00000  Uiso   1.00
Br765  Br    0.71858   0.11739   0.66577   0.00000  Uiso   1.00
Br766  Br    0.94809   0.21594   0.83423   0.00000  Uiso   1.00
Br767  Br    0.94940   0.11657   0.66616   0.00000  Uiso   1.00
Br768  Br    0.71727   0.21677   0.83384   0.00000  Uiso   1.00
O769   O     0.10655   0.53958   0.74999   0.00000  Uiso   1.00
O770   O     0.22679   0.46042   0.75000   0.00000  Uiso   1.00
O771   O     0.22679   0.53958   0.75000   0.00000  Uiso   1.00
O772   O     0.10655   0.46042   0.74999   0.00000  Uiso   1.00
C773   C     0.08746   0.50003   0.75004   0.00000  Uiso   1.00
C774   C     0.24588   0.49997   0.74996   0.00000  Uiso   1.00
O775   O     0.16666   0.53960   0.68513   0.00000  Uiso   1.00
O776   O     0.16668   0.46040   0.81487   0.00000  Uiso   1.00
O777   O     0.16668   0.53960   0.81487   0.00000  Uiso   1.00
O778   O     0.16666   0.46040   0.68513   0.00000  Uiso   1.00
C779   C     0.16477   0.49996   0.66447   0.00000  Uiso   1.00
C780   C     0.16857   0.50004   0.83552   0.00000  Uiso   1.00
Cu781  Cu    0.16667   0.54689   0.75000   0.00000  Uiso   1.00
Cu782  Cu    0.16667   0.45311   0.75000   0.00000  Uiso   1.00
C783   C     0.19692   0.46891   0.90731   0.00000  Uiso   1.00
C784   C     0.13642   0.53109   0.59269   0.00000  Uiso   1.00
C785   C     0.17116   0.50035   0.88383   0.00000  Uiso   1.00
C786   C     0.16218   0.49965   0.61617   0.00000  Uiso   1.00
C787   C     0.14652   0.53274   0.90653   0.00000  Uiso   1.00
C788   C     0.18681   0.46726   0.59347   0.00000  Uiso   1.00
C789   C     0.14478   0.53293   0.95252   0.00000  Uiso   1.00
C790   C     0.18855   0.46707   0.54748   0.00000  Uiso   1.00
C791   C     0.16801   0.50009   0.97664   0.00000  Uiso   1.00
C792   C     0.16533   0.49992   0.52336   0.00000  Uiso   1.00
C793   C     0.19404   0.46766   0.95420   0.00000  Uiso   1.00
C794   C     0.13929   0.53234   0.54580   0.00000  Uiso   1.00
C795   C     0.11953   0.56524   0.97459   0.00000  Uiso   1.00
C796   C     0.21381   0.43476   0.52541   0.00000  Uiso   1.00
C797   C     0.11681   0.56508   0.52062   0.00000  Uiso   1.00
C798   C     0.21653   0.43492   0.97938   0.00000  Uiso   1.00
H799   H     0.12790   0.55750   0.88812   0.00000  Uiso   1.00
H800   H     0.20543   0.44250   0.61188   0.00000  Uiso   1.00
H801   H     0.10169   0.59073   0.95616   0.00000  Uiso   1.00
H802   H     0.23164   0.40927   0.54384   0.00000  Uiso   1.00
H803   H     0.09716   0.59116   0.53603   0.00000  Uiso   1.00
H804   H     0.23617   0.40885   0.96397   0.00000  Uiso   1.00
C805   C     0.02182   0.47830   0.71490   0.00000  Uiso   1.00
C806   C     0.31151   0.52170   0.78510   0.00000  Uiso   1.00
C807   C     0.31204   0.47812   0.71498   0.00000  Uiso   1.00
C808   C     0.02129   0.52188   0.78502   0.00000  Uiso   1.00
C809   C     0.29048   0.49989   0.75003   0.00000  Uiso   1.00
C810   C     0.04285   0.50011   0.74997   0.00000  Uiso   1.00
C811   C     0.14070   0.35812   0.72295   0.00000  Uiso   1.00
C812   C     0.19263   0.64188   0.77705   0.00000  Uiso   1.00
C813   C     0.19266   0.35814   0.77702   0.00000  Uiso   1.00
C814   C     0.14067   0.64186   0.72298   0.00000  Uiso   1.00
H815   H     0.11992   0.37677   0.70125   0.00000  Uiso   1.00
H816   H     0.21341   0.62323   0.79875   0.00000  Uiso   1.00
H817   H     0.21353   0.37680   0.79861   0.00000  Uiso   1.00
H818   H     0.11980   0.62320   0.70139   0.00000  Uiso   1.00
N819   N     0.16667   0.61736   0.75000   0.00000  Uiso   1.00
N820   N     0.16667   0.38264   0.75000   0.00000  Uiso   1.00
C821   C     0.22881   0.43898   0.88330   0.00000  Uiso   1.00
H822   H     0.25947   0.44333   0.89912   0.00000  Uiso   1.00
H823   H     0.21951   0.40161   0.88462   0.00000  Uiso   1.00
H824   H     0.23370   0.44914   0.84825   0.00000  Uiso   1.00
C825   C     0.10453   0.56102   0.61670   0.00000  Uiso   1.00
H826   H     0.07386   0.55667   0.60087   0.00000  Uiso   1.00
H827   H     0.09963   0.55086   0.65175   0.00000  Uiso   1.00
H828   H     0.11383   0.59839   0.61538   0.00000  Uiso   1.00
Br829  Br    0.05191   0.45072   0.66577   0.00000  Uiso   1.00
Br830  Br    0.28142   0.54928   0.83423   0.00000  Uiso   1.00
Br831  Br    0.28273   0.44990   0.66616   0.00000  Uiso   1.00
Br832  Br    0.05060   0.55010   0.83384   0.00000  Uiso   1.00
O833   O     0.43988   0.53958   0.74999   0.00000  Uiso   1.00
O834   O     0.56012   0.46042   0.75000   0.00000  Uiso   1.00
O835   O     0.56012   0.53958   0.75000   0.00000  Uiso   1.00
O836   O     0.43988   0.46042   0.74999   0.00000  Uiso   1.00
C837   C     0.42079   0.50003   0.75004   0.00000  Uiso   1.00
C838   C     0.57921   0.49997   0.74996   0.00000  Uiso   1.00
O839   O     0.49999   0.53960   0.68513   0.00000  Uiso   1.00
O840   O     0.50001   0.46040   0.81487   0.00000  Uiso   1.00
O841   O     0.50001   0.53960   0.81487   0.00000  Uiso   1.00
O842   O     0.49999   0.46040   0.68513   0.00000  Uiso   1.00
C843   C     0.49810   0.49996   0.66447   0.00000  Uiso   1.00
C844   C     0.50190   0.50004   0.83552   0.00000  Uiso   1.00
Cu845  Cu    0.50000   0.54689   0.75000   0.00000  Uiso   1.00
Cu846  Cu    0.50000   0.45311   0.75000   0.00000  Uiso   1.00
C847   C     0.53025   0.46891   0.90731   0.00000  Uiso   1.00
C848   C     0.46975   0.53109   0.59269   0.00000  Uiso   1.00
C849   C     0.50449   0.50035   0.88383   0.00000  Uiso   1.00
C850   C     0.49551   0.49965   0.61617   0.00000  Uiso   1.00
C851   C     0.47985   0.53274   0.90653   0.00000  Uiso   1.00
C852   C     0.52015   0.46726   0.59347   0.00000  Uiso   1.00
C853   C     0.47811   0.53293   0.95252   0.00000  Uiso   1.00
C854   C     0.52189   0.46707   0.54748   0.00000  Uiso   1.00
C855   C     0.50134   0.50009   0.97664   0.00000  Uiso   1.00
C856   C     0.49866   0.49992   0.52336   0.00000  Uiso   1.00
C857   C     0.52738   0.46766   0.95420   0.00000  Uiso   1.00
C858   C     0.47263   0.53234   0.54580   0.00000  Uiso   1.00
C859   C     0.45286   0.56524   0.97459   0.00000  Uiso   1.00
C860   C     0.54714   0.43476   0.52541   0.00000  Uiso   1.00
C861   C     0.45014   0.56508   0.52062   0.00000  Uiso   1.00
C862   C     0.54986   0.43492   0.97938   0.00000  Uiso   1.00
H863   H     0.46123   0.55750   0.88812   0.00000  Uiso   1.00
H864   H     0.53877   0.44250   0.61188   0.00000  Uiso   1.00
H865   H     0.43503   0.59073   0.95616   0.00000  Uiso   1.00
H866   H     0.56497   0.40927   0.54384   0.00000  Uiso   1.00
H867   H     0.43050   0.59116   0.53603   0.00000  Uiso   1.00
H868   H     0.56950   0.40885   0.96397   0.00000  Uiso   1.00
C869   C     0.35516   0.47830   0.71490   0.00000  Uiso   1.00
C870   C     0.64484   0.52170   0.78510   0.00000  Uiso   1.00
C871   C     0.64538   0.47812   0.71498   0.00000  Uiso   1.00
C872   C     0.35462   0.52188   0.78502   0.00000  Uiso   1.00
C873   C     0.62382   0.49989   0.75003   0.00000  Uiso   1.00
C874   C     0.37618   0.50011   0.74997   0.00000  Uiso   1.00
C875   C     0.47403   0.35812   0.72295   0.00000  Uiso   1.00
C876   C     0.52597   0.64188   0.77705   0.00000  Uiso   1.00
C877   C     0.52599   0.35814   0.77702   0.00000  Uiso   1.00
C878   C     0.47401   0.64186   0.72298   0.00000  Uiso   1.00
H879   H     0.45325   0.37677   0.70125   0.00000  Uiso   1.00
H880   H     0.54675   0.62323   0.79875   0.00000  Uiso   1.00
H881   H     0.54687   0.37680   0.79861   0.00000  Uiso   1.00
H882   H     0.45313   0.62320   0.70139   0.00000  Uiso   1.00
N883   N     0.50000   0.61736   0.75000   0.00000  Uiso   1.00
N884   N     0.50000   0.38264   0.75000   0.00000  Uiso   1.00
C885   C     0.56214   0.43898   0.88330   0.00000  Uiso   1.00
H886   H     0.59281   0.44333   0.89912   0.00000  Uiso   1.00
H887   H     0.55284   0.40161   0.88462   0.00000  Uiso   1.00
H888   H     0.56703   0.44914   0.84825   0.00000  Uiso   1.00
C889   C     0.43786   0.56102   0.61670   0.00000  Uiso   1.00
H890   H     0.40719   0.55667   0.60087   0.00000  Uiso   1.00
H891   H     0.43297   0.55086   0.65175   0.00000  Uiso   1.00
H892   H     0.44716   0.59839   0.61538   0.00000  Uiso   1.00
Br893  Br    0.38525   0.45072   0.66577   0.00000  Uiso   1.00
Br894  Br    0.61475   0.54928   0.83423   0.00000  Uiso   1.00
Br895  Br    0.61606   0.44990   0.66616   0.00000  Uiso   1.00
Br896  Br    0.38394   0.55010   0.83384   0.00000  Uiso   1.00
O897   O     0.77321   0.53958   0.74999   0.00000  Uiso   1.00
O898   O     0.89345   0.46042   0.75000   0.00000  Uiso   1.00
O899   O     0.89345   0.53958   0.75000   0.00000  Uiso   1.00
O900   O     0.77321   0.46042   0.74999   0.00000  Uiso   1.00
C901   C     0.75412   0.50003   0.75004   0.00000  Uiso   1.00
C902   C     0.91254   0.49997   0.74996   0.00000  Uiso   1.00
O903   O     0.83332   0.53960   0.68513   0.00000  Uiso   1.00
O904   O     0.83334   0.46040   0.81487   0.00000  Uiso   1.00
O905   O     0.83334   0.53960   0.81487   0.00000  Uiso   1.00
O906   O     0.83332   0.46040   0.68513   0.00000  Uiso   1.00
C907   C     0.83143   0.49996   0.66447   0.00000  Uiso   1.00
C908   C     0.83523   0.50004   0.83552   0.00000  Uiso   1.00
Cu909  Cu    0.83333   0.54689   0.75000   0.00000  Uiso   1.00
Cu910  Cu    0.83333   0.45311   0.75000   0.00000  Uiso   1.00
C911   C     0.86358   0.46891   0.90731   0.00000  Uiso   1.00
C912   C     0.80309   0.53109   0.59269   0.00000  Uiso   1.00
C913   C     0.83782   0.50035   0.88383   0.00000  Uiso   1.00
C914   C     0.82884   0.49965   0.61617   0.00000  Uiso   1.00
C915   C     0.81319   0.53274   0.90653   0.00000  Uiso   1.00
C916   C     0.85348   0.46726   0.59347   0.00000  Uiso   1.00
C917   C     0.81145   0.53293   0.95252   0.00000  Uiso   1.00
C918   C     0.85522   0.46707   0.54748   0.00000  Uiso   1.00
C919   C     0.83467   0.50009   0.97664   0.00000  Uiso   1.00
C920   C     0.83200   0.49992   0.52336   0.00000  Uiso   1.00
C921   C     0.86071   0.46766   0.95420   0.00000  Uiso   1.00
C922   C     0.80596   0.53234   0.54580   0.00000  Uiso   1.00
C923   C     0.78619   0.56524   0.97459   0.00000  Uiso   1.00
C924   C     0.88048   0.43476   0.52541   0.00000  Uiso   1.00
C925   C     0.78347   0.56508   0.52062   0.00000  Uiso   1.00
C926   C     0.88319   0.43492   0.97938   0.00000  Uiso   1.00
H927   H     0.79457   0.55750   0.88812   0.00000  Uiso   1.00
H928   H     0.87210   0.44250   0.61188   0.00000  Uiso   1.00
H929   H     0.76836   0.59073   0.95616   0.00000  Uiso   1.00
H930   H     0.89831   0.40927   0.54384   0.00000  Uiso   1.00
H931   H     0.76383   0.59116   0.53603   0.00000  Uiso   1.00
H932   H     0.90284   0.40885   0.96397   0.00000  Uiso   1.00
C933   C     0.68849   0.47830   0.71490   0.00000  Uiso   1.00
C934   C     0.97818   0.52170   0.78510   0.00000  Uiso   1.00
C935   C     0.97871   0.47812   0.71498   0.00000  Uiso   1.00
C936   C     0.68796   0.52188   0.78502   0.00000  Uiso   1.00
C937   C     0.95715   0.49989   0.75003   0.00000  Uiso   1.00
C938   C     0.70952   0.50011   0.74997   0.00000  Uiso   1.00
C939   C     0.80737   0.35812   0.72295   0.00000  Uiso   1.00
C940   C     0.85930   0.64188   0.77705   0.00000  Uiso   1.00
C941   C     0.85933   0.35814   0.77702   0.00000  Uiso   1.00
C942   C     0.80734   0.64186   0.72298   0.00000  Uiso   1.00
H943   H     0.78659   0.37677   0.70125   0.00000  Uiso   1.00
H944   H     0.88008   0.62323   0.79875   0.00000  Uiso   1.00
H945   H     0.88020   0.37680   0.79861   0.00000  Uiso   1.00
H946   H     0.78647   0.62320   0.70139   0.00000  Uiso   1.00
N947   N     0.83333   0.61736   0.75000   0.00000  Uiso   1.00
N948   N     0.83333   0.38264   0.75000   0.00000  Uiso   1.00
C949   C     0.89547   0.43898   0.88330   0.00000  Uiso   1.00
H950   H     0.92614   0.44333   0.89912   0.00000  Uiso   1.00
H951   H     0.88617   0.40161   0.88462   0.00000  Uiso   1.00
H952   H     0.90037   0.44914   0.84825   0.00000  Uiso   1.00
C953   C     0.77120   0.56102   0.61670   0.00000  Uiso   1.00
H954   H     0.74053   0.55667   0.60087   0.00000  Uiso   1.00
H955   H     0.76630   0.55086   0.65175   0.00000  Uiso   1.00
H956   H     0.78050   0.59839   0.61538   0.00000  Uiso   1.00
Br957  Br    0.71858   0.45072   0.66577   0.00000  Uiso   1.00
Br958  Br    0.94809   0.54928   0.83423   0.00000  Uiso   1.00
Br959  Br    0.94940   0.44990   0.66616   0.00000  Uiso   1.00
Br960  Br    0.71727   0.55010   0.83384   0.00000  Uiso   1.00
O961   O     0.10655   0.87291   0.74999   0.00000  Uiso   1.00
O962   O     0.22679   0.79375   0.75000   0.00000  Uiso   1.00
O963   O     0.22679   0.87291   0.75000   0.00000  Uiso   1.00
O964   O     0.10655   0.79375   0.74999   0.00000  Uiso   1.00
C965   C     0.08746   0.83337   0.75004   0.00000  Uiso   1.00
C966   C     0.24588   0.83330   0.74996   0.00000  Uiso   1.00
O967   O     0.16666   0.87293   0.68513   0.00000  Uiso   1.00
O968   O     0.16668   0.79373   0.81487   0.00000  Uiso   1.00
O969   O     0.16668   0.87293   0.81487   0.00000  Uiso   1.00
O970   O     0.16666   0.79373   0.68513   0.00000  Uiso   1.00
C971   C     0.16477   0.83329   0.66447   0.00000  Uiso   1.00
C972   C     0.16857   0.83338   0.83552   0.00000  Uiso   1.00
Cu973  Cu    0.16667   0.88022   0.75000   0.00000  Uiso   1.00
Cu974  Cu    0.16667   0.78645   0.75000   0.00000  Uiso   1.00
C975   C     0.19692   0.80224   0.90731   0.00000  Uiso   1.00
C976   C     0.13642   0.86443   0.59269   0.00000  Uiso   1.00
C977   C     0.17116   0.83368   0.88383   0.00000  Uiso   1.00
C978   C     0.16218   0.83298   0.61617   0.00000  Uiso   1.00
C979   C     0.14652   0.86607   0.90653   0.00000  Uiso   1.00
C980   C     0.18681   0.80059   0.59347   0.00000  Uiso   1.00
C981   C     0.14478   0.86627   0.95252   0.00000  Uiso   1.00
C982   C     0.18855   0.80040   0.54748   0.00000  Uiso   1.00
C983   C     0.16801   0.83342   0.97664   0.00000  Uiso   1.00
C984   C     0.16533   0.83325   0.52336   0.00000  Uiso   1.00
C985   C     0.19404   0.80099   0.95420   0.00000  Uiso   1.00
C986   C     0.13929   0.86568   0.54580   0.00000  Uiso   1.00
C987   C     0.11953   0.89858   0.97459   0.00000  Uiso   1.00
C988   C     0.21381   0.76809   0.52541   0.00000  Uiso   1.00
C989   C     0.11681   0.89841   0.52062   0.00000  Uiso   1.00
C990   C     0.21653   0.76826   0.97938   0.00000  Uiso   1.00
H991   H     0.12790   0.89084   0.88812   0.00000  Uiso   1.00
H992   H     0.20543   0.77583   0.61188   0.00000  Uiso   1.00
H993   H     0.10169   0.92406   0.95616   0.00000  Uiso   1.00
H994   H     0.23164   0.74260   0.54384   0.00000  Uiso   1.00
H995   H     0.09716   0.92449   0.53603   0.00000  Uiso   1.00
H996   H     0.23617   0.74218   0.96397   0.00000  Uiso   1.00
C997   C     0.02182   0.81163   0.71490   0.00000  Uiso   1.00
C998   C     0.31151   0.85503   0.78510   0.00000  Uiso   1.00
C999   C     0.31204   0.81146   0.71498   0.00000  Uiso   1.00
C1000  C     0.02129   0.85521   0.78502   0.00000  Uiso   1.00
C1001  C     0.29048   0.83322   0.75003   0.00000  Uiso   1.00
C1002  C     0.04285   0.83344   0.74997   0.00000  Uiso   1.00
C1003  C     0.14070   0.69145   0.72295   0.00000  Uiso   1.00
C1004  C     0.19263   0.97522   0.77705   0.00000  Uiso   1.00
C1005  C     0.19266   0.69147   0.77702   0.00000  Uiso   1.00
C1006  C     0.14067   0.97519   0.72298   0.00000  Uiso   1.00
H1007  H     0.11992   0.71010   0.70125   0.00000  Uiso   1.00
H1008  H     0.21341   0.95657   0.79875   0.00000  Uiso   1.00
H1009  H     0.21353   0.71014   0.79861   0.00000  Uiso   1.00
H1010  H     0.11980   0.95653   0.70139   0.00000  Uiso   1.00
N1011  N     0.16667   0.95069   0.75000   0.00000  Uiso   1.00
N1012  N     0.16667   0.71598   0.75000   0.00000  Uiso   1.00
C1013  C     0.22881   0.77232   0.88330   0.00000  Uiso   1.00
H1014  H     0.25947   0.77666   0.89912   0.00000  Uiso   1.00
H1015  H     0.21951   0.73495   0.88462   0.00000  Uiso   1.00
H1016  H     0.23370   0.78247   0.84825   0.00000  Uiso   1.00
C1017  C     0.10453   0.89435   0.61670   0.00000  Uiso   1.00
H1018  H     0.07386   0.89001   0.60087   0.00000  Uiso   1.00
H1019  H     0.09963   0.88419   0.65175   0.00000  Uiso   1.00
H1020  H     0.11383   0.93172   0.61538   0.00000  Uiso   1.00
Br1021 Br    0.05191   0.78406   0.66577   0.00000  Uiso   1.00
Br1022 Br    0.28142   0.88261   0.83423   0.00000  Uiso   1.00
Br1023 Br    0.28273   0.78323   0.66616   0.00000  Uiso   1.00
Br1024 Br    0.05060   0.88343   0.83384   0.00000  Uiso   1.00
O1025  O     0.43988   0.87291   0.74999   0.00000  Uiso   1.00
O1026  O     0.56012   0.79375   0.75000   0.00000  Uiso   1.00
O1027  O     0.56012   0.87291   0.75000   0.00000  Uiso   1.00
O1028  O     0.43988   0.79375   0.74999   0.00000  Uiso   1.00
C1029  C     0.42079   0.83337   0.75004   0.00000  Uiso   1.00
C1030  C     0.57921   0.83330   0.74996   0.00000  Uiso   1.00
O1031  O     0.49999   0.87293   0.68513   0.00000  Uiso   1.00
O1032  O     0.50001   0.79373   0.81487   0.00000  Uiso   1.00
O1033  O     0.50001   0.87293   0.81487   0.00000  Uiso   1.00
O1034  O     0.49999   0.79373   0.68513   0.00000  Uiso   1.00
C1035  C     0.49810   0.83329   0.66447   0.00000  Uiso   1.00
C1036  C     0.50190   0.83338   0.83552   0.00000  Uiso   1.00
Cu1037 Cu    0.50000   0.88022   0.75000   0.00000  Uiso   1.00
Cu1038 Cu    0.50000   0.78645   0.75000   0.00000  Uiso   1.00
C1039  C     0.53025   0.80224   0.90731   0.00000  Uiso   1.00
C1040  C     0.46975   0.86443   0.59269   0.00000  Uiso   1.00
C1041  C     0.50449   0.83368   0.88383   0.00000  Uiso   1.00
C1042  C     0.49551   0.83298   0.61617   0.00000  Uiso   1.00
C1043  C     0.47985   0.86607   0.90653   0.00000  Uiso   1.00
C1044  C     0.52015   0.80059   0.59347   0.00000  Uiso   1.00
C1045  C     0.47811   0.86627   0.95252   0.00000  Uiso   1.00
C1046  C     0.52189   0.80040   0.54748   0.00000  Uiso   1.00
C1047  C     0.50134   0.83342   0.97664   0.00000  Uiso   1.00
C1048  C     0.49866   0.83325   0.52336   0.00000  Uiso   1.00
C1049  C     0.52738   0.80099   0.95420   0.00000  Uiso   1.00
C1050  C     0.47263   0.86568   0.54580   0.00000  Uiso   1.00
C1051  C     0.45286   0.89858   0.97459   0.00000  Uiso   1.00
C1052  C     0.54714   0.76809   0.52541   0.00000  Uiso   1.00
C1053  C     0.45014   0.89841   0.52062   0.00000  Uiso   1.00
C1054  C     0.54986   0.76826   0.97938   0.00000  Uiso   1.00
H1055  H     0.46123   0.89084   0.88812   0.00000  Uiso   1.00
H1056  H     0.53877   0.77583   0.61188   0.00000  Uiso   1.00
H1057  H     0.43503   0.92406   0.95616   0.00000  Uiso   1.00
H1058  H     0.56497   0.74260   0.54384   0.00000  Uiso   1.00
H1059  H     0.43050   0.92449   0.53603   0.00000  Uiso   1.00
H1060  H     0.56950   0.74218   0.96397   0.00000  Uiso   1.00
C1061  C     0.35516   0.81163   0.71490   0.00000  Uiso   1.00
C1062  C     0.64484   0.85503   0.78510   0.00000  Uiso   1.00
C1063  C     0.64538   0.81146   0.71498   0.00000  Uiso   1.00
C1064  C     0.35462   0.85521   0.78502   0.00000  Uiso   1.00
C1065  C     0.62382   0.83322   0.75003   0.00000  Uiso   1.00
C1066  C     0.37618   0.83344   0.74997   0.00000  Uiso   1.00
C1067  C     0.47403   0.69145   0.72295   0.00000  Uiso   1.00
C1068  C     0.52597   0.97522   0.77705   0.00000  Uiso   1.00
C1069  C     0.52599   0.69147   0.77702   0.00000  Uiso   1.00
C1070  C     0.47401   0.97519   0.72298   0.00000  Uiso   1.00
H1071  H     0.45325   0.71010   0.70125   0.00000  Uiso   1.00
H1072  H     0.54675   0.95657   0.79875   0.00000  Uiso   1.00
H1073  H     0.54687   0.71014   0.79861   0.00000  Uiso   1.00
H1074  H     0.45313   0.95653   0.70139   0.00000  Uiso   1.00
N1075  N     0.50000   0.95069   0.75000   0.00000  Uiso   1.00
N1076  N     0.50000   0.71598   0.75000   0.00000  Uiso   1.00
C1077  C     0.56214   0.77232   0.88330   0.00000  Uiso   1.00
H1078  H     0.59281   0.77666   0.89912   0.00000  Uiso   1.00
H1079  H     0.55284   0.73495   0.88462   0.00000  Uiso   1.00
H1080  H     0.56703   0.78247   0.84825   0.00000  Uiso   1.00
C1081  C     0.43786   0.89435   0.61670   0.00000  Uiso   1.00
H1082  H     0.40719   0.89001   0.60087   0.00000  Uiso   1.00
H1083  H     0.43297   0.88419   0.65175   0.00000  Uiso   1.00
H1084  H     0.44716   0.93172   0.61538   0.00000  Uiso   1.00
Br1085 Br    0.38525   0.78406   0.66577   0.00000  Uiso   1.00
Br1086 Br    0.61475   0.88261   0.83423   0.00000  Uiso   1.00
Br1087 Br    0.61606   0.78323   0.66616   0.00000  Uiso   1.00
Br1088 Br    0.38394   0.88343   0.83384   0.00000  Uiso   1.00
O1089  O     0.77321   0.87291   0.74999   0.00000  Uiso   1.00
O1090  O     0.89345   0.79375   0.75000   0.00000  Uiso   1.00
O1091  O     0.89345   0.87291   0.75000   0.00000  Uiso   1.00
O1092  O     0.77321   0.79375   0.74999   0.00000  Uiso   1.00
C1093  C     0.75412   0.83337   0.75004   0.00000  Uiso   1.00
C1094  C     0.91254   0.83330   0.74996   0.00000  Uiso   1.00
O1095  O     0.83332   0.87293   0.68513   0.00000  Uiso   1.00
O1096  O     0.83334   0.79373   0.81487   0.00000  Uiso   1.00
O1097  O     0.83334   0.87293   0.81487   0.00000  Uiso   1.00
O1098  O     0.83332   0.79373   0.68513   0.00000  Uiso   1.00
C1099  C     0.83143   0.83329   0.66447   0.00000  Uiso   1.00
C1100  C     0.83523   0.83338   0.83552   0.00000  Uiso   1.00
Cu1101 Cu    0.83333   0.88022   0.75000   0.00000  Uiso   1.00
Cu1102 Cu    0.83333   0.78645   0.75000   0.00000  Uiso   1.00
C1103  C     0.86358   0.80224   0.90731   0.00000  Uiso   1.00
C1104  C     0.80309   0.86443   0.59269   0.00000  Uiso   1.00
C1105  C     0.83782   0.83368   0.88383   0.00000  Uiso   1.00
C1106  C     0.82884   0.83298   0.61617   0.00000  Uiso   1.00
C1107  C     0.81319   0.86607   0.90653   0.00000  Uiso   1.00
C1108  C     0.85348   0.80059   0.59347   0.00000  Uiso   1.00
C1109  C     0.81145   0.86627   0.95252   0.00000  Uiso   1.00
C1110  C     0.85522   0.80040   0.54748   0.00000  Uiso   1.00
C1111  C     0.83467   0.83342   0.97664   0.00000  Uiso   1.00
C1112  C     0.83200   0.83325   0.52336   0.00000  Uiso   1.00
C1113  C     0.86071   0.80099   0.95420   0.00000  Uiso   1.00
C1114  C     0.80596   0.86568   0.54580   0.00000  Uiso   1.00
C1115  C     0.78619   0.89858   0.97459   0.00000  Uiso   1.00
C1116  C     0.88048   0.76809   0.52541   0.00000  Uiso   1.00
C1117  C     0.78347   0.89841   0.52062   0.00000  Uiso   1.00
C1118  C     0.88319   0.76826   0.97938   0.00000  Uiso   1.00
H1119  H     0.79457   0.89084   0.88812   0.00000  Uiso   1.00
H1120  H     0.87210   0.77583   0.61188   0.00000  Uiso   1.00
H1121  H     0.76836   0.92406   0.95616   0.00000  Uiso   1.00
H1122  H     0.89831   0.74260   0.54384   0.00000  Uiso   1.00
H1123  H     0.76383   0.92449   0.53603   0.00000  Uiso   1.00
H1124  H     0.90284   0.74218   0.96397   0.00000  Uiso   1.00
C1125  C     0.68849   0.81163   0.71490   0.00000  Uiso   1.00
C1126  C     0.97818   0.85503   0.78510   0.00000  Uiso   1.00
C1127  C     0.97871   0.81146   0.71498   0.00000  Uiso   1.00
C1128  C     0.68796   0.85521   0.78502   0.00000  Uiso   1.00
C1129  C     0.95715   0.83322   0.75003   0.00000  Uiso   1.00
C1130  C     0.70952   0.83344   0.74997   0.00000  Uiso   1.00
C1131  C     0.80737   0.69145   0.72295   0.00000  Uiso   1.00
C1132  C     0.85930   0.97522   0.77705   0.00000  Uiso   1.00
C1133  C     0.85933   0.69147   0.77702   0.00000  Uiso   1.00
C1134  C     0.80734   0.97519   0.72298   0.00000  Uiso   1.00
H1135  H     0.78659   0.71010   0.70125   0.00000  Uiso   1.00
H1136  H     0.88008   0.95657   0.79875   0.00000  Uiso   1.00
H1137  H     0.88020   0.71014   0.79861   0.00000  Uiso   1.00
H1138  H     0.78647   0.95653   0.70139   0.00000  Uiso   1.00
N1139  N     0.83333   0.95069   0.75000   0.00000  Uiso   1.00
N1140  N     0.83333   0.71598   0.75000   0.00000  Uiso   1.00
C1141  C     0.89547   0.77232   0.88330   0.00000  Uiso   1.00
H1142  H     0.92614   0.77666   0.89912   0.00000  Uiso   1.00
H1143  H     0.88617   0.73495   0.88462   0.00000  Uiso   1.00
H1144  H     0.90037   0.78247   0.84825   0.00000  Uiso   1.00
C1145  C     0.77120   0.89435   0.61670   0.00000  Uiso   1.00
H1146  H     0.74053   0.89001   0.60087   0.00000  Uiso   1.00
H1147  H     0.76630   0.88419   0.65175   0.00000  Uiso   1.00
H1148  H     0.78050   0.93172   0.61538   0.00000  Uiso   1.00
Br1149 Br    0.71858   0.78406   0.66577   0.00000  Uiso   1.00
Br1150 Br    0.94809   0.88261   0.83423   0.00000  Uiso   1.00
Br1151 Br    0.94940   0.78323   0.66616   0.00000  Uiso   1.00
Br1152 Br    0.71727   0.88343   0.83384   0.00000  Uiso   1.00
loop_
_geom_bond_atom_site_label_1
_geom_bond_atom_site_label_2
_geom_bond_distance
_geom_bond_site_symmetry_2
_ccdc_geom_bond_type
O1     C5      1.288   .     A
O1     Cu13    1.957   .     S
O2     C6      1.288   .     A
O2     Cu14    1.957   .     S
O3     Cu13    1.956   .     S
O3     C6      1.289   .     A
O4     Cu14    1.956   .     S
O4     C5      1.289   .     A
C5     C42     1.443   .     S
C6     C41     1.443   .     S
O7     C11     1.293   .     A
O7     Cu13    1.966   .     S
O8     C12     1.293   .     A
O8     Cu14    1.966   .     S
O9     C12     1.293   .     A
O9     Cu13    1.966   .     S
O10    C11     1.293   .     A
O10    Cu14    1.966   .     S
C11    C18     1.459   .     S
C12    C17     1.459   .     S
Cu13   N51     2.013   .     S
Cu13   Cu14    2.679   .     S
Cu14   N52     2.013   .     S
C15    C53     1.519   .     S
C15    C25     1.416   .     A
C15    C17     1.418   .     A
C16    C18     1.418   .     A
C16    C57     1.519   .     S
C16    C26     1.416   .     A
C17    C19     1.396   .     A
C18    C20     1.396   .     A
C19    H31     1.084   .     S
C19    C21     1.387   .     A
C20    H32     1.084   .     S
C20    C22     1.387   .     A
C21    C27     1.397   .     A
C21    C23     1.407   .     A
C22    C28     1.397   .     A
C22    C24     1.407   .     A
C23    C25     1.420   .     A
C23    C600    1.410   .     S
C24    C26     1.420   .     A
C24    C599    1.410   1_554 S
C25    C30     1.410   .     A
C26    C29     1.410   .     A
C27    H33     1.084   .     S
C27    C605    1.389   .     S
C28    H34     1.084   .     S
C28    C606    1.389   1_554 S
C29    H35     1.081   .     S
C29    C603    1.389   1_554 S
C30    H36     1.081   .     S
C30    C604    1.389   .     S
C37    Br61    1.934   .     S
C37    C42     1.405   .     A
C37    C167    1.395   1_455 S
C38    C41     1.405   .     A
C38    Br62    1.934   .     S
C38    C104    1.395   .     S
C39    Br63    1.931   .     S
C39    C41     1.406   .     A
C39    C101    1.395   .     S
C40    C42     1.406   .     A
C40    Br64    1.931   .     S
C40    C166    1.395   1_455 S
C43    N52     1.367   .     A
C43    H47     1.081   .     S
C43    C430    1.417   1_545 S
C44    N51     1.367   .     A
C44    H48     1.081   .     S
C44    C237    1.417   .     S
C45    H49     1.081   .     S
C45    N52     1.367   .     A
C45    C428    1.417   1_545 S
C46    H50     1.081   .     S
C46    N51     1.367   .     A
C46    C235    1.417   .     S
C53    H54     1.111   .     S
C53    H55     1.110   .     S
C53    H56     1.107   .     S
C57    H58     1.111   .     S
C57    H59     1.107   .     S
C57    H60     1.110   .     S
O65    C69     1.288   .     A
O65    Cu77    1.957   .     S
O66    C70     1.288   .     A
O66    Cu78    1.957   .     S
O67    Cu77    1.956   .     S
O67    C70     1.289   .     A
O68    Cu78    1.956   .     S
O68    C69     1.289   .     A
C69    C106    1.443   .     S
C70    C105    1.443   .     S
O71    C75     1.293   .     A
O71    Cu77    1.966   .     S
O72    C76     1.293   .     A
O72    Cu78    1.966   .     S
O73    C76     1.293   .     A
O73    Cu77    1.966   .     S
O74    C75     1.293   .     A
O74    Cu78    1.966   .     S
C75    C82     1.459   .     S
C76    C81     1.459   .     S
Cu77   N115    2.013   .     S
Cu77   Cu78    2.679   .     S
Cu78   N116    2.013   .     S
C79    C117    1.519   .     S
C79    C89     1.416   .     A
C79    C81     1.418   .     A
C80    C82     1.418   .     A
C80    C121    1.519   .     S
C80    C90     1.416   .     A
C81    C83     1.396   .     A
C82    C84     1.396   .     A
C83    H95     1.084   .     S
C83    C85     1.387   .     A
C84    H96     1.084   .     S
C84    C86     1.387   .     A
C85    C91     1.397   .     A
C85    C87     1.407   .     A
C86    C92     1.397   .     A
C86    C88     1.407   .     A
C87    C89     1.420   .     A
C87    C664    1.410   .     S
C88    C90     1.420   .     A
C88    C663    1.410   1_554 S
C89    C94     1.410   .     A
C90    C93     1.410   .     A
C91    H97     1.084   .     S
C91    C669    1.389   .     S
C92    H98     1.084   .     S
C92    C670    1.389   1_554 S
C93    H99     1.081   .     S
C93    C667    1.389   1_554 S
C94    H100    1.081   .     S
C94    C668    1.389   .     S
C101   Br125   1.934   .     S
C101   C106    1.405   .     A
C102   C105    1.405   .     A
C102   Br126   1.934   .     S
C102   C168    1.395   .     S
C103   Br127   1.931   .     S
C103   C105    1.406   .     A
C103   C165    1.395   .     S
C104   C106    1.406   .     A
C104   Br128   1.931   .     S
C107   N116    1.367   .     A
C107   H111    1.081   .     S
C107   C494    1.417   1_545 S
C108   N115    1.367   .     A
C108   H112    1.081   .     S
C108   C301    1.417   .     S
C109   H113    1.081   .     S
C109   N116    1.367   .     A
C109   C492    1.417   1_545 S
C110   H114    1.081   .     S
C110   N115    1.367   .     A
C110   C299    1.417   .     S
C117   H118    1.111   .     S
C117   H119    1.110   .     S
C117   H120    1.107   .     S
C121   H122    1.111   .     S
C121   H123    1.107   .     S
C121   H124    1.110   .     S
O129   C133    1.288   .     A
O129   Cu141   1.957   .     S
O130   C134    1.288   .     A
O130   Cu142   1.957   .     S
O131   Cu141   1.956   .     S
O131   C134    1.289   .     A
O132   Cu142   1.956   .     S
O132   C133    1.289   .     A
C133   C170    1.443   .     S
C134   C169    1.443   .     S
O135   C139    1.293   .     A
O135   Cu141   1.966   .     S
O136   C140    1.293   .     A
O136   Cu142   1.966   .     S
O137   C140    1.293   .     A
O137   Cu141   1.966   .     S
O138   C139    1.293   .     A
O138   Cu142   1.966   .     S
C139   C146    1.459   .     S
C140   C145    1.459   .     S
Cu141  N179    2.013   .     S
Cu141  Cu142   2.679   .     S
Cu142  N180    2.013   .     S
C143   C181    1.519   .     S
C143   C153    1.416   .     A
C143   C145    1.418   .     A
C144   C146    1.418   .     A
C144   C185    1.519   .     S
C144   C154    1.416   .     A
C145   C147    1.396   .     A
C146   C148    1.396   .     A
C147   H159    1.084   .     S
C147   C149    1.387   .     A
C148   H160    1.084   .     S
C148   C150    1.387   .     A
C149   C155    1.397   .     A
C149   C151    1.407   .     A
C150   C156    1.397   .     A
C150   C152    1.407   .     A
C151   C153    1.420   .     A
C151   C728    1.410   .     S
C152   C154    1.420   .     A
C152   C727    1.410   1_554 S
C153   C158    1.410   .     A
C154   C157    1.410   .     A
C155   H161    1.084   .     S
C155   C733    1.389   .     S
C156   H162    1.084   .     S
C156   C734    1.389   1_554 S
C157   H163    1.081   .     S
C157   C731    1.389   1_554 S
C158   H164    1.081   .     S
C158   C732    1.389   .     S
C165   Br189   1.934   .     S
C165   C170    1.405   .     A
C166   C169    1.405   .     A
C166   Br190   1.934   .     S
C166   C40     1.395   1_655 S
C167   Br191   1.931   .     S
C167   C169    1.406   .     A
C167   C37     1.395   1_655 S
C168   C170    1.406   .     A
C168   Br192   1.931   .     S
C171   N180    1.367   .     A
C171   H175    1.081   .     S
C171   C558    1.417   1_545 S
C172   N179    1.367   .     A
C172   H176    1.081   .     S
C172   C365    1.417   .     S
C173   H177    1.081   .     S
C173   N180    1.367   .     A
C173   C556    1.417   1_545 S
C174   H178    1.081   .     S
C174   N179    1.367   .     A
C174   C363    1.417   .     S
C181   H182    1.111   .     S
C181   H183    1.110   .     S
C181   H184    1.107   .     S
C185   H186    1.111   .     S
C185   H187    1.107   .     S
C185   H188    1.110   .     S
O193   C197    1.288   .     A
O193   Cu205   1.957   .     S
O194   C198    1.288   .     A
O194   Cu206   1.957   .     S
O195   Cu205   1.956   .     S
O195   C198    1.289   .     A
O196   Cu206   1.956   .     S
O196   C197    1.289   .     A
C197   C234    1.443   .     S
C198   C233    1.443   .     S
O199   C203    1.293   .     A
O199   Cu205   1.966   .     S
O200   C204    1.293   .     A
O200   Cu206   1.966   .     S
O201   C204    1.293   .     A
O201   Cu205   1.966   .     S
O202   C203    1.293   .     A
O202   Cu206   1.966   .     S
C203   C210    1.459   .     S
C204   C209    1.459   .     S
Cu205  N243    2.013   .     S
Cu205  Cu206   2.679   .     S
Cu206  N244    2.013   .     S
C207   C245    1.519   .     S
C207   C217    1.416   .     A
C207   C209    1.418   .     A
C208   C210    1.418   .     A
C208   C249    1.519   .     S
C208   C218    1.416   .     A
C209   C211    1.396   .     A
C210   C212    1.396   .     A
C211   H223    1.084   .     S
C211   C213    1.387   .     A
C212   H224    1.084   .     S
C212   C214    1.387   .     A
C213   C219    1.397   .     A
C213   C215    1.407   .     A
C214   C220    1.397   .     A
C214   C216    1.407   .     A
C215   C217    1.420   .     A
C215   C792    1.410   .     S
C216   C218    1.420   .     A
C216   C791    1.410   1_554 S
C217   C222    1.410   .     A
C218   C221    1.410   .     A
C219   H225    1.084   .     S
C219   C797    1.389   .     S
C220   H226    1.084   .     S
C220   C798    1.389   1_554 S
C221   H227    1.081   .     S
C221   C795    1.389   1_554 S
C222   H228    1.081   .     S
C222   C796    1.389   .     S
C229   Br253   1.934   .     S
C229   C234    1.405   .     A
C229   C359    1.395   1_455 S
C230   C233    1.405   .     A
C230   Br254   1.934   .     S
C230   C296    1.395   .     S
C231   Br255   1.931   .     S
C231   C233    1.406   .     A
C231   C293    1.395   .     S
C232   C234    1.406   .     A
C232   Br256   1.931   .     S
C232   C358    1.395   1_455 S
C235   N244    1.367   .     A
C235   H239    1.081   .     S
C236   N243    1.367   .     A
C236   H240    1.081   .     S
C236   C429    1.417   .     S
C237   H241    1.081   .     S
C237   N244    1.367   .     A
C238   H242    1.081   .     S
C238   N243    1.367   .     A
C238   C427    1.417   .     S
C245   H246    1.111   .     S
C245   H247    1.110   .     S
C245   H248    1.107   .     S
C249   H250    1.111   .     S
C249   H251    1.107   .     S
C249   H252    1.110   .     S
O257   C261    1.288   .     A
O257   Cu269   1.957   .     S
O258   C262    1.288   .     A
O258   Cu270   1.957   .     S
O259   Cu269   1.956   .     S
O259   C262    1.289   .     A
O260   Cu270   1.956   .     S
O260   C261    1.289   .     A
C261   C298    1.443   .     S
C262   C297    1.443   .     S
O263   C267    1.293   .     A
O263   Cu269   1.966   .     S
O264   C268    1.293   .     A
O264   Cu270   1.966   .     S
O265   C268    1.293   .     A
O265   Cu269   1.966   .     S
O266   C267    1.293   .     A
O266   Cu270   1.966   .     S
C267   C274    1.459   .     S
C268   C273    1.459   .     S
Cu269  N307    2.013   .     S
Cu269  Cu270   2.679   .     S
Cu270  N308    2.013   .     S
C271   C309    1.519   .     S
C271   C281    1.416   .     A
C271   C273    1.418   .     A
C272   C274    1.418   .     A
C272   C313    1.519   .     S
C272   C282    1.416   .     A
C273   C275    1.396   .     A
C274   C276    1.396   .     A
C275   H287    1.084   .     S
C275   C277    1.387   .     A
C276   H288    1.084   .     S
C276   C278    1.387   .     A
C277   C283    1.397   .     A
C277   C279    1.407   .     A
C278   C284    1.397   .     A
C278   C280    1.407   .     A
C279   C281    1.420   .     A
C279   C856    1.410   .     S
C280   C282    1.420   .     A
C280   C855    1.410   1_554 S
C281   C286    1.410   .     A
C282   C285    1.410   .     A
C283   H289    1.084   .     S
C283   C861    1.389   .     S
C284   H290    1.084   .     S
C284   C862    1.389   1_554 S
C285   H291    1.081   .     S
C285   C859    1.389   1_554 S
C286   H292    1.081   .     S
C286   C860    1.389   .     S
C293   Br317   1.934   .     S
C293   C298    1.405   .     A
C294   C297    1.405   .     A
C294   Br318   1.934   .     S
C294   C360    1.395   .     S
C295   Br319   1.931   .     S
C295   C297    1.406   .     A
C295   C357    1.395   .     S
C296   C298    1.406   .     A
C296   Br320   1.931   .     S
C299   N308    1.367   .     A
C299   H303    1.081   .     S
C300   N307    1.367   .     A
C300   H304    1.081   .     S
C300   C493    1.417   .     S
C301   H305    1.081   .     S
C301   N308    1.367   .     A
C302   H306    1.081   .     S
C302   N307    1.367   .     A
C302   C491    1.417   .     S
C309   H310    1.111   .     S
C309   H311    1.110   .     S
C309   H312    1.107   .     S
C313   H314    1.111   .     S
C313   H315    1.107   .     S
C313   H316    1.110   .     S
O321   C325    1.288   .     A
O321   Cu333   1.957   .     S
O322   C326    1.288   .     A
O322   Cu334   1.957   .     S
O323   Cu333   1.956   .     S
O323   C326    1.289   .     A
O324   Cu334   1.956   .     S
O324   C325    1.289   .     A
C325   C362    1.443   .     S
C326   C361    1.443   .     S
O327   C331    1.293   .     A
O327   Cu333   1.966   .     S
O328   C332    1.293   .     A
O328   Cu334   1.966   .     S
O329   C332    1.293   .     A
O329   Cu333   1.966   .     S
O330   C331    1.293   .     A
O330   Cu334   1.966   .     S
C331   C338    1.459   .     S
C332   C337    1.459   .     S
Cu333  N371    2.013   .     S
Cu333  Cu334   2.679   .     S
Cu334  N372    2.013   .     S
C335   C373    1.519   .     S
C335   C345    1.416   .     A
C335   C337    1.418   .     A
C336   C338    1.418   .     A
C336   C377    1.519   .     S
C336   C346    1.416   .     A
C337   C339    1.396   .     A
C338   C340    1.396   .     A
C339   H351    1.084   .     S
C339   C341    1.387   .     A
C340   H352    1.084   .     S
C340   C342    1.387   .     A
C341   C347    1.397   .     A
C341   C343    1.407   .     A
C342   C348    1.397   .     A
C342   C344    1.407   .     A
C343   C345    1.420   .     A
C343   C920    1.410   .     S
C344   C346    1.420   .     A
C344   C919    1.410   1_554 S
C345   C350    1.410   .     A
C346   C349    1.410   .     A
C347   H353    1.084   .     S
C347   C925    1.389   .     S
C348   H354    1.084   .     S
C348   C926    1.389   1_554 S
C349   H355    1.081   .     S
C349   C923    1.389   1_554 S
C350   H356    1.081   .     S
C350   C924    1.389   .     S
C357   Br381   1.934   .     S
C357   C362    1.405   .     A
C358   C361    1.405   .     A
C358   Br382   1.934   .     S
C358   C232    1.395   1_655 S
C359   Br383   1.931   .     S
C359   C361    1.406   .     A
C359   C229    1.395   1_655 S
C360   C362    1.406   .     A
C360   Br384   1.931   .     S
C363   N372    1.367   .     A
C363   H367    1.081   .     S
C364   N371    1.367   .     A
C364   H368    1.081   .     S
C364   C557    1.417   .     S
C365   H369    1.081   .     S
C365   N372    1.367   .     A
C366   H370    1.081   .     S
C366   N371    1.367   .     A
C366   C555    1.417   .     S
C373   H374    1.111   .     S
C373   H375    1.110   .     S
C373   H376    1.107   .     S
C377   H378    1.111   .     S
C377   H379    1.107   .     S
C377   H380    1.110   .     S
O385   C389    1.288   .     A
O385   Cu397   1.957   .     S
O386   C390    1.288   .     A
O386   Cu398   1.957   .     S
O387   Cu397   1.956   .     S
O387   C390    1.289   .     A
O388   Cu398   1.956   .     S
O388   C389    1.289   .     A
C389   C426    1.443   .     S
C390   C425    1.443   .     S
O391   C395    1.293   .     A
O391   Cu397   1.966   .     S
O392   C396    1.293   .     A
O392   Cu398   1.966   .     S
O393   C396    1.293   .     A
O393   Cu397   1.966   .     S
O394   C395    1.293   .     A
O394   Cu398   1.966   .     S
C395   C402    1.459   .     S
C396   C401    1.459   .     S
Cu397  N435    2.013   .     S
Cu397  Cu398   2.679   .     S
Cu398  N436    2.013   .     S
C399   C437    1.519   .     S
C399   C409    1.416   .     A
C399   C401    1.418   .     A
C400   C402    1.418   .     A
C400   C441    1.519   .     S
C400   C410    1.416   .     A
C401   C403    1.396   .     A
C402   C404    1.396   .     A
C403   H415    1.084   .     S
C403   C405    1.387   .     A
C404   H416    1.084   .     S
C404   C406    1.387   .     A
C405   C411    1.397   .     A
C405   C407    1.407   .     A
C406   C412    1.397   .     A
C406   C408    1.407   .     A
C407   C409    1.420   .     A
C407   C984    1.410   .     S
C408   C410    1.420   .     A
C408   C983    1.410   1_554 S
C409   C414    1.410   .     A
C410   C413    1.410   .     A
C411   H417    1.084   .     S
C411   C989    1.389   .     S
C412   H418    1.084   .     S
C412   C990    1.389   1_554 S
C413   H419    1.081   .     S
C413   C987    1.389   1_554 S
C414   H420    1.081   .     S
C414   C988    1.389   .     S
C421   Br445   1.934   .     S
C421   C426    1.405   .     A
C421   C551    1.395   1_455 S
C422   C425    1.405   .     A
C422   Br446   1.934   .     S
C422   C488    1.395   .     S
C423   Br447   1.931   .     S
C423   C425    1.406   .     A
C423   C485    1.395   .     S
C424   C426    1.406   .     A
C424   Br448   1.931   .     S
C424   C550    1.395   1_455 S
C427   N436    1.367   .     A
C427   H431    1.081   .     S
C428   N435    1.367   .     A
C428   H432    1.081   .     S
C428   C45     1.417   1_565 S
C429   H433    1.081   .     S
C429   N436    1.367   .     A
C430   H434    1.081   .     S
C430   N435    1.367   .     A
C430   C43     1.417   1_565 S
C437   H438    1.111   .     S
C437   H439    1.110   .     S
C437   H440    1.107   .     S
C441   H442    1.111   .     S
C441   H443    1.107   .     S
C441   H444    1.110   .     S
O449   C453    1.288   .     A
O449   Cu461   1.957   .     S
O450   C454    1.288   .     A
O450   Cu462   1.957   .     S
O451   Cu461   1.956   .     S
O451   C454    1.289   .     A
O452   Cu462   1.956   .     S
O452   C453    1.289   .     A
C453   C490    1.443   .     S
C454   C489    1.443   .     S
O455   C459    1.293   .     A
O455   Cu461   1.966   .     S
O456   C460    1.293   .     A
O456   Cu462   1.966   .     S
O457   C460    1.293   .     A
O457   Cu461   1.966   .     S
O458   C459    1.293   .     A
O458   Cu462   1.966   .     S
C459   C466    1.459   .     S
C460   C465    1.459   .     S
Cu461  N499    2.013   .     S
Cu461  Cu462   2.679   .     S
Cu462  N500    2.013   .     S
C463   C501    1.519   .     S
C463   C473    1.416   .     A
C463   C465    1.418   .     A
C464   C466    1.418   .     A
C464   C505    1.519   .     S
C464   C474    1.416   .     A
C465   C467    1.396   .     A
C466   C468    1.396   .     A
C467   H479    1.084   .     S
C467   C469    1.387   .     A
C468   H480    1.084   .     S
C468   C470    1.387   .     A
C469   C475    1.397   .     A
C469   C471    1.407   .     A
C470   C476    1.397   .     A
C470   C472    1.407   .     A
C471   C473    1.420   .     A
C471   C1048   1.410   .     S
C472   C474    1.420   .     A
C472   C1047   1.410   1_554 S
C473   C478    1.410   .     A
C474   C477    1.410   .     A
C475   H481    1.084   .     S
C475   C1053   1.389   .     S
C476   H482    1.084   .     S
C476   C1054   1.389   1_554 S
C477   H483    1.081   .     S
C477   C1051   1.389   1_554 S
C478   H484    1.081   .     S
C478   C1052   1.389   .     S
C485   Br509   1.934   .     S
C485   C490    1.405   .     A
C486   C489    1.405   .     A
C486   Br510   1.934   .     S
C486   C552    1.395   .     S
C487   Br511   1.931   .     S
C487   C489    1.406   .     A
C487   C549    1.395   .     S
C488   C490    1.406   .     A
C488   Br512   1.931   .     S
C491   N500    1.367   .     A
C491   H495    1.081   .     S
C492   N499    1.367   .     A
C492   H496    1.081   .     S
C492   C109    1.417   1_565 S
C493   H497    1.081   .     S
C493   N500    1.367   .     A
C494   H498    1.081   .     S
C494   N499    1.367   .     A
C494   C107    1.417   1_565 S
C501   H502    1.111   .     S
C501   H503    1.110   .     S
C501   H504    1.107   .     S
C505   H506    1.111   .     S
C505   H507    1.107   .     S
C505   H508    1.110   .     S
O513   C517    1.288   .     A
O513   Cu525   1.957   .     S
O514   C518    1.288   .     A
O514   Cu526   1.957   .     S
O515   Cu525   1.956   .     S
O515   C518    1.289   .     A
O516   Cu526   1.956   .     S
O516   C517    1.289   .     A
C517   C554    1.443   .     S
C518   C553    1.443   .     S
O519   C523    1.293   .     A
O519   Cu525   1.966   .     S
O520   C524    1.293   .     A
O520   Cu526   1.966   .     S
O521   C524    1.293   .     A
O521   Cu525   1.966   .     S
O522   C523    1.293   .     A
O522   Cu526   1.966   .     S
C523   C530    1.459   .     S
C524   C529    1.459   .     S
Cu525  N563    2.013   .     S
Cu525  Cu526   2.679   .     S
Cu526  N564    2.013   .     S
C527   C565    1.519   .     S
C527   C537    1.416   .     A
C527   C529    1.418   .     A
C528   C530    1.418   .     A
C528   C569    1.519   .     S
C528   C538    1.416   .     A
C529   C531    1.396   .     A
C530   C532    1.396   .     A
C531   H543    1.084   .     S
C531   C533    1.387   .     A
C532   H544    1.084   .     S
C532   C534    1.387   .     A
C533   C539    1.397   .     A
C533   C535    1.407   .     A
C534   C540    1.397   .     A
C534   C536    1.407   .     A
C535   C537    1.420   .     A
C535   C1112   1.410   .     S
C536   C538    1.420   .     A
C536   C1111   1.410   1_554 S
C537   C542    1.410   .     A
C538   C541    1.410   .     A
C539   H545    1.084   .     S
C539   C1117   1.389   .     S
C540   H546    1.084   .     S
C540   C1118   1.389   1_554 S
C541   H547    1.081   .     S
C541   C1115   1.389   1_554 S
C542   H548    1.081   .     S
C542   C1116   1.389   .     S
C549   Br573   1.934   .     S
C549   C554    1.405   .     A
C550   C553    1.405   .     A
C550   Br574   1.934   .     S
C550   C424    1.395   1_655 S
C551   Br575   1.931   .     S
C551   C553    1.406   .     A
C551   C421    1.395   1_655 S
C552   C554    1.406   .     A
C552   Br576   1.931   .     S
C555   N564    1.367   .     A
C555   H559    1.081   .     S
C556   N563    1.367   .     A
C556   H560    1.081   .     S
C556   C173    1.417   1_565 S
C557   H561    1.081   .     S
C557   N564    1.367   .     A
C558   H562    1.081   .     S
C558   N563    1.367   .     A
C558   C171    1.417   1_565 S
C565   H566    1.111   .     S
C565   H567    1.110   .     S
C565   H568    1.107   .     S
C569   H570    1.111   .     S
C569   H571    1.107   .     S
C569   H572    1.110   .     S
O577   C581    1.288   .     A
O577   Cu589   1.957   .     S
O578   C582    1.288   .     A
O578   Cu590   1.957   .     S
O579   Cu589   1.956   .     S
O579   C582    1.289   .     A
O580   Cu590   1.956   .     S
O580   C581    1.289   .     A
C581   C618    1.443   .     S
C582   C617    1.443   .     S
O583   C587    1.293   .     A
O583   Cu589   1.966   .     S
O584   C588    1.293   .     A
O584   Cu590   1.966   .     S
O585   C588    1.293   .     A
O585   Cu589   1.966   .     S
O586   C587    1.293   .     A
O586   Cu590   1.966   .     S
C587   C594    1.459   .     S
C588   C593    1.459   .     S
Cu589  N627    2.013   .     S
Cu589  Cu590   2.679   .     S
Cu590  N628    2.013   .     S
C591   C629    1.519   .     S
C591   C601    1.416   .     A
C591   C593    1.418   .     A
C592   C594    1.418   .     A
C592   C633    1.519   .     S
C592   C602    1.416   .     A
C593   C595    1.396   .     A
C594   C596    1.396   .     A
C595   H607    1.084   .     S
C595   C597    1.387   .     A
C596   H608    1.084   .     S
C596   C598    1.387   .     A
C597   C603    1.397   .     A
C597   C599    1.407   .     A
C598   C604    1.397   .     A
C598   C600    1.407   .     A
C599   C601    1.420   .     A
C599   C24     1.410   1_556 S
C600   C602    1.420   .     A
C601   C606    1.410   .     A
C602   C605    1.410   .     A
C603   H609    1.084   .     S
C603   C29     1.389   1_556 S
C604   H610    1.084   .     S
C605   H611    1.081   .     S
C606   H612    1.081   .     S
C606   C28     1.389   1_556 S
C613   Br637   1.934   .     S
C613   C618    1.405   .     A
C613   C743    1.395   1_455 S
C614   C617    1.405   .     A
C614   Br638   1.934   .     S
C614   C680    1.395   .     S
C615   Br639   1.931   .     S
C615   C617    1.406   .     A
C615   C677    1.395   .     S
C616   C618    1.406   .     A
C616   Br640   1.931   .     S
C616   C742    1.395   1_455 S
C619   N628    1.367   .     A
C619   H623    1.081   .     S
C619   C1006   1.417   1_545 S
C620   N627    1.367   .     A
C620   H624    1.081   .     S
C620   C813    1.417   .     S
C621   H625    1.081   .     S
C621   N628    1.367   .     A
C621   C1004   1.417   1_545 S
C622   H626    1.081   .     S
C622   N627    1.367   .     A
C622   C811    1.417   .     S
C629   H630    1.111   .     S
C629   H631    1.110   .     S
C629   H632    1.107   .     S
C633   H634    1.111   .     S
C633   H635    1.107   .     S
C633   H636    1.110   .     S
O641   C645    1.288   .     A
O641   Cu653   1.957   .     S
O642   C646    1.288   .     A
O642   Cu654   1.957   .     S
O643   Cu653   1.956   .     S
O643   C646    1.289   .     A
O644   Cu654   1.956   .     S
O644   C645    1.289   .     A
C645   C682    1.443   .     S
C646   C681    1.443   .     S
O647   C651    1.293   .     A
O647   Cu653   1.966   .     S
O648   C652    1.293   .     A
O648   Cu654   1.966   .     S
O649   C652    1.293   .     A
O649   Cu653   1.966   .     S
O650   C651    1.293   .     A
O650   Cu654   1.966   .     S
C651   C658    1.459   .     S
C652   C657    1.459   .     S
Cu653  N691    2.013   .     S
Cu653  Cu654   2.679   .     S
Cu654  N692    2.013   .     S
C655   C693    1.519   .     S
C655   C665    1.416   .     A
C655   C657    1.418   .     A
C656   C658    1.418   .     A
C656   C697    1.519   .     S
C656   C666    1.416   .     A
C657   C659    1.396   .     A
C658   C660    1.396   .     A
C659   H671    1.084   .     S
C659   C661    1.387   .     A
C660   H672    1.084   .     S
C660   C662    1.387   .     A
C661   C667    1.397   .     A
C661   C663    1.407   .     A
C662   C668    1.397   .     A
C662   C664    1.407   .     A
C663   C665    1.420   .     A
C663   C88     1.410   1_556 S
C664   C666    1.420   .     A
C665   C670    1.410   .     A
C666   C669    1.410   .     A
C667   H673    1.084   .     S
C667   C93     1.389   1_556 S
C668   H674    1.084   .     S
C669   H675    1.081   .     S
C670   H676    1.081   .     S
C670   C92     1.389   1_556 S
C677   Br701   1.934   .     S
C677   C682    1.405   .     A
C678   C681    1.405   .     A
C678   Br702   1.934   .     S
C678   C744    1.395   .     S
C679   Br703   1.931   .     S
C679   C681    1.406   .     A
C679   C741    1.395   .     S
C680   C682    1.406   .     A
C680   Br704   1.931   .     S
C683   N692    1.367   .     A
C683   H687    1.081   .     S
C683   C1070   1.417   1_545 S
C684   N691    1.367   .     A
C684   H688    1.081   .     S
C684   C877    1.417   .     S
C685   H689    1.081   .     S
C685   N692    1.367   .     A
C685   C1068   1.417   1_545 S
C686   H690    1.081   .     S
C686   N691    1.367   .     A
C686   C875    1.417   .     S
C693   H694    1.111   .     S
C693   H695    1.110   .     S
C693   H696    1.107   .     S
C697   H698    1.111   .     S
C697   H699    1.107   .     S
C697   H700    1.110   .     S
O705   C709    1.288   .     A
O705   Cu717   1.957   .     S
O706   C710    1.288   .     A
O706   Cu718   1.957   .     S
O707   Cu717   1.956   .     S
O707   C710    1.289   .     A
O708   Cu718   1.956   .     S
O708   C709    1.289   .     A
C709   C746    1.443   .     S
C710   C745    1.443   .     S
O711   C715    1.293   .     A
O711   Cu717   1.966   .     S
O712   C716    1.293   .     A
O712   Cu718   1.966   .     S
O713   C716    1.293   .     A
O713   Cu717   1.966   .     S
O714   C715    1.293   .     A
O714   Cu718   1.966   .     S
C715   C722    1.459   .     S
C716   C721    1.459   .     S
Cu717  N755    2.013   .     S
Cu717  Cu718   2.679   .     S
Cu718  N756    2.013   .     S
C719   C757    1.519   .     S
C719   C729    1.416   .     A
C719   C721    1.418   .     A
C720   C722    1.418   .     A
C720   C761    1.519   .     S
C720   C730    1.416   .     A
C721   C723    1.396   .     A
C722   C724    1.396   .     A
C723   H735    1.084   .     S
C723   C725    1.387   .     A
C724   H736    1.084   .     S
C724   C726    1.387   .     A
C725   C731    1.397   .     A
C725   C727    1.407   .     A
C726   C732    1.397   .     A
C726   C728    1.407   .     A
C727   C729    1.420   .     A
C727   C152    1.410   1_556 S
C728   C730    1.420   .     A
C729   C734    1.410   .     A
C730   C733    1.410   .     A
C731   H737    1.084   .     S
C731   C157    1.389   1_556 S
C732   H738    1.084   .     S
C733   H739    1.081   .     S
C734   H740    1.081   .     S
C734   C156    1.389   1_556 S
C741   Br765   1.934   .     S
C741   C746    1.405   .     A
C742   C745    1.405   .     A
C742   Br766   1.934   .     S
C742   C616    1.395   1_655 S
C743   Br767   1.931   .     S
C743   C745    1.406   .     A
C743   C613    1.395   1_655 S
C744   C746    1.406   .     A
C744   Br768   1.931   .     S
C747   N756    1.367   .     A
C747   H751    1.081   .     S
C747   C1134   1.417   1_545 S
C748   N755    1.367   .     A
C748   H752    1.081   .     S
C748   C941    1.417   .     S
C749   H753    1.081   .     S
C749   N756    1.367   .     A
C749   C1132   1.417   1_545 S
C750   H754    1.081   .     S
C750   N755    1.367   .     A
C750   C939    1.417   .     S
C757   H758    1.111   .     S
C757   H759    1.110   .     S
C757   H760    1.107   .     S
C761   H762    1.111   .     S
C761   H763    1.107   .     S
C761   H764    1.110   .     S
O769   C773    1.288   .     A
O769   Cu781   1.957   .     S
O770   C774    1.288   .     A
O770   Cu782   1.957   .     S
O771   Cu781   1.956   .     S
O771   C774    1.289   .     A
O772   Cu782   1.956   .     S
O772   C773    1.289   .     A
C773   C810    1.443   .     S
C774   C809    1.443   .     S
O775   C779    1.293   .     A
O775   Cu781   1.966   .     S
O776   C780    1.293   .     A
O776   Cu782   1.966   .     S
O777   C780    1.293   .     A
O777   Cu781   1.966   .     S
O778   C779    1.293   .     A
O778   Cu782   1.966   .     S
C779   C786    1.459   .     S
C780   C785    1.459   .     S
Cu781  N819    2.013   .     S
Cu781  Cu782   2.679   .     S
Cu782  N820    2.013   .     S
C783   C821    1.519   .     S
C783   C793    1.416   .     A
C783   C785    1.418   .     A
C784   C786    1.418   .     A
C784   C825    1.519   .     S
C784   C794    1.416   .     A
C785   C787    1.396   .     A
C786   C788    1.396   .     A
C787   H799    1.084   .     S
C787   C789    1.387   .     A
C788   H800    1.084   .     S
C788   C790    1.387   .     A
C789   C795    1.397   .     A
C789   C791    1.407   .     A
C790   C796    1.397   .     A
C790   C792    1.407   .     A
C791   C793    1.420   .     A
C791   C216    1.410   1_556 S
C792   C794    1.420   .     A
C793   C798    1.410   .     A
C794   C797    1.410   .     A
C795   H801    1.084   .     S
C795   C221    1.389   1_556 S
C796   H802    1.084   .     S
C797   H803    1.081   .     S
C798   H804    1.081   .     S
C798   C220    1.389   1_556 S
C805   Br829   1.934   .     S
C805   C810    1.405   .     A
C805   C935    1.395   1_455 S
C806   C809    1.405   .     A
C806   Br830   1.934   .     S
C806   C872    1.395   .     S
C807   Br831   1.931   .     S
C807   C809    1.406   .     A
C807   C869    1.395   .     S
C808   C810    1.406   .     A
C808   Br832   1.931   .     S
C808   C934    1.395   1_455 S
C811   N820    1.367   .     A
C811   H815    1.081   .     S
C812   N819    1.367   .     A
C812   H816    1.081   .     S
C812   C1005   1.417   .     S
C813   H817    1.081   .     S
C813   N820    1.367   .     A
C814   H818    1.081   .     S
C814   N819    1.367   .     A
C814   C1003   1.417   .     S
C821   H822    1.111   .     S
C821   H823    1.110   .     S
C821   H824    1.107   .     S
C825   H826    1.111   .     S
C825   H827    1.107   .     S
C825   H828    1.110   .     S
O833   C837    1.288   .     A
O833   Cu845   1.957   .     S
O834   C838    1.288   .     A
O834   Cu846   1.957   .     S
O835   Cu845   1.956   .     S
O835   C838    1.289   .     A
O836   Cu846   1.956   .     S
O836   C837    1.289   .     A
C837   C874    1.443   .     S
C838   C873    1.443   .     S
O839   C843    1.293   .     A
O839   Cu845   1.966   .     S
O840   C844    1.293   .     A
O840   Cu846   1.966   .     S
O841   C844    1.293   .     A
O841   Cu845   1.966   .     S
O842   C843    1.293   .     A
O842   Cu846   1.966   .     S
C843   C850    1.459   .     S
C844   C849    1.459   .     S
Cu845  N883    2.013   .     S
Cu845  Cu846   2.679   .     S
Cu846  N884    2.013   .     S
C847   C885    1.519   .     S
C847   C857    1.416   .     A
C847   C849    1.418   .     A
C848   C850    1.418   .     A
C848   C889    1.519   .     S
C848   C858    1.416   .     A
C849   C851    1.396   .     A
C850   C852    1.396   .     A
C851   H863    1.084   .     S
C851   C853    1.387   .     A
C852   H864    1.084   .     S
C852   C854    1.387   .     A
C853   C859    1.397   .     A
C853   C855    1.407   .     A
C854   C860    1.397   .     A
C854   C856    1.407   .     A
C855   C857    1.420   .     A
C855   C280    1.410   1_556 S
C856   C858    1.420   .     A
C857   C862    1.410   .     A
C858   C861    1.410   .     A
C859   H865    1.084   .     S
C859   C285    1.389   1_556 S
C860   H866    1.084   .     S
C861   H867    1.081   .     S
C862   H868    1.081   .     S
C862   C284    1.389   1_556 S
C869   Br893   1.934   .     S
C869   C874    1.405   .     A
C870   C873    1.405   .     A
C870   Br894   1.934   .     S
C870   C936    1.395   .     S
C871   Br895   1.931   .     S
C871   C873    1.406   .     A
C871   C933    1.395   .     S
C872   C874    1.406   .     A
C872   Br896   1.931   .     S
C875   N884    1.367   .     A
C875   H879    1.081   .     S
C876   N883    1.367   .     A
C876   H880    1.081   .     S
C876   C1069   1.417   .     S
C877   H881    1.081   .     S
C877   N884    1.367   .     A
C878   H882    1.081   .     S
C878   N883    1.367   .     A
C878   C1067   1.417   .     S
C885   H886    1.111   .     S
C885   H887    1.110   .     S
C885   H888    1.107   .     S
C889   H890    1.111   .     S
C889   H891    1.107   .     S
C889   H892    1.110   .     S
O897   C901    1.288   .     A
O897   Cu909   1.957   .     S
O898   C902    1.288   .     A
O898   Cu910   1.957   .     S
O899   Cu909   1.956   .     S
O899   C902    1.289   .     A
O900   Cu910   1.956   .     S
O900   C901    1.289   .     A
C901   C938    1.443   .     S
C902   C937    1.443   .     S
O903   C907    1.293   .     A
O903   Cu909   1.966   .     S
O904   C908    1.293   .     A
O904   Cu910   1.966   .     S
O905   C908    1.293   .     A
O905   Cu909   1.966   .     S
O906   C907    1.293   .     A
O906   Cu910   1.966   .     S
C907   C914    1.459   .     S
C908   C913    1.459   .     S
Cu909  N947    2.013   .     S
Cu909  Cu910   2.679   .     S
Cu910  N948    2.013   .     S
C911   C949    1.519   .     S
C911   C921    1.416   .     A
C911   C913    1.418   .     A
C912   C914    1.418   .     A
C912   C953    1.519   .     S
C912   C922    1.416   .     A
C913   C915    1.396   .     A
C914   C916    1.396   .     A
C915   H927    1.084   .     S
C915   C917    1.387   .     A
C916   H928    1.084   .     S
C916   C918    1.387   .     A
C917   C923    1.397   .     A
C917   C919    1.407   .     A
C918   C924    1.397   .     A
C918   C920    1.407   .     A
C919   C921    1.420   .     A
C919   C344    1.410   1_556 S
C920   C922    1.420   .     A
C921   C926    1.410   .     A
C922   C925    1.410   .     A
C923   H929    1.084   .     S
C923   C349    1.389   1_556 S
C924   H930    1.084   .     S
C925   H931    1.081   .     S
C926   H932    1.081   .     S
C926   C348    1.389   1_556 S
C933   Br957   1.934   .     S
C933   C938    1.405   .     A
C934   C937    1.405   .     A
C934   Br958   1.934   .     S
C934   C808    1.395   1_655 S
C935   Br959   1.931   .     S
C935   C937    1.406   .     A
C935   C805    1.395   1_655 S
C936   C938    1.406   .     A
C936   Br960   1.931   .     S
C939   N948    1.367   .     A
C939   H943    1.081   .     S
C940   N947    1.367   .     A
C940   H944    1.081   .     S
C940   C1133   1.417   .     S
C941   H945    1.081   .     S
C941   N948    1.367   .     A
C942   H946    1.081   .     S
C942   N947    1.367   .     A
C942   C1131   1.417   .     S
C949   H950    1.111   .     S
C949   H951    1.110   .     S
C949   H952    1.107   .     S
C953   H954    1.111   .     S
C953   H955    1.107   .     S
C953   H956    1.110   .     S
O961   C965    1.288   .     A
O961   Cu973   1.957   .     S
O962   C966    1.288   .     A
O962   Cu974   1.957   .     S
O963   Cu973   1.956   .     S
O963   C966    1.289   .     A
O964   Cu974   1.956   .     S
O964   C965    1.289   .     A
C965   C1002   1.443   .     S
C966   C1001   1.443   .     S
O967   C971    1.293   .     A
O967   Cu973   1.966   .     S
O968   C972    1.293   .     A
O968   Cu974   1.966   .     S
O969   C972    1.293   .     A
O969   Cu973   1.966   .     S
O970   C971    1.293   .     A
O970   Cu974   1.966   .     S
C971   C978    1.459   .     S
C972   C977    1.459   .     S
Cu973  N1011   2.013   .     S
Cu973  Cu974   2.679   .     S
Cu974  N1012   2.013   .     S
C975   C1013   1.519   .     S
C975   C985    1.416   .     A
C975   C977    1.418   .     A
C976   C978    1.418   .     A
C976   C1017   1.519   .     S
C976   C986    1.416   .     A
C977   C979    1.396   .     A
C978   C980    1.396   .     A
C979   H991    1.084   .     S
C979   C981    1.387   .     A
C980   H992    1.084   .     S
C980   C982    1.387   .     A
C981   C987    1.397   .     A
C981   C983    1.407   .     A
C982   C988    1.397   .     A
C982   C984    1.407   .     A
C983   C985    1.420   .     A
C983   C408    1.410   1_556 S
C984   C986    1.420   .     A
C985   C990    1.410   .     A
C986   C989    1.410   .     A
C987   H993    1.084   .     S
C987   C413    1.389   1_556 S
C988   H994    1.084   .     S
C989   H995    1.081   .     S
C990   H996    1.081   .     S
C990   C412    1.389   1_556 S
C997   Br1021  1.934   .     S
C997   C1002   1.405   .     A
C997   C1127   1.395   1_455 S
C998   C1001   1.405   .     A
C998   Br1022  1.934   .     S
C998   C1064   1.395   .     S
C999   Br1023  1.931   .     S
C999   C1001   1.406   .     A
C999   C1061   1.395   .     S
C1000  C1002   1.406   .     A
C1000  Br1024  1.931   .     S
C1000  C1126   1.395   1_455 S
C1003  N1012   1.367   .     A
C1003  H1007   1.081   .     S
C1004  N1011   1.367   .     A
C1004  H1008   1.081   .     S
C1004  C621    1.417   1_565 S
C1005  H1009   1.081   .     S
C1005  N1012   1.367   .     A
C1006  H1010   1.081   .     S
C1006  N1011   1.367   .     A
C1006  C619    1.417   1_565 S
C1013  H1014   1.111   .     S
C1013  H1015   1.110   .     S
C1013  H1016   1.107   .     S
C1017  H1018   1.111   .     S
C1017  H1019   1.107   .     S
C1017  H1020   1.110   .     S
O1025  C1029   1.288   .     A
O1025  Cu1037  1.957   .     S
O1026  C1030   1.288   .     A
O1026  Cu1038  1.957   .     S
O1027  Cu1037  1.956   .     S
O1027  C1030   1.289   .     A
O1028  Cu1038  1.956   .     S
O1028  C1029   1.289   .     A
C1029  C1066   1.443   .     S
C1030  C1065   1.443   .     S
O1031  C1035   1.293   .     A
O1031  Cu1037  1.966   .     S
O1032  C1036   1.293   .     A
O1032  Cu1038  1.966   .     S
O1033  C1036   1.293   .     A
O1033  Cu1037  1.966   .     S
O1034  C1035   1.293   .     A
O1034  Cu1038  1.966   .     S
C1035  C1042   1.459   .     S
C1036  C1041   1.459   .     S
Cu1037 N1075   2.013   .     S
Cu1037 Cu1038  2.679   .     S
Cu1038 N1076   2.013   .     S
C1039  C1077   1.519   .     S
C1039  C1049   1.416   .     A
C1039  C1041   1.418   .     A
C1040  C1042   1.418   .     A
C1040  C1081   1.519   .     S
C1040  C1050   1.416   .     A
C1041  C1043   1.396   .     A
C1042  C1044   1.396   .     A
C1043  H1055   1.084   .     S
C1043  C1045   1.387   .     A
C1044  H1056   1.084   .     S
C1044  C1046   1.387   .     A
C1045  C1051   1.397   .     A
C1045  C1047   1.407   .     A
C1046  C1052   1.397   .     A
C1046  C1048   1.407   .     A
C1047  C1049   1.420   .     A
C1047  C472    1.410   1_556 S
C1048  C1050   1.420   .     A
C1049  C1054   1.410   .     A
C1050  C1053   1.410   .     A
C1051  H1057   1.084   .     S
C1051  C477    1.389   1_556 S
C1052  H1058   1.084   .     S
C1053  H1059   1.081   .     S
C1054  H1060   1.081   .     S
C1054  C476    1.389   1_556 S
C1061  Br1085  1.934   .     S
C1061  C1066   1.405   .     A
C1062  C1065   1.405   .     A
C1062  Br1086  1.934   .     S
C1062  C1128   1.395   .     S
C1063  Br1087  1.931   .     S
C1063  C1065   1.406   .     A
C1063  C1125   1.395   .     S
C1064  C1066   1.406   .     A
C1064  Br1088  1.931   .     S
C1067  N1076   1.367   .     A
C1067  H1071   1.081   .     S
C1068  N1075   1.367   .     A
C1068  H1072   1.081   .     S
C1068  C685    1.417   1_565 S
C1069  H1073   1.081   .     S
C1069  N1076   1.367   .     A
C1070  H1074   1.081   .     S
C1070  N1075   1.367   .     A
C1070  C683    1.417   1_565 S
C1077  H1078   1.111   .     S
C1077  H1079   1.110   .     S
C1077  H1080   1.107   .     S
C1081  H1082   1.111   .     S
C1081  H1083   1.107   .     S
C1081  H1084   1.110   .     S
O1089  C1093   1.288   .     A
O1089  Cu1101  1.957   .     S
O1090  C1094   1.288   .     A
O1090  Cu1102  1.957   .     S
O1091  Cu1101  1.956   .     S
O1091  C1094   1.289   .     A
O1092  Cu1102  1.956   .     S
O1092  C1093   1.289   .     A
C1093  C1130   1.443   .     S
C1094  C1129   1.443   .     S
O1095  C1099   1.293   .     A
O1095  Cu1101  1.966   .     S
O1096  C1100   1.293   .     A
O1096  Cu1102  1.966   .     S
O1097  C1100   1.293   .     A
O1097  Cu1101  1.966   .     S
O1098  C1099   1.293   .     A
O1098  Cu1102  1.966   .     S
C1099  C1106   1.459   .     S
C1100  C1105   1.459   .     S
Cu1101 N1139   2.013   .     S
Cu1101 Cu1102  2.679   .     S
Cu1102 N1140   2.013   .     S
C1103  C1141   1.519   .     S
C1103  C1113   1.416   .     A
C1103  C1105   1.418   .     A
C1104  C1106   1.418   .     A
C1104  C1145   1.519   .     S
C1104  C1114   1.416   .     A
C1105  C1107   1.396   .     A
C1106  C1108   1.396   .     A
C1107  H1119   1.084   .     S
C1107  C1109   1.387   .     A
C1108  H1120   1.084   .     S
C1108  C1110   1.387   .     A
C1109  C1115   1.397   .     A
C1109  C1111   1.407   .     A
C1110  C1116   1.397   .     A
C1110  C1112   1.407   .     A
C1111  C1113   1.420   .     A
C1111  C536    1.410   1_556 S
C1112  C1114   1.420   .     A
C1113  C1118   1.410   .     A
C1114  C1117   1.410   .     A
C1115  H1121   1.084   .     S
C1115  C541    1.389   1_556 S
C1116  H1122   1.084   .     S
C1117  H1123   1.081   .     S
C1118  H1124   1.081   .     S
C1118  C540    1.389   1_556 S
C1125  Br1149  1.934   .     S
C1125  C1130   1.405   .     A
C1126  C1129   1.405   .     A
C1126  Br1150  1.934   .     S
C1126  C1000   1.395   1_655 S
C1127  Br1151  1.931   .     S
C1127  C1129   1.406   .     A
C1127  C997    1.395   1_655 S
C1128  C1130   1.406   .     A
C1128  Br1152  1.931   .     S
C1131  N1140   1.367   .     A
C1131  H1135   1.081   .     S
C1132  N1139   1.367   .     A
C1132  H1136   1.081   .     S
C1132  C749    1.417   1_565 S
C1133  H1137   1.081   .     S
C1133  N1140   1.367   .     A
C1134  H1138   1.081   .     S
C1134  N1139   1.367   .     A
C1134  C747    1.417   1_565 S
C1141  H1142   1.111   .     S
C1141  H1143   1.110   .     S
C1141  H1144   1.107   .     S
C1145  H1146   1.111   .     S
C1145  H1147   1.107   .     S
C1145  H1148   1.110   .     S
