data_str_m2_o10_o17_pcu_sym.171
_audit_creation_date              2020-01-03
_audit_creation_method            'Materials Studio'
_symmetry_space_group_name_H-M    'P1'
_symmetry_Int_Tables_number       1
_symmetry_cell_setting            triclinic
loop_
_symmetry_equiv_pos_as_xyz
  x,y,z
_cell_length_a                    30.1523
_cell_length_b                    26.2080
_cell_length_c                    22.2566
_cell_angle_alpha                 102.7243
_cell_angle_beta                  94.1390
_cell_angle_gamma                 93.0434
loop_
_atom_site_label
_atom_site_type_symbol
_atom_site_fract_x
_atom_site_fract_y
_atom_site_fract_z
_atom_site_U_iso_or_equiv
_atom_site_adp_type
_atom_site_occupancy
C1     C     0.24733   0.06678   0.15161   0.00000  Uiso   1.00
C2     C     0.25267   0.26655   0.18172   0.00000  Uiso   1.00
C3     C     0.01551   0.07415   0.11178   0.00000  Uiso   1.00
C4     C     0.48449   0.25919   0.22155   0.00000  Uiso   1.00
C5     C     0.23961   0.01150   0.14553   0.00000  Uiso   1.00
C6     C     0.26039   0.32183   0.18780   0.00000  Uiso   1.00
C7     C     0.16444   0.16614   0.16744   0.00000  Uiso   1.00
C8     C     0.33557   0.16720   0.16590   0.00000  Uiso   1.00
C9     C     0.41098   0.20901   0.20368   0.00000  Uiso   1.00
C10    C     0.08902   0.12432   0.12965   0.00000  Uiso   1.00
C11    C     0.38388   0.16800   0.16437   0.00000  Uiso   1.00
C12    C     0.11612   0.16534   0.16896   0.00000  Uiso   1.00
C13    C     0.40285   0.12694   0.12512   0.00000  Uiso   1.00
C14    C     0.09715   0.20639   0.20821   0.00000  Uiso   1.00
C15    C     0.44922   0.12248   0.13267   0.00000  Uiso   1.00
C16    C     0.05078   0.21085   0.20066   0.00000  Uiso   1.00
C17    C     0.47661   0.16704   0.16592   0.00000  Uiso   1.00
C18    C     0.02339   0.16629   0.16741   0.00000  Uiso   1.00
C19    C     0.45719   0.21233   0.19777   0.00000  Uiso   1.00
C20    C     0.04281   0.12101   0.13556   0.00000  Uiso   1.00
C21    C     0.46902   0.07490   0.11023   0.00000  Uiso   1.00
C22    C     0.03098   0.25844   0.22311   0.00000  Uiso   1.00
Cu23   Cu    0.25501   0.17246   0.22813   0.00000  Uiso   1.00
Cu24   Cu    0.24500   0.16087   0.10521   0.00000  Uiso   1.00
H25    H     0.21509   0.12590   0.31604   0.00000  Uiso   1.00
H26    H     0.28491   0.20743   0.01729   0.00000  Uiso   1.00
N27    N     0.23745   0.15214   0.01284   0.00000  Uiso   1.00
N28    N     0.26256   0.18119   0.32049   0.00000  Uiso   1.00
O29    O     0.25326   0.09538   0.20659   0.00000  Uiso   1.00
O30    O     0.24675   0.23796   0.12674   0.00000  Uiso   1.00
O31    O     0.24480   0.08559   0.10279   0.00000  Uiso   1.00
O32    O     0.25520   0.24774   0.23055   0.00000  Uiso   1.00
O33    O     0.18936   0.17155   0.21857   0.00000  Uiso   1.00
O34    O     0.31065   0.16179   0.11476   0.00000  Uiso   1.00
O35    O     0.18090   0.16176   0.11477   0.00000  Uiso   1.00
O36    O     0.31910   0.17157   0.21857   0.00000  Uiso   1.00
Cl37   Cl    0.38699   0.25222   0.26390   0.00000  Uiso   1.00
Cl38   Cl    0.11301   0.08111   0.06943   0.00000  Uiso   1.00
Cl39   Cl    0.36839   0.08465   0.06411   0.00000  Uiso   1.00
Cl40   Cl    0.13161   0.24869   0.26922   0.00000  Uiso   1.00
Cl41   Cl    0.43742   0.01344   0.09001   0.00000  Uiso   1.00
Cl42   Cl    0.06258   0.31989   0.24333   0.00000  Uiso   1.00
Cl43   Cl    0.03805   0.01182   0.09365   0.00000  Uiso   1.00
Cl44   Cl    0.46195   0.32152   0.23969   0.00000  Uiso   1.00
C45    C     0.20432   0.31678   0.09493   0.00000  Uiso   1.00
H46    H     0.18551   0.01149   0.07420   0.00000  Uiso   1.00
H47    H     0.22012   0.29138   0.05682   0.00000  Uiso   1.00
H48    H     0.17945   0.29331   0.11408   0.00000  Uiso   1.00
C49    C     0.29568   0.01656   0.23841   0.00000  Uiso   1.00
H50    H     0.31449   0.32184   0.25913   0.00000  Uiso   1.00
H51    H     0.32055   0.04002   0.21926   0.00000  Uiso   1.00
H52    H     0.27989   0.04195   0.27651   0.00000  Uiso   1.00
C53    C     0.74733   0.06678   0.15161   0.00000  Uiso   1.00
C54    C     0.75267   0.26655   0.18172   0.00000  Uiso   1.00
C55    C     0.51551   0.07415   0.11178   0.00000  Uiso   1.00
C56    C     0.98449   0.25919   0.22155   0.00000  Uiso   1.00
C57    C     0.73961   0.01150   0.14553   0.00000  Uiso   1.00
C58    C     0.76039   0.32183   0.18780   0.00000  Uiso   1.00
C59    C     0.66444   0.16614   0.16744   0.00000  Uiso   1.00
C60    C     0.83557   0.16720   0.16590   0.00000  Uiso   1.00
C61    C     0.91098   0.20901   0.20368   0.00000  Uiso   1.00
C62    C     0.58902   0.12432   0.12965   0.00000  Uiso   1.00
C63    C     0.88388   0.16800   0.16437   0.00000  Uiso   1.00
C64    C     0.61612   0.16534   0.16896   0.00000  Uiso   1.00
C65    C     0.90285   0.12694   0.12512   0.00000  Uiso   1.00
C66    C     0.59715   0.20639   0.20821   0.00000  Uiso   1.00
C67    C     0.94922   0.12248   0.13267   0.00000  Uiso   1.00
C68    C     0.55078   0.21085   0.20066   0.00000  Uiso   1.00
C69    C     0.97661   0.16704   0.16592   0.00000  Uiso   1.00
C70    C     0.52339   0.16629   0.16741   0.00000  Uiso   1.00
C71    C     0.95719   0.21233   0.19777   0.00000  Uiso   1.00
C72    C     0.54281   0.12101   0.13556   0.00000  Uiso   1.00
C73    C     0.96902   0.07490   0.11023   0.00000  Uiso   1.00
C74    C     0.53098   0.25844   0.22311   0.00000  Uiso   1.00
Cu75   Cu    0.75501   0.17246   0.22813   0.00000  Uiso   1.00
Cu76   Cu    0.74500   0.16087   0.10521   0.00000  Uiso   1.00
H77    H     0.71509   0.12590   0.31604   0.00000  Uiso   1.00
H78    H     0.78491   0.20743   0.01729   0.00000  Uiso   1.00
N79    N     0.73745   0.15214   0.01284   0.00000  Uiso   1.00
N80    N     0.76256   0.18119   0.32049   0.00000  Uiso   1.00
O81    O     0.75326   0.09538   0.20659   0.00000  Uiso   1.00
O82    O     0.74675   0.23796   0.12674   0.00000  Uiso   1.00
O83    O     0.74480   0.08559   0.10279   0.00000  Uiso   1.00
O84    O     0.75520   0.24774   0.23055   0.00000  Uiso   1.00
O85    O     0.68936   0.17155   0.21857   0.00000  Uiso   1.00
O86    O     0.81065   0.16179   0.11476   0.00000  Uiso   1.00
O87    O     0.68090   0.16176   0.11477   0.00000  Uiso   1.00
O88    O     0.81910   0.17157   0.21857   0.00000  Uiso   1.00
Cl89   Cl    0.88699   0.25222   0.26390   0.00000  Uiso   1.00
Cl90   Cl    0.61301   0.08111   0.06943   0.00000  Uiso   1.00
Cl91   Cl    0.86839   0.08465   0.06411   0.00000  Uiso   1.00
Cl92   Cl    0.63161   0.24869   0.26922   0.00000  Uiso   1.00
Cl93   Cl    0.93742   0.01344   0.09001   0.00000  Uiso   1.00
Cl94   Cl    0.56258   0.31989   0.24333   0.00000  Uiso   1.00
Cl95   Cl    0.53805   0.01182   0.09365   0.00000  Uiso   1.00
Cl96   Cl    0.96195   0.32152   0.23969   0.00000  Uiso   1.00
C97    C     0.70432   0.31678   0.09493   0.00000  Uiso   1.00
H98    H     0.68551   0.01149   0.07420   0.00000  Uiso   1.00
H99    H     0.72012   0.29138   0.05682   0.00000  Uiso   1.00
H100   H     0.67945   0.29331   0.11408   0.00000  Uiso   1.00
C101   C     0.79568   0.01656   0.23841   0.00000  Uiso   1.00
H102   H     0.81449   0.32184   0.25913   0.00000  Uiso   1.00
H103   H     0.82055   0.04002   0.21926   0.00000  Uiso   1.00
H104   H     0.77989   0.04195   0.27651   0.00000  Uiso   1.00
C105   C     0.24733   0.40011   0.15161   0.00000  Uiso   1.00
C106   C     0.25267   0.59989   0.18172   0.00000  Uiso   1.00
C107   C     0.01551   0.40748   0.11178   0.00000  Uiso   1.00
C108   C     0.48449   0.59252   0.22155   0.00000  Uiso   1.00
C109   C     0.23961   0.34484   0.14553   0.00000  Uiso   1.00
C110   C     0.26039   0.65516   0.18780   0.00000  Uiso   1.00
C111   C     0.16444   0.49947   0.16744   0.00000  Uiso   1.00
C112   C     0.33557   0.50053   0.16590   0.00000  Uiso   1.00
C113   C     0.41098   0.54234   0.20368   0.00000  Uiso   1.00
C114   C     0.08902   0.45766   0.12965   0.00000  Uiso   1.00
C115   C     0.38388   0.50133   0.16437   0.00000  Uiso   1.00
C116   C     0.11612   0.49867   0.16896   0.00000  Uiso   1.00
C117   C     0.40285   0.46028   0.12512   0.00000  Uiso   1.00
C118   C     0.09715   0.53972   0.20821   0.00000  Uiso   1.00
C119   C     0.44922   0.45581   0.13267   0.00000  Uiso   1.00
C120   C     0.05078   0.54419   0.20066   0.00000  Uiso   1.00
C121   C     0.47661   0.50037   0.16592   0.00000  Uiso   1.00
C122   C     0.02339   0.49963   0.16741   0.00000  Uiso   1.00
C123   C     0.45719   0.54566   0.19777   0.00000  Uiso   1.00
C124   C     0.04281   0.45434   0.13556   0.00000  Uiso   1.00
C125   C     0.46902   0.40823   0.11023   0.00000  Uiso   1.00
C126   C     0.03098   0.59177   0.22311   0.00000  Uiso   1.00
Cu127  Cu    0.25501   0.50579   0.22813   0.00000  Uiso   1.00
Cu128  Cu    0.24500   0.49421   0.10521   0.00000  Uiso   1.00
H129   H     0.21509   0.45924   0.31604   0.00000  Uiso   1.00
H130   H     0.28491   0.54076   0.01729   0.00000  Uiso   1.00
N131   N     0.23745   0.48547   0.01284   0.00000  Uiso   1.00
N132   N     0.26256   0.51453   0.32049   0.00000  Uiso   1.00
O133   O     0.25326   0.42871   0.20659   0.00000  Uiso   1.00
O134   O     0.24675   0.57129   0.12674   0.00000  Uiso   1.00
O135   O     0.24480   0.41892   0.10279   0.00000  Uiso   1.00
O136   O     0.25520   0.58108   0.23055   0.00000  Uiso   1.00
O137   O     0.18936   0.50488   0.21857   0.00000  Uiso   1.00
O138   O     0.31065   0.49512   0.11476   0.00000  Uiso   1.00
O139   O     0.18090   0.49510   0.11477   0.00000  Uiso   1.00
O140   O     0.31910   0.50490   0.21857   0.00000  Uiso   1.00
Cl141  Cl    0.38699   0.58556   0.26390   0.00000  Uiso   1.00
Cl142  Cl    0.11301   0.41444   0.06943   0.00000  Uiso   1.00
Cl143  Cl    0.36839   0.41798   0.06411   0.00000  Uiso   1.00
Cl144  Cl    0.13161   0.58202   0.26922   0.00000  Uiso   1.00
Cl145  Cl    0.43742   0.34678   0.09001   0.00000  Uiso   1.00
Cl146  Cl    0.06258   0.65322   0.24333   0.00000  Uiso   1.00
Cl147  Cl    0.03805   0.34515   0.09365   0.00000  Uiso   1.00
Cl148  Cl    0.46195   0.65485   0.23969   0.00000  Uiso   1.00
C149   C     0.20432   0.65011   0.09493   0.00000  Uiso   1.00
H150   H     0.18551   0.34483   0.07420   0.00000  Uiso   1.00
H151   H     0.22012   0.62471   0.05682   0.00000  Uiso   1.00
H152   H     0.17945   0.62664   0.11408   0.00000  Uiso   1.00
C153   C     0.29568   0.34989   0.23841   0.00000  Uiso   1.00
H154   H     0.31449   0.65517   0.25913   0.00000  Uiso   1.00
H155   H     0.32055   0.37336   0.21926   0.00000  Uiso   1.00
H156   H     0.27989   0.37529   0.27651   0.00000  Uiso   1.00
C157   C     0.74733   0.40011   0.15161   0.00000  Uiso   1.00
C158   C     0.75267   0.59989   0.18172   0.00000  Uiso   1.00
C159   C     0.51551   0.40748   0.11178   0.00000  Uiso   1.00
C160   C     0.98449   0.59252   0.22155   0.00000  Uiso   1.00
C161   C     0.73961   0.34484   0.14553   0.00000  Uiso   1.00
C162   C     0.76039   0.65516   0.18780   0.00000  Uiso   1.00
C163   C     0.66444   0.49947   0.16744   0.00000  Uiso   1.00
C164   C     0.83557   0.50053   0.16590   0.00000  Uiso   1.00
C165   C     0.91098   0.54234   0.20368   0.00000  Uiso   1.00
C166   C     0.58902   0.45766   0.12965   0.00000  Uiso   1.00
C167   C     0.88388   0.50133   0.16437   0.00000  Uiso   1.00
C168   C     0.61612   0.49867   0.16896   0.00000  Uiso   1.00
C169   C     0.90285   0.46028   0.12512   0.00000  Uiso   1.00
C170   C     0.59715   0.53972   0.20821   0.00000  Uiso   1.00
C171   C     0.94922   0.45581   0.13267   0.00000  Uiso   1.00
C172   C     0.55078   0.54419   0.20066   0.00000  Uiso   1.00
C173   C     0.97661   0.50037   0.16592   0.00000  Uiso   1.00
C174   C     0.52339   0.49963   0.16741   0.00000  Uiso   1.00
C175   C     0.95719   0.54566   0.19777   0.00000  Uiso   1.00
C176   C     0.54281   0.45434   0.13556   0.00000  Uiso   1.00
C177   C     0.96902   0.40823   0.11023   0.00000  Uiso   1.00
C178   C     0.53098   0.59177   0.22311   0.00000  Uiso   1.00
Cu179  Cu    0.75501   0.50579   0.22813   0.00000  Uiso   1.00
Cu180  Cu    0.74500   0.49421   0.10521   0.00000  Uiso   1.00
H181   H     0.71509   0.45924   0.31604   0.00000  Uiso   1.00
H182   H     0.78491   0.54076   0.01729   0.00000  Uiso   1.00
N183   N     0.73745   0.48547   0.01284   0.00000  Uiso   1.00
N184   N     0.76256   0.51453   0.32049   0.00000  Uiso   1.00
O185   O     0.75326   0.42871   0.20659   0.00000  Uiso   1.00
O186   O     0.74675   0.57129   0.12674   0.00000  Uiso   1.00
O187   O     0.74480   0.41892   0.10279   0.00000  Uiso   1.00
O188   O     0.75520   0.58108   0.23055   0.00000  Uiso   1.00
O189   O     0.68936   0.50488   0.21857   0.00000  Uiso   1.00
O190   O     0.81065   0.49512   0.11476   0.00000  Uiso   1.00
O191   O     0.68090   0.49510   0.11477   0.00000  Uiso   1.00
O192   O     0.81910   0.50490   0.21857   0.00000  Uiso   1.00
Cl193  Cl    0.88699   0.58556   0.26390   0.00000  Uiso   1.00
Cl194  Cl    0.61301   0.41444   0.06943   0.00000  Uiso   1.00
Cl195  Cl    0.86839   0.41798   0.06411   0.00000  Uiso   1.00
Cl196  Cl    0.63161   0.58202   0.26922   0.00000  Uiso   1.00
Cl197  Cl    0.93742   0.34678   0.09001   0.00000  Uiso   1.00
Cl198  Cl    0.56258   0.65322   0.24333   0.00000  Uiso   1.00
Cl199  Cl    0.53805   0.34515   0.09365   0.00000  Uiso   1.00
Cl200  Cl    0.96195   0.65485   0.23969   0.00000  Uiso   1.00
C201   C     0.70432   0.65011   0.09493   0.00000  Uiso   1.00
H202   H     0.68551   0.34483   0.07420   0.00000  Uiso   1.00
H203   H     0.72012   0.62471   0.05682   0.00000  Uiso   1.00
H204   H     0.67945   0.62664   0.11408   0.00000  Uiso   1.00
C205   C     0.79568   0.34989   0.23841   0.00000  Uiso   1.00
H206   H     0.81449   0.65517   0.25913   0.00000  Uiso   1.00
H207   H     0.82055   0.37336   0.21926   0.00000  Uiso   1.00
H208   H     0.77989   0.37529   0.27651   0.00000  Uiso   1.00
C209   C     0.24733   0.73345   0.15161   0.00000  Uiso   1.00
C210   C     0.25267   0.93322   0.18172   0.00000  Uiso   1.00
C211   C     0.01551   0.74081   0.11178   0.00000  Uiso   1.00
C212   C     0.48449   0.92585   0.22155   0.00000  Uiso   1.00
C213   C     0.23961   0.67817   0.14553   0.00000  Uiso   1.00
C214   C     0.26039   0.98850   0.18780   0.00000  Uiso   1.00
C215   C     0.16444   0.83280   0.16744   0.00000  Uiso   1.00
C216   C     0.33557   0.83386   0.16590   0.00000  Uiso   1.00
C217   C     0.41098   0.87568   0.20368   0.00000  Uiso   1.00
C218   C     0.08902   0.79099   0.12965   0.00000  Uiso   1.00
C219   C     0.38388   0.83466   0.16437   0.00000  Uiso   1.00
C220   C     0.11612   0.83200   0.16896   0.00000  Uiso   1.00
C221   C     0.40285   0.79361   0.12512   0.00000  Uiso   1.00
C222   C     0.09715   0.87306   0.20821   0.00000  Uiso   1.00
C223   C     0.44922   0.78915   0.13267   0.00000  Uiso   1.00
C224   C     0.05078   0.87752   0.20066   0.00000  Uiso   1.00
C225   C     0.47661   0.83371   0.16592   0.00000  Uiso   1.00
C226   C     0.02339   0.83296   0.16741   0.00000  Uiso   1.00
C227   C     0.45719   0.87899   0.19777   0.00000  Uiso   1.00
C228   C     0.04281   0.78767   0.13556   0.00000  Uiso   1.00
C229   C     0.46902   0.74156   0.11023   0.00000  Uiso   1.00
C230   C     0.03098   0.92510   0.22311   0.00000  Uiso   1.00
Cu231  Cu    0.25501   0.83913   0.22813   0.00000  Uiso   1.00
Cu232  Cu    0.24500   0.82754   0.10521   0.00000  Uiso   1.00
H233   H     0.21509   0.79257   0.31604   0.00000  Uiso   1.00
H234   H     0.28491   0.87410   0.01729   0.00000  Uiso   1.00
N235   N     0.23745   0.81881   0.01284   0.00000  Uiso   1.00
N236   N     0.26256   0.84786   0.32049   0.00000  Uiso   1.00
O237   O     0.25326   0.76204   0.20659   0.00000  Uiso   1.00
O238   O     0.24675   0.90462   0.12674   0.00000  Uiso   1.00
O239   O     0.24480   0.75226   0.10279   0.00000  Uiso   1.00
O240   O     0.25520   0.91441   0.23055   0.00000  Uiso   1.00
O241   O     0.18936   0.83821   0.21857   0.00000  Uiso   1.00
O242   O     0.31065   0.82845   0.11476   0.00000  Uiso   1.00
O243   O     0.18090   0.82843   0.11477   0.00000  Uiso   1.00
O244   O     0.31910   0.83824   0.21857   0.00000  Uiso   1.00
Cl245  Cl    0.38699   0.91889   0.26390   0.00000  Uiso   1.00
Cl246  Cl    0.11301   0.74778   0.06943   0.00000  Uiso   1.00
Cl247  Cl    0.36839   0.75132   0.06411   0.00000  Uiso   1.00
Cl248  Cl    0.13161   0.91535   0.26922   0.00000  Uiso   1.00
Cl249  Cl    0.43742   0.68011   0.09001   0.00000  Uiso   1.00
Cl250  Cl    0.06258   0.98656   0.24333   0.00000  Uiso   1.00
Cl251  Cl    0.03805   0.67848   0.09365   0.00000  Uiso   1.00
Cl252  Cl    0.46195   0.98818   0.23969   0.00000  Uiso   1.00
C253   C     0.20432   0.98344   0.09493   0.00000  Uiso   1.00
H254   H     0.18551   0.67816   0.07420   0.00000  Uiso   1.00
H255   H     0.22012   0.95805   0.05682   0.00000  Uiso   1.00
H256   H     0.17945   0.95998   0.11408   0.00000  Uiso   1.00
C257   C     0.29568   0.68322   0.23841   0.00000  Uiso   1.00
H258   H     0.31449   0.98851   0.25913   0.00000  Uiso   1.00
H259   H     0.32055   0.70669   0.21926   0.00000  Uiso   1.00
H260   H     0.27989   0.70862   0.27651   0.00000  Uiso   1.00
C261   C     0.74733   0.73345   0.15161   0.00000  Uiso   1.00
C262   C     0.75267   0.93322   0.18172   0.00000  Uiso   1.00
C263   C     0.51551   0.74081   0.11178   0.00000  Uiso   1.00
C264   C     0.98449   0.92585   0.22155   0.00000  Uiso   1.00
C265   C     0.73961   0.67817   0.14553   0.00000  Uiso   1.00
C266   C     0.76039   0.98850   0.18780   0.00000  Uiso   1.00
C267   C     0.66444   0.83280   0.16744   0.00000  Uiso   1.00
C268   C     0.83557   0.83386   0.16590   0.00000  Uiso   1.00
C269   C     0.91098   0.87568   0.20368   0.00000  Uiso   1.00
C270   C     0.58902   0.79099   0.12965   0.00000  Uiso   1.00
C271   C     0.88388   0.83466   0.16437   0.00000  Uiso   1.00
C272   C     0.61612   0.83200   0.16896   0.00000  Uiso   1.00
C273   C     0.90285   0.79361   0.12512   0.00000  Uiso   1.00
C274   C     0.59715   0.87306   0.20821   0.00000  Uiso   1.00
C275   C     0.94922   0.78915   0.13267   0.00000  Uiso   1.00
C276   C     0.55078   0.87752   0.20066   0.00000  Uiso   1.00
C277   C     0.97661   0.83371   0.16592   0.00000  Uiso   1.00
C278   C     0.52339   0.83296   0.16741   0.00000  Uiso   1.00
C279   C     0.95719   0.87899   0.19777   0.00000  Uiso   1.00
C280   C     0.54281   0.78767   0.13556   0.00000  Uiso   1.00
C281   C     0.96902   0.74156   0.11023   0.00000  Uiso   1.00
C282   C     0.53098   0.92510   0.22311   0.00000  Uiso   1.00
Cu283  Cu    0.75501   0.83913   0.22813   0.00000  Uiso   1.00
Cu284  Cu    0.74500   0.82754   0.10521   0.00000  Uiso   1.00
H285   H     0.71509   0.79257   0.31604   0.00000  Uiso   1.00
H286   H     0.78491   0.87410   0.01729   0.00000  Uiso   1.00
N287   N     0.73745   0.81881   0.01284   0.00000  Uiso   1.00
N288   N     0.76256   0.84786   0.32049   0.00000  Uiso   1.00
O289   O     0.75326   0.76204   0.20659   0.00000  Uiso   1.00
O290   O     0.74675   0.90462   0.12674   0.00000  Uiso   1.00
O291   O     0.74480   0.75226   0.10279   0.00000  Uiso   1.00
O292   O     0.75520   0.91441   0.23055   0.00000  Uiso   1.00
O293   O     0.68936   0.83821   0.21857   0.00000  Uiso   1.00
O294   O     0.81065   0.82845   0.11476   0.00000  Uiso   1.00
O295   O     0.68090   0.82843   0.11477   0.00000  Uiso   1.00
O296   O     0.81910   0.83824   0.21857   0.00000  Uiso   1.00
Cl297  Cl    0.88699   0.91889   0.26390   0.00000  Uiso   1.00
Cl298  Cl    0.61301   0.74778   0.06943   0.00000  Uiso   1.00
Cl299  Cl    0.86839   0.75132   0.06411   0.00000  Uiso   1.00
Cl300  Cl    0.63161   0.91535   0.26922   0.00000  Uiso   1.00
Cl301  Cl    0.93742   0.68011   0.09001   0.00000  Uiso   1.00
Cl302  Cl    0.56258   0.98656   0.24333   0.00000  Uiso   1.00
Cl303  Cl    0.53805   0.67848   0.09365   0.00000  Uiso   1.00
Cl304  Cl    0.96195   0.98818   0.23969   0.00000  Uiso   1.00
C305   C     0.70432   0.98344   0.09493   0.00000  Uiso   1.00
H306   H     0.68551   0.67816   0.07420   0.00000  Uiso   1.00
H307   H     0.72012   0.95805   0.05682   0.00000  Uiso   1.00
H308   H     0.67945   0.95998   0.11408   0.00000  Uiso   1.00
C309   C     0.79568   0.68322   0.23841   0.00000  Uiso   1.00
H310   H     0.81449   0.98851   0.25913   0.00000  Uiso   1.00
H311   H     0.82055   0.70669   0.21926   0.00000  Uiso   1.00
H312   H     0.77989   0.70862   0.27651   0.00000  Uiso   1.00
C313   C     0.24733   0.06678   0.48494   0.00000  Uiso   1.00
C314   C     0.25267   0.26655   0.51506   0.00000  Uiso   1.00
C315   C     0.01551   0.07415   0.44511   0.00000  Uiso   1.00
C316   C     0.48449   0.25919   0.55489   0.00000  Uiso   1.00
C317   C     0.23961   0.01150   0.47887   0.00000  Uiso   1.00
C318   C     0.26039   0.32183   0.52113   0.00000  Uiso   1.00
C319   C     0.16444   0.16614   0.50077   0.00000  Uiso   1.00
C320   C     0.33557   0.16720   0.49923   0.00000  Uiso   1.00
C321   C     0.41098   0.20901   0.53702   0.00000  Uiso   1.00
C322   C     0.08902   0.12432   0.46298   0.00000  Uiso   1.00
C323   C     0.38388   0.16800   0.49771   0.00000  Uiso   1.00
C324   C     0.11612   0.16534   0.50229   0.00000  Uiso   1.00
C325   C     0.40285   0.12694   0.45845   0.00000  Uiso   1.00
C326   C     0.09715   0.20639   0.54155   0.00000  Uiso   1.00
C327   C     0.44922   0.12248   0.46600   0.00000  Uiso   1.00
C328   C     0.05078   0.21085   0.53400   0.00000  Uiso   1.00
C329   C     0.47661   0.16704   0.49926   0.00000  Uiso   1.00
C330   C     0.02339   0.16629   0.50075   0.00000  Uiso   1.00
C331   C     0.45719   0.21233   0.53111   0.00000  Uiso   1.00
C332   C     0.04281   0.12101   0.46889   0.00000  Uiso   1.00
C333   C     0.46902   0.07490   0.44356   0.00000  Uiso   1.00
C334   C     0.03098   0.25844   0.55644   0.00000  Uiso   1.00
Cu335  Cu    0.25501   0.17246   0.56146   0.00000  Uiso   1.00
Cu336  Cu    0.24500   0.16087   0.43854   0.00000  Uiso   1.00
H337   H     0.21509   0.12590   0.64937   0.00000  Uiso   1.00
H338   H     0.28491   0.20743   0.35063   0.00000  Uiso   1.00
N339   N     0.23745   0.15214   0.34617   0.00000  Uiso   1.00
N340   N     0.26256   0.18119   0.65383   0.00000  Uiso   1.00
O341   O     0.25326   0.09538   0.53992   0.00000  Uiso   1.00
O342   O     0.24675   0.23796   0.46008   0.00000  Uiso   1.00
O343   O     0.24480   0.08559   0.43612   0.00000  Uiso   1.00
O344   O     0.25520   0.24774   0.56388   0.00000  Uiso   1.00
O345   O     0.18936   0.17155   0.55191   0.00000  Uiso   1.00
O346   O     0.31065   0.16179   0.44809   0.00000  Uiso   1.00
O347   O     0.18090   0.16176   0.44810   0.00000  Uiso   1.00
O348   O     0.31910   0.17157   0.55190   0.00000  Uiso   1.00
Cl349  Cl    0.38699   0.25222   0.59723   0.00000  Uiso   1.00
Cl350  Cl    0.11301   0.08111   0.40277   0.00000  Uiso   1.00
Cl351  Cl    0.36839   0.08465   0.39744   0.00000  Uiso   1.00
Cl352  Cl    0.13161   0.24869   0.60255   0.00000  Uiso   1.00
Cl353  Cl    0.43742   0.01344   0.42334   0.00000  Uiso   1.00
Cl354  Cl    0.06258   0.31989   0.57666   0.00000  Uiso   1.00
Cl355  Cl    0.03805   0.01182   0.42698   0.00000  Uiso   1.00
Cl356  Cl    0.46195   0.32152   0.57302   0.00000  Uiso   1.00
C357   C     0.20432   0.31678   0.42826   0.00000  Uiso   1.00
H358   H     0.18551   0.01149   0.40753   0.00000  Uiso   1.00
H359   H     0.22012   0.29138   0.39015   0.00000  Uiso   1.00
H360   H     0.17945   0.29331   0.44741   0.00000  Uiso   1.00
C361   C     0.29568   0.01656   0.57174   0.00000  Uiso   1.00
H362   H     0.31449   0.32184   0.59247   0.00000  Uiso   1.00
H363   H     0.32055   0.04002   0.55259   0.00000  Uiso   1.00
H364   H     0.27989   0.04195   0.60985   0.00000  Uiso   1.00
C365   C     0.74733   0.06678   0.48494   0.00000  Uiso   1.00
C366   C     0.75267   0.26655   0.51506   0.00000  Uiso   1.00
C367   C     0.51551   0.07415   0.44511   0.00000  Uiso   1.00
C368   C     0.98449   0.25919   0.55489   0.00000  Uiso   1.00
C369   C     0.73961   0.01150   0.47887   0.00000  Uiso   1.00
C370   C     0.76039   0.32183   0.52113   0.00000  Uiso   1.00
C371   C     0.66444   0.16614   0.50077   0.00000  Uiso   1.00
C372   C     0.83557   0.16720   0.49923   0.00000  Uiso   1.00
C373   C     0.91098   0.20901   0.53702   0.00000  Uiso   1.00
C374   C     0.58902   0.12432   0.46298   0.00000  Uiso   1.00
C375   C     0.88388   0.16800   0.49771   0.00000  Uiso   1.00
C376   C     0.61612   0.16534   0.50229   0.00000  Uiso   1.00
C377   C     0.90285   0.12694   0.45845   0.00000  Uiso   1.00
C378   C     0.59715   0.20639   0.54155   0.00000  Uiso   1.00
C379   C     0.94922   0.12248   0.46600   0.00000  Uiso   1.00
C380   C     0.55078   0.21085   0.53400   0.00000  Uiso   1.00
C381   C     0.97661   0.16704   0.49926   0.00000  Uiso   1.00
C382   C     0.52339   0.16629   0.50075   0.00000  Uiso   1.00
C383   C     0.95719   0.21233   0.53111   0.00000  Uiso   1.00
C384   C     0.54281   0.12101   0.46889   0.00000  Uiso   1.00
C385   C     0.96902   0.07490   0.44356   0.00000  Uiso   1.00
C386   C     0.53098   0.25844   0.55644   0.00000  Uiso   1.00
Cu387  Cu    0.75501   0.17246   0.56146   0.00000  Uiso   1.00
Cu388  Cu    0.74500   0.16087   0.43854   0.00000  Uiso   1.00
H389   H     0.71509   0.12590   0.64937   0.00000  Uiso   1.00
H390   H     0.78491   0.20743   0.35063   0.00000  Uiso   1.00
N391   N     0.73745   0.15214   0.34617   0.00000  Uiso   1.00
N392   N     0.76256   0.18119   0.65383   0.00000  Uiso   1.00
O393   O     0.75326   0.09538   0.53992   0.00000  Uiso   1.00
O394   O     0.74675   0.23796   0.46008   0.00000  Uiso   1.00
O395   O     0.74480   0.08559   0.43612   0.00000  Uiso   1.00
O396   O     0.75520   0.24774   0.56388   0.00000  Uiso   1.00
O397   O     0.68936   0.17155   0.55191   0.00000  Uiso   1.00
O398   O     0.81065   0.16179   0.44809   0.00000  Uiso   1.00
O399   O     0.68090   0.16176   0.44810   0.00000  Uiso   1.00
O400   O     0.81910   0.17157   0.55190   0.00000  Uiso   1.00
Cl401  Cl    0.88699   0.25222   0.59723   0.00000  Uiso   1.00
Cl402  Cl    0.61301   0.08111   0.40277   0.00000  Uiso   1.00
Cl403  Cl    0.86839   0.08465   0.39744   0.00000  Uiso   1.00
Cl404  Cl    0.63161   0.24869   0.60255   0.00000  Uiso   1.00
Cl405  Cl    0.93742   0.01344   0.42334   0.00000  Uiso   1.00
Cl406  Cl    0.56258   0.31989   0.57666   0.00000  Uiso   1.00
Cl407  Cl    0.53805   0.01182   0.42698   0.00000  Uiso   1.00
Cl408  Cl    0.96195   0.32152   0.57302   0.00000  Uiso   1.00
C409   C     0.70432   0.31678   0.42826   0.00000  Uiso   1.00
H410   H     0.68551   0.01149   0.40753   0.00000  Uiso   1.00
H411   H     0.72012   0.29138   0.39015   0.00000  Uiso   1.00
H412   H     0.67945   0.29331   0.44741   0.00000  Uiso   1.00
C413   C     0.79568   0.01656   0.57174   0.00000  Uiso   1.00
H414   H     0.81449   0.32184   0.59247   0.00000  Uiso   1.00
H415   H     0.82055   0.04002   0.55259   0.00000  Uiso   1.00
H416   H     0.77989   0.04195   0.60985   0.00000  Uiso   1.00
C417   C     0.24733   0.40011   0.48494   0.00000  Uiso   1.00
C418   C     0.25267   0.59989   0.51506   0.00000  Uiso   1.00
C419   C     0.01551   0.40748   0.44511   0.00000  Uiso   1.00
C420   C     0.48449   0.59252   0.55489   0.00000  Uiso   1.00
C421   C     0.23961   0.34484   0.47887   0.00000  Uiso   1.00
C422   C     0.26039   0.65516   0.52113   0.00000  Uiso   1.00
C423   C     0.16444   0.49947   0.50077   0.00000  Uiso   1.00
C424   C     0.33557   0.50053   0.49923   0.00000  Uiso   1.00
C425   C     0.41098   0.54234   0.53702   0.00000  Uiso   1.00
C426   C     0.08902   0.45766   0.46298   0.00000  Uiso   1.00
C427   C     0.38388   0.50133   0.49771   0.00000  Uiso   1.00
C428   C     0.11612   0.49867   0.50229   0.00000  Uiso   1.00
C429   C     0.40285   0.46028   0.45845   0.00000  Uiso   1.00
C430   C     0.09715   0.53972   0.54155   0.00000  Uiso   1.00
C431   C     0.44922   0.45581   0.46600   0.00000  Uiso   1.00
C432   C     0.05078   0.54419   0.53400   0.00000  Uiso   1.00
C433   C     0.47661   0.50037   0.49926   0.00000  Uiso   1.00
C434   C     0.02339   0.49963   0.50075   0.00000  Uiso   1.00
C435   C     0.45719   0.54566   0.53111   0.00000  Uiso   1.00
C436   C     0.04281   0.45434   0.46889   0.00000  Uiso   1.00
C437   C     0.46902   0.40823   0.44356   0.00000  Uiso   1.00
C438   C     0.03098   0.59177   0.55644   0.00000  Uiso   1.00
Cu439  Cu    0.25501   0.50579   0.56146   0.00000  Uiso   1.00
Cu440  Cu    0.24500   0.49421   0.43854   0.00000  Uiso   1.00
H441   H     0.21509   0.45924   0.64937   0.00000  Uiso   1.00
H442   H     0.28491   0.54076   0.35063   0.00000  Uiso   1.00
N443   N     0.23745   0.48547   0.34617   0.00000  Uiso   1.00
N444   N     0.26256   0.51453   0.65383   0.00000  Uiso   1.00
O445   O     0.25326   0.42871   0.53992   0.00000  Uiso   1.00
O446   O     0.24675   0.57129   0.46008   0.00000  Uiso   1.00
O447   O     0.24480   0.41892   0.43612   0.00000  Uiso   1.00
O448   O     0.25520   0.58108   0.56388   0.00000  Uiso   1.00
O449   O     0.18936   0.50488   0.55191   0.00000  Uiso   1.00
O450   O     0.31065   0.49512   0.44809   0.00000  Uiso   1.00
O451   O     0.18090   0.49510   0.44810   0.00000  Uiso   1.00
O452   O     0.31910   0.50490   0.55190   0.00000  Uiso   1.00
Cl453  Cl    0.38699   0.58556   0.59723   0.00000  Uiso   1.00
Cl454  Cl    0.11301   0.41444   0.40277   0.00000  Uiso   1.00
Cl455  Cl    0.36839   0.41798   0.39744   0.00000  Uiso   1.00
Cl456  Cl    0.13161   0.58202   0.60255   0.00000  Uiso   1.00
Cl457  Cl    0.43742   0.34678   0.42334   0.00000  Uiso   1.00
Cl458  Cl    0.06258   0.65322   0.57666   0.00000  Uiso   1.00
Cl459  Cl    0.03805   0.34515   0.42698   0.00000  Uiso   1.00
Cl460  Cl    0.46195   0.65485   0.57302   0.00000  Uiso   1.00
C461   C     0.20432   0.65011   0.42826   0.00000  Uiso   1.00
H462   H     0.18551   0.34483   0.40753   0.00000  Uiso   1.00
H463   H     0.22012   0.62471   0.39015   0.00000  Uiso   1.00
H464   H     0.17945   0.62664   0.44741   0.00000  Uiso   1.00
C465   C     0.29568   0.34989   0.57174   0.00000  Uiso   1.00
H466   H     0.31449   0.65517   0.59247   0.00000  Uiso   1.00
H467   H     0.32055   0.37336   0.55259   0.00000  Uiso   1.00
H468   H     0.27989   0.37529   0.60985   0.00000  Uiso   1.00
C469   C     0.74733   0.40011   0.48494   0.00000  Uiso   1.00
C470   C     0.75267   0.59989   0.51506   0.00000  Uiso   1.00
C471   C     0.51551   0.40748   0.44511   0.00000  Uiso   1.00
C472   C     0.98449   0.59252   0.55489   0.00000  Uiso   1.00
C473   C     0.73961   0.34484   0.47887   0.00000  Uiso   1.00
C474   C     0.76039   0.65516   0.52113   0.00000  Uiso   1.00
C475   C     0.66444   0.49947   0.50077   0.00000  Uiso   1.00
C476   C     0.83557   0.50053   0.49923   0.00000  Uiso   1.00
C477   C     0.91098   0.54234   0.53702   0.00000  Uiso   1.00
C478   C     0.58902   0.45766   0.46298   0.00000  Uiso   1.00
C479   C     0.88388   0.50133   0.49771   0.00000  Uiso   1.00
C480   C     0.61612   0.49867   0.50229   0.00000  Uiso   1.00
C481   C     0.90285   0.46028   0.45845   0.00000  Uiso   1.00
C482   C     0.59715   0.53972   0.54155   0.00000  Uiso   1.00
C483   C     0.94922   0.45581   0.46600   0.00000  Uiso   1.00
C484   C     0.55078   0.54419   0.53400   0.00000  Uiso   1.00
C485   C     0.97661   0.50037   0.49926   0.00000  Uiso   1.00
C486   C     0.52339   0.49963   0.50075   0.00000  Uiso   1.00
C487   C     0.95719   0.54566   0.53111   0.00000  Uiso   1.00
C488   C     0.54281   0.45434   0.46889   0.00000  Uiso   1.00
C489   C     0.96902   0.40823   0.44356   0.00000  Uiso   1.00
C490   C     0.53098   0.59177   0.55644   0.00000  Uiso   1.00
Cu491  Cu    0.75501   0.50579   0.56146   0.00000  Uiso   1.00
Cu492  Cu    0.74500   0.49421   0.43854   0.00000  Uiso   1.00
H493   H     0.71509   0.45924   0.64937   0.00000  Uiso   1.00
H494   H     0.78491   0.54076   0.35063   0.00000  Uiso   1.00
N495   N     0.73745   0.48547   0.34617   0.00000  Uiso   1.00
N496   N     0.76256   0.51453   0.65383   0.00000  Uiso   1.00
O497   O     0.75326   0.42871   0.53992   0.00000  Uiso   1.00
O498   O     0.74675   0.57129   0.46008   0.00000  Uiso   1.00
O499   O     0.74480   0.41892   0.43612   0.00000  Uiso   1.00
O500   O     0.75520   0.58108   0.56388   0.00000  Uiso   1.00
O501   O     0.68936   0.50488   0.55191   0.00000  Uiso   1.00
O502   O     0.81065   0.49512   0.44809   0.00000  Uiso   1.00
O503   O     0.68090   0.49510   0.44810   0.00000  Uiso   1.00
O504   O     0.81910   0.50490   0.55190   0.00000  Uiso   1.00
Cl505  Cl    0.88699   0.58556   0.59723   0.00000  Uiso   1.00
Cl506  Cl    0.61301   0.41444   0.40277   0.00000  Uiso   1.00
Cl507  Cl    0.86839   0.41798   0.39744   0.00000  Uiso   1.00
Cl508  Cl    0.63161   0.58202   0.60255   0.00000  Uiso   1.00
Cl509  Cl    0.93742   0.34678   0.42334   0.00000  Uiso   1.00
Cl510  Cl    0.56258   0.65322   0.57666   0.00000  Uiso   1.00
Cl511  Cl    0.53805   0.34515   0.42698   0.00000  Uiso   1.00
Cl512  Cl    0.96195   0.65485   0.57302   0.00000  Uiso   1.00
C513   C     0.70432   0.65011   0.42826   0.00000  Uiso   1.00
H514   H     0.68551   0.34483   0.40753   0.00000  Uiso   1.00
H515   H     0.72012   0.62471   0.39015   0.00000  Uiso   1.00
H516   H     0.67945   0.62664   0.44741   0.00000  Uiso   1.00
C517   C     0.79568   0.34989   0.57174   0.00000  Uiso   1.00
H518   H     0.81449   0.65517   0.59247   0.00000  Uiso   1.00
H519   H     0.82055   0.37336   0.55259   0.00000  Uiso   1.00
H520   H     0.77989   0.37529   0.60985   0.00000  Uiso   1.00
C521   C     0.24733   0.73345   0.48494   0.00000  Uiso   1.00
C522   C     0.25267   0.93322   0.51506   0.00000  Uiso   1.00
C523   C     0.01551   0.74081   0.44511   0.00000  Uiso   1.00
C524   C     0.48449   0.92585   0.55489   0.00000  Uiso   1.00
C525   C     0.23961   0.67817   0.47887   0.00000  Uiso   1.00
C526   C     0.26039   0.98850   0.52113   0.00000  Uiso   1.00
C527   C     0.16444   0.83280   0.50077   0.00000  Uiso   1.00
C528   C     0.33557   0.83386   0.49923   0.00000  Uiso   1.00
C529   C     0.41098   0.87568   0.53702   0.00000  Uiso   1.00
C530   C     0.08902   0.79099   0.46298   0.00000  Uiso   1.00
C531   C     0.38388   0.83466   0.49771   0.00000  Uiso   1.00
C532   C     0.11612   0.83200   0.50229   0.00000  Uiso   1.00
C533   C     0.40285   0.79361   0.45845   0.00000  Uiso   1.00
C534   C     0.09715   0.87306   0.54155   0.00000  Uiso   1.00
C535   C     0.44922   0.78915   0.46600   0.00000  Uiso   1.00
C536   C     0.05078   0.87752   0.53400   0.00000  Uiso   1.00
C537   C     0.47661   0.83371   0.49926   0.00000  Uiso   1.00
C538   C     0.02339   0.83296   0.50075   0.00000  Uiso   1.00
C539   C     0.45719   0.87899   0.53111   0.00000  Uiso   1.00
C540   C     0.04281   0.78767   0.46889   0.00000  Uiso   1.00
C541   C     0.46902   0.74156   0.44356   0.00000  Uiso   1.00
C542   C     0.03098   0.92510   0.55644   0.00000  Uiso   1.00
Cu543  Cu    0.25501   0.83913   0.56146   0.00000  Uiso   1.00
Cu544  Cu    0.24500   0.82754   0.43854   0.00000  Uiso   1.00
H545   H     0.21509   0.79257   0.64937   0.00000  Uiso   1.00
H546   H     0.28491   0.87410   0.35063   0.00000  Uiso   1.00
N547   N     0.23745   0.81881   0.34617   0.00000  Uiso   1.00
N548   N     0.26256   0.84786   0.65383   0.00000  Uiso   1.00
O549   O     0.25326   0.76204   0.53992   0.00000  Uiso   1.00
O550   O     0.24675   0.90462   0.46008   0.00000  Uiso   1.00
O551   O     0.24480   0.75226   0.43612   0.00000  Uiso   1.00
O552   O     0.25520   0.91441   0.56388   0.00000  Uiso   1.00
O553   O     0.18936   0.83821   0.55191   0.00000  Uiso   1.00
O554   O     0.31065   0.82845   0.44809   0.00000  Uiso   1.00
O555   O     0.18090   0.82843   0.44810   0.00000  Uiso   1.00
O556   O     0.31910   0.83824   0.55190   0.00000  Uiso   1.00
Cl557  Cl    0.38699   0.91889   0.59723   0.00000  Uiso   1.00
Cl558  Cl    0.11301   0.74778   0.40277   0.00000  Uiso   1.00
Cl559  Cl    0.36839   0.75132   0.39744   0.00000  Uiso   1.00
Cl560  Cl    0.13161   0.91535   0.60255   0.00000  Uiso   1.00
Cl561  Cl    0.43742   0.68011   0.42334   0.00000  Uiso   1.00
Cl562  Cl    0.06258   0.98656   0.57666   0.00000  Uiso   1.00
Cl563  Cl    0.03805   0.67848   0.42698   0.00000  Uiso   1.00
Cl564  Cl    0.46195   0.98818   0.57302   0.00000  Uiso   1.00
C565   C     0.20432   0.98344   0.42826   0.00000  Uiso   1.00
H566   H     0.18551   0.67816   0.40753   0.00000  Uiso   1.00
H567   H     0.22012   0.95805   0.39015   0.00000  Uiso   1.00
H568   H     0.17945   0.95998   0.44741   0.00000  Uiso   1.00
C569   C     0.29568   0.68322   0.57174   0.00000  Uiso   1.00
H570   H     0.31449   0.98851   0.59247   0.00000  Uiso   1.00
H571   H     0.32055   0.70669   0.55259   0.00000  Uiso   1.00
H572   H     0.27989   0.70862   0.60985   0.00000  Uiso   1.00
C573   C     0.74733   0.73345   0.48494   0.00000  Uiso   1.00
C574   C     0.75267   0.93322   0.51506   0.00000  Uiso   1.00
C575   C     0.51551   0.74081   0.44511   0.00000  Uiso   1.00
C576   C     0.98449   0.92585   0.55489   0.00000  Uiso   1.00
C577   C     0.73961   0.67817   0.47887   0.00000  Uiso   1.00
C578   C     0.76039   0.98850   0.52113   0.00000  Uiso   1.00
C579   C     0.66444   0.83280   0.50077   0.00000  Uiso   1.00
C580   C     0.83557   0.83386   0.49923   0.00000  Uiso   1.00
C581   C     0.91098   0.87568   0.53702   0.00000  Uiso   1.00
C582   C     0.58902   0.79099   0.46298   0.00000  Uiso   1.00
C583   C     0.88388   0.83466   0.49771   0.00000  Uiso   1.00
C584   C     0.61612   0.83200   0.50229   0.00000  Uiso   1.00
C585   C     0.90285   0.79361   0.45845   0.00000  Uiso   1.00
C586   C     0.59715   0.87306   0.54155   0.00000  Uiso   1.00
C587   C     0.94922   0.78915   0.46600   0.00000  Uiso   1.00
C588   C     0.55078   0.87752   0.53400   0.00000  Uiso   1.00
C589   C     0.97661   0.83371   0.49926   0.00000  Uiso   1.00
C590   C     0.52339   0.83296   0.50075   0.00000  Uiso   1.00
C591   C     0.95719   0.87899   0.53111   0.00000  Uiso   1.00
C592   C     0.54281   0.78767   0.46889   0.00000  Uiso   1.00
C593   C     0.96902   0.74156   0.44356   0.00000  Uiso   1.00
C594   C     0.53098   0.92510   0.55644   0.00000  Uiso   1.00
Cu595  Cu    0.75501   0.83913   0.56146   0.00000  Uiso   1.00
Cu596  Cu    0.74500   0.82754   0.43854   0.00000  Uiso   1.00
H597   H     0.71509   0.79257   0.64937   0.00000  Uiso   1.00
H598   H     0.78491   0.87410   0.35063   0.00000  Uiso   1.00
N599   N     0.73745   0.81881   0.34617   0.00000  Uiso   1.00
N600   N     0.76256   0.84786   0.65383   0.00000  Uiso   1.00
O601   O     0.75326   0.76204   0.53992   0.00000  Uiso   1.00
O602   O     0.74675   0.90462   0.46008   0.00000  Uiso   1.00
O603   O     0.74480   0.75226   0.43612   0.00000  Uiso   1.00
O604   O     0.75520   0.91441   0.56388   0.00000  Uiso   1.00
O605   O     0.68936   0.83821   0.55191   0.00000  Uiso   1.00
O606   O     0.81065   0.82845   0.44809   0.00000  Uiso   1.00
O607   O     0.68090   0.82843   0.44810   0.00000  Uiso   1.00
O608   O     0.81910   0.83824   0.55190   0.00000  Uiso   1.00
Cl609  Cl    0.88699   0.91889   0.59723   0.00000  Uiso   1.00
Cl610  Cl    0.61301   0.74778   0.40277   0.00000  Uiso   1.00
Cl611  Cl    0.86839   0.75132   0.39744   0.00000  Uiso   1.00
Cl612  Cl    0.63161   0.91535   0.60255   0.00000  Uiso   1.00
Cl613  Cl    0.93742   0.68011   0.42334   0.00000  Uiso   1.00
Cl614  Cl    0.56258   0.98656   0.57666   0.00000  Uiso   1.00
Cl615  Cl    0.53805   0.67848   0.42698   0.00000  Uiso   1.00
Cl616  Cl    0.96195   0.98818   0.57302   0.00000  Uiso   1.00
C617   C     0.70432   0.98344   0.42826   0.00000  Uiso   1.00
H618   H     0.68551   0.67816   0.40753   0.00000  Uiso   1.00
H619   H     0.72012   0.95805   0.39015   0.00000  Uiso   1.00
H620   H     0.67945   0.95998   0.44741   0.00000  Uiso   1.00
C621   C     0.79568   0.68322   0.57174   0.00000  Uiso   1.00
H622   H     0.81449   0.98851   0.59247   0.00000  Uiso   1.00
H623   H     0.82055   0.70669   0.55259   0.00000  Uiso   1.00
H624   H     0.77989   0.70862   0.60985   0.00000  Uiso   1.00
C625   C     0.24733   0.06678   0.81827   0.00000  Uiso   1.00
C626   C     0.25267   0.26655   0.84839   0.00000  Uiso   1.00
C627   C     0.01551   0.07415   0.77845   0.00000  Uiso   1.00
C628   C     0.48449   0.25919   0.88822   0.00000  Uiso   1.00
C629   C     0.23961   0.01150   0.81220   0.00000  Uiso   1.00
C630   C     0.26039   0.32183   0.85447   0.00000  Uiso   1.00
C631   C     0.16444   0.16614   0.83410   0.00000  Uiso   1.00
C632   C     0.33557   0.16720   0.83256   0.00000  Uiso   1.00
C633   C     0.41098   0.20901   0.87035   0.00000  Uiso   1.00
C634   C     0.08902   0.12432   0.79632   0.00000  Uiso   1.00
C635   C     0.38388   0.16800   0.83104   0.00000  Uiso   1.00
C636   C     0.11612   0.16534   0.83563   0.00000  Uiso   1.00
C637   C     0.40285   0.12694   0.79178   0.00000  Uiso   1.00
C638   C     0.09715   0.20639   0.87488   0.00000  Uiso   1.00
C639   C     0.44922   0.12248   0.79934   0.00000  Uiso   1.00
C640   C     0.05078   0.21085   0.86733   0.00000  Uiso   1.00
C641   C     0.47661   0.16704   0.83259   0.00000  Uiso   1.00
C642   C     0.02339   0.16629   0.83408   0.00000  Uiso   1.00
C643   C     0.45719   0.21233   0.86444   0.00000  Uiso   1.00
C644   C     0.04281   0.12101   0.80223   0.00000  Uiso   1.00
C645   C     0.46902   0.07490   0.77689   0.00000  Uiso   1.00
C646   C     0.03098   0.25844   0.88977   0.00000  Uiso   1.00
Cu647  Cu    0.25501   0.17246   0.89479   0.00000  Uiso   1.00
Cu648  Cu    0.24500   0.16087   0.77187   0.00000  Uiso   1.00
H649   H     0.21509   0.12590   0.98271   0.00000  Uiso   1.00
H650   H     0.28491   0.20743   0.68396   0.00000  Uiso   1.00
N651   N     0.23745   0.15214   0.67951   0.00000  Uiso   1.00
N652   N     0.26256   0.18119   0.98716   0.00000  Uiso   1.00
O653   O     0.25326   0.09538   0.87326   0.00000  Uiso   1.00
O654   O     0.24675   0.23796   0.79341   0.00000  Uiso   1.00
O655   O     0.24480   0.08559   0.76945   0.00000  Uiso   1.00
O656   O     0.25520   0.24774   0.89721   0.00000  Uiso   1.00
O657   O     0.18936   0.17155   0.88524   0.00000  Uiso   1.00
O658   O     0.31065   0.16179   0.78143   0.00000  Uiso   1.00
O659   O     0.18090   0.16176   0.78143   0.00000  Uiso   1.00
O660   O     0.31910   0.17157   0.88523   0.00000  Uiso   1.00
Cl661  Cl    0.38699   0.25222   0.93057   0.00000  Uiso   1.00
Cl662  Cl    0.11301   0.08111   0.73610   0.00000  Uiso   1.00
Cl663  Cl    0.36839   0.08465   0.73078   0.00000  Uiso   1.00
Cl664  Cl    0.13161   0.24869   0.93589   0.00000  Uiso   1.00
Cl665  Cl    0.43742   0.01344   0.75667   0.00000  Uiso   1.00
Cl666  Cl    0.06258   0.31989   0.90999   0.00000  Uiso   1.00
Cl667  Cl    0.03805   0.01182   0.76031   0.00000  Uiso   1.00
Cl668  Cl    0.46195   0.32152   0.90635   0.00000  Uiso   1.00
C669   C     0.20432   0.31678   0.76159   0.00000  Uiso   1.00
H670   H     0.18551   0.01149   0.74087   0.00000  Uiso   1.00
H671   H     0.22012   0.29138   0.72349   0.00000  Uiso   1.00
H672   H     0.17945   0.29331   0.78074   0.00000  Uiso   1.00
C673   C     0.29568   0.01656   0.90507   0.00000  Uiso   1.00
H674   H     0.31449   0.32184   0.92580   0.00000  Uiso   1.00
H675   H     0.32055   0.04002   0.88592   0.00000  Uiso   1.00
H676   H     0.27989   0.04195   0.94318   0.00000  Uiso   1.00
C677   C     0.74733   0.06678   0.81827   0.00000  Uiso   1.00
C678   C     0.75267   0.26655   0.84839   0.00000  Uiso   1.00
C679   C     0.51551   0.07415   0.77845   0.00000  Uiso   1.00
C680   C     0.98449   0.25919   0.88822   0.00000  Uiso   1.00
C681   C     0.73961   0.01150   0.81220   0.00000  Uiso   1.00
C682   C     0.76039   0.32183   0.85447   0.00000  Uiso   1.00
C683   C     0.66444   0.16614   0.83410   0.00000  Uiso   1.00
C684   C     0.83557   0.16720   0.83256   0.00000  Uiso   1.00
C685   C     0.91098   0.20901   0.87035   0.00000  Uiso   1.00
C686   C     0.58902   0.12432   0.79632   0.00000  Uiso   1.00
C687   C     0.88388   0.16800   0.83104   0.00000  Uiso   1.00
C688   C     0.61612   0.16534   0.83563   0.00000  Uiso   1.00
C689   C     0.90285   0.12694   0.79178   0.00000  Uiso   1.00
C690   C     0.59715   0.20639   0.87488   0.00000  Uiso   1.00
C691   C     0.94922   0.12248   0.79934   0.00000  Uiso   1.00
C692   C     0.55078   0.21085   0.86733   0.00000  Uiso   1.00
C693   C     0.97661   0.16704   0.83259   0.00000  Uiso   1.00
C694   C     0.52339   0.16629   0.83408   0.00000  Uiso   1.00
C695   C     0.95719   0.21233   0.86444   0.00000  Uiso   1.00
C696   C     0.54281   0.12101   0.80223   0.00000  Uiso   1.00
C697   C     0.96902   0.07490   0.77689   0.00000  Uiso   1.00
C698   C     0.53098   0.25844   0.88977   0.00000  Uiso   1.00
Cu699  Cu    0.75501   0.17246   0.89479   0.00000  Uiso   1.00
Cu700  Cu    0.74500   0.16087   0.77187   0.00000  Uiso   1.00
H701   H     0.71509   0.12590   0.98271   0.00000  Uiso   1.00
H702   H     0.78491   0.20743   0.68396   0.00000  Uiso   1.00
N703   N     0.73745   0.15214   0.67951   0.00000  Uiso   1.00
N704   N     0.76256   0.18119   0.98716   0.00000  Uiso   1.00
O705   O     0.75326   0.09538   0.87326   0.00000  Uiso   1.00
O706   O     0.74675   0.23796   0.79341   0.00000  Uiso   1.00
O707   O     0.74480   0.08559   0.76945   0.00000  Uiso   1.00
O708   O     0.75520   0.24774   0.89721   0.00000  Uiso   1.00
O709   O     0.68936   0.17155   0.88524   0.00000  Uiso   1.00
O710   O     0.81065   0.16179   0.78143   0.00000  Uiso   1.00
O711   O     0.68090   0.16176   0.78143   0.00000  Uiso   1.00
O712   O     0.81910   0.17157   0.88523   0.00000  Uiso   1.00
Cl713  Cl    0.88699   0.25222   0.93057   0.00000  Uiso   1.00
Cl714  Cl    0.61301   0.08111   0.73610   0.00000  Uiso   1.00
Cl715  Cl    0.86839   0.08465   0.73078   0.00000  Uiso   1.00
Cl716  Cl    0.63161   0.24869   0.93589   0.00000  Uiso   1.00
Cl717  Cl    0.93742   0.01344   0.75667   0.00000  Uiso   1.00
Cl718  Cl    0.56258   0.31989   0.90999   0.00000  Uiso   1.00
Cl719  Cl    0.53805   0.01182   0.76031   0.00000  Uiso   1.00
Cl720  Cl    0.96195   0.32152   0.90635   0.00000  Uiso   1.00
C721   C     0.70432   0.31678   0.76159   0.00000  Uiso   1.00
H722   H     0.68551   0.01149   0.74087   0.00000  Uiso   1.00
H723   H     0.72012   0.29138   0.72349   0.00000  Uiso   1.00
H724   H     0.67945   0.29331   0.78074   0.00000  Uiso   1.00
C725   C     0.79568   0.01656   0.90507   0.00000  Uiso   1.00
H726   H     0.81449   0.32184   0.92580   0.00000  Uiso   1.00
H727   H     0.82055   0.04002   0.88592   0.00000  Uiso   1.00
H728   H     0.77989   0.04195   0.94318   0.00000  Uiso   1.00
C729   C     0.24733   0.40011   0.81827   0.00000  Uiso   1.00
C730   C     0.25267   0.59989   0.84839   0.00000  Uiso   1.00
C731   C     0.01551   0.40748   0.77845   0.00000  Uiso   1.00
C732   C     0.48449   0.59252   0.88822   0.00000  Uiso   1.00
C733   C     0.23961   0.34484   0.81220   0.00000  Uiso   1.00
C734   C     0.26039   0.65516   0.85447   0.00000  Uiso   1.00
C735   C     0.16444   0.49947   0.83410   0.00000  Uiso   1.00
C736   C     0.33557   0.50053   0.83256   0.00000  Uiso   1.00
C737   C     0.41098   0.54234   0.87035   0.00000  Uiso   1.00
C738   C     0.08902   0.45766   0.79632   0.00000  Uiso   1.00
C739   C     0.38388   0.50133   0.83104   0.00000  Uiso   1.00
C740   C     0.11612   0.49867   0.83563   0.00000  Uiso   1.00
C741   C     0.40285   0.46028   0.79178   0.00000  Uiso   1.00
C742   C     0.09715   0.53972   0.87488   0.00000  Uiso   1.00
C743   C     0.44922   0.45581   0.79934   0.00000  Uiso   1.00
C744   C     0.05078   0.54419   0.86733   0.00000  Uiso   1.00
C745   C     0.47661   0.50037   0.83259   0.00000  Uiso   1.00
C746   C     0.02339   0.49963   0.83408   0.00000  Uiso   1.00
C747   C     0.45719   0.54566   0.86444   0.00000  Uiso   1.00
C748   C     0.04281   0.45434   0.80223   0.00000  Uiso   1.00
C749   C     0.46902   0.40823   0.77689   0.00000  Uiso   1.00
C750   C     0.03098   0.59177   0.88977   0.00000  Uiso   1.00
Cu751  Cu    0.25501   0.50579   0.89479   0.00000  Uiso   1.00
Cu752  Cu    0.24500   0.49421   0.77187   0.00000  Uiso   1.00
H753   H     0.21509   0.45924   0.98271   0.00000  Uiso   1.00
H754   H     0.28491   0.54076   0.68396   0.00000  Uiso   1.00
N755   N     0.23745   0.48547   0.67951   0.00000  Uiso   1.00
N756   N     0.26256   0.51453   0.98716   0.00000  Uiso   1.00
O757   O     0.25326   0.42871   0.87326   0.00000  Uiso   1.00
O758   O     0.24675   0.57129   0.79341   0.00000  Uiso   1.00
O759   O     0.24480   0.41892   0.76945   0.00000  Uiso   1.00
O760   O     0.25520   0.58108   0.89721   0.00000  Uiso   1.00
O761   O     0.18936   0.50488   0.88524   0.00000  Uiso   1.00
O762   O     0.31065   0.49512   0.78143   0.00000  Uiso   1.00
O763   O     0.18090   0.49510   0.78143   0.00000  Uiso   1.00
O764   O     0.31910   0.50490   0.88523   0.00000  Uiso   1.00
Cl765  Cl    0.38699   0.58556   0.93057   0.00000  Uiso   1.00
Cl766  Cl    0.11301   0.41444   0.73610   0.00000  Uiso   1.00
Cl767  Cl    0.36839   0.41798   0.73078   0.00000  Uiso   1.00
Cl768  Cl    0.13161   0.58202   0.93589   0.00000  Uiso   1.00
Cl769  Cl    0.43742   0.34678   0.75667   0.00000  Uiso   1.00
Cl770  Cl    0.06258   0.65322   0.90999   0.00000  Uiso   1.00
Cl771  Cl    0.03805   0.34515   0.76031   0.00000  Uiso   1.00
Cl772  Cl    0.46195   0.65485   0.90635   0.00000  Uiso   1.00
C773   C     0.20432   0.65011   0.76159   0.00000  Uiso   1.00
H774   H     0.18551   0.34483   0.74087   0.00000  Uiso   1.00
H775   H     0.22012   0.62471   0.72349   0.00000  Uiso   1.00
H776   H     0.17945   0.62664   0.78074   0.00000  Uiso   1.00
C777   C     0.29568   0.34989   0.90507   0.00000  Uiso   1.00
H778   H     0.31449   0.65517   0.92580   0.00000  Uiso   1.00
H779   H     0.32055   0.37336   0.88592   0.00000  Uiso   1.00
H780   H     0.27989   0.37529   0.94318   0.00000  Uiso   1.00
C781   C     0.74733   0.40011   0.81827   0.00000  Uiso   1.00
C782   C     0.75267   0.59989   0.84839   0.00000  Uiso   1.00
C783   C     0.51551   0.40748   0.77845   0.00000  Uiso   1.00
C784   C     0.98449   0.59252   0.88822   0.00000  Uiso   1.00
C785   C     0.73961   0.34484   0.81220   0.00000  Uiso   1.00
C786   C     0.76039   0.65516   0.85447   0.00000  Uiso   1.00
C787   C     0.66444   0.49947   0.83410   0.00000  Uiso   1.00
C788   C     0.83557   0.50053   0.83256   0.00000  Uiso   1.00
C789   C     0.91098   0.54234   0.87035   0.00000  Uiso   1.00
C790   C     0.58902   0.45766   0.79632   0.00000  Uiso   1.00
C791   C     0.88388   0.50133   0.83104   0.00000  Uiso   1.00
C792   C     0.61612   0.49867   0.83563   0.00000  Uiso   1.00
C793   C     0.90285   0.46028   0.79178   0.00000  Uiso   1.00
C794   C     0.59715   0.53972   0.87488   0.00000  Uiso   1.00
C795   C     0.94922   0.45581   0.79934   0.00000  Uiso   1.00
C796   C     0.55078   0.54419   0.86733   0.00000  Uiso   1.00
C797   C     0.97661   0.50037   0.83259   0.00000  Uiso   1.00
C798   C     0.52339   0.49963   0.83408   0.00000  Uiso   1.00
C799   C     0.95719   0.54566   0.86444   0.00000  Uiso   1.00
C800   C     0.54281   0.45434   0.80223   0.00000  Uiso   1.00
C801   C     0.96902   0.40823   0.77689   0.00000  Uiso   1.00
C802   C     0.53098   0.59177   0.88977   0.00000  Uiso   1.00
Cu803  Cu    0.75501   0.50579   0.89479   0.00000  Uiso   1.00
Cu804  Cu    0.74500   0.49421   0.77187   0.00000  Uiso   1.00
H805   H     0.71509   0.45924   0.98271   0.00000  Uiso   1.00
H806   H     0.78491   0.54076   0.68396   0.00000  Uiso   1.00
N807   N     0.73745   0.48547   0.67951   0.00000  Uiso   1.00
N808   N     0.76256   0.51453   0.98716   0.00000  Uiso   1.00
O809   O     0.75326   0.42871   0.87326   0.00000  Uiso   1.00
O810   O     0.74675   0.57129   0.79341   0.00000  Uiso   1.00
O811   O     0.74480   0.41892   0.76945   0.00000  Uiso   1.00
O812   O     0.75520   0.58108   0.89721   0.00000  Uiso   1.00
O813   O     0.68936   0.50488   0.88524   0.00000  Uiso   1.00
O814   O     0.81065   0.49512   0.78143   0.00000  Uiso   1.00
O815   O     0.68090   0.49510   0.78143   0.00000  Uiso   1.00
O816   O     0.81910   0.50490   0.88523   0.00000  Uiso   1.00
Cl817  Cl    0.88699   0.58556   0.93057   0.00000  Uiso   1.00
Cl818  Cl    0.61301   0.41444   0.73610   0.00000  Uiso   1.00
Cl819  Cl    0.86839   0.41798   0.73078   0.00000  Uiso   1.00
Cl820  Cl    0.63161   0.58202   0.93589   0.00000  Uiso   1.00
Cl821  Cl    0.93742   0.34678   0.75667   0.00000  Uiso   1.00
Cl822  Cl    0.56258   0.65322   0.90999   0.00000  Uiso   1.00
Cl823  Cl    0.53805   0.34515   0.76031   0.00000  Uiso   1.00
Cl824  Cl    0.96195   0.65485   0.90635   0.00000  Uiso   1.00
C825   C     0.70432   0.65011   0.76159   0.00000  Uiso   1.00
H826   H     0.68551   0.34483   0.74087   0.00000  Uiso   1.00
H827   H     0.72012   0.62471   0.72349   0.00000  Uiso   1.00
H828   H     0.67945   0.62664   0.78074   0.00000  Uiso   1.00
C829   C     0.79568   0.34989   0.90507   0.00000  Uiso   1.00
H830   H     0.81449   0.65517   0.92580   0.00000  Uiso   1.00
H831   H     0.82055   0.37336   0.88592   0.00000  Uiso   1.00
H832   H     0.77989   0.37529   0.94318   0.00000  Uiso   1.00
C833   C     0.24733   0.73345   0.81827   0.00000  Uiso   1.00
C834   C     0.25267   0.93322   0.84839   0.00000  Uiso   1.00
C835   C     0.01551   0.74081   0.77845   0.00000  Uiso   1.00
C836   C     0.48449   0.92585   0.88822   0.00000  Uiso   1.00
C837   C     0.23961   0.67817   0.81220   0.00000  Uiso   1.00
C838   C     0.26039   0.98850   0.85447   0.00000  Uiso   1.00
C839   C     0.16444   0.83280   0.83410   0.00000  Uiso   1.00
C840   C     0.33557   0.83386   0.83256   0.00000  Uiso   1.00
C841   C     0.41098   0.87568   0.87035   0.00000  Uiso   1.00
C842   C     0.08902   0.79099   0.79632   0.00000  Uiso   1.00
C843   C     0.38388   0.83466   0.83104   0.00000  Uiso   1.00
C844   C     0.11612   0.83200   0.83563   0.00000  Uiso   1.00
C845   C     0.40285   0.79361   0.79178   0.00000  Uiso   1.00
C846   C     0.09715   0.87306   0.87488   0.00000  Uiso   1.00
C847   C     0.44922   0.78915   0.79934   0.00000  Uiso   1.00
C848   C     0.05078   0.87752   0.86733   0.00000  Uiso   1.00
C849   C     0.47661   0.83371   0.83259   0.00000  Uiso   1.00
C850   C     0.02339   0.83296   0.83408   0.00000  Uiso   1.00
C851   C     0.45719   0.87899   0.86444   0.00000  Uiso   1.00
C852   C     0.04281   0.78767   0.80223   0.00000  Uiso   1.00
C853   C     0.46902   0.74156   0.77689   0.00000  Uiso   1.00
C854   C     0.03098   0.92510   0.88977   0.00000  Uiso   1.00
Cu855  Cu    0.25501   0.83913   0.89479   0.00000  Uiso   1.00
Cu856  Cu    0.24500   0.82754   0.77187   0.00000  Uiso   1.00
H857   H     0.21509   0.79257   0.98271   0.00000  Uiso   1.00
H858   H     0.28491   0.87410   0.68396   0.00000  Uiso   1.00
N859   N     0.23745   0.81881   0.67951   0.00000  Uiso   1.00
N860   N     0.26256   0.84786   0.98716   0.00000  Uiso   1.00
O861   O     0.25326   0.76204   0.87326   0.00000  Uiso   1.00
O862   O     0.24675   0.90462   0.79341   0.00000  Uiso   1.00
O863   O     0.24480   0.75226   0.76945   0.00000  Uiso   1.00
O864   O     0.25520   0.91441   0.89721   0.00000  Uiso   1.00
O865   O     0.18936   0.83821   0.88524   0.00000  Uiso   1.00
O866   O     0.31065   0.82845   0.78143   0.00000  Uiso   1.00
O867   O     0.18090   0.82843   0.78143   0.00000  Uiso   1.00
O868   O     0.31910   0.83824   0.88523   0.00000  Uiso   1.00
Cl869  Cl    0.38699   0.91889   0.93057   0.00000  Uiso   1.00
Cl870  Cl    0.11301   0.74778   0.73610   0.00000  Uiso   1.00
Cl871  Cl    0.36839   0.75132   0.73078   0.00000  Uiso   1.00
Cl872  Cl    0.13161   0.91535   0.93589   0.00000  Uiso   1.00
Cl873  Cl    0.43742   0.68011   0.75667   0.00000  Uiso   1.00
Cl874  Cl    0.06258   0.98656   0.90999   0.00000  Uiso   1.00
Cl875  Cl    0.03805   0.67848   0.76031   0.00000  Uiso   1.00
Cl876  Cl    0.46195   0.98818   0.90635   0.00000  Uiso   1.00
C877   C     0.20432   0.98344   0.76159   0.00000  Uiso   1.00
H878   H     0.18551   0.67816   0.74087   0.00000  Uiso   1.00
H879   H     0.22012   0.95805   0.72349   0.00000  Uiso   1.00
H880   H     0.17945   0.95998   0.78074   0.00000  Uiso   1.00
C881   C     0.29568   0.68322   0.90507   0.00000  Uiso   1.00
H882   H     0.31449   0.98851   0.92580   0.00000  Uiso   1.00
H883   H     0.32055   0.70669   0.88592   0.00000  Uiso   1.00
H884   H     0.27989   0.70862   0.94318   0.00000  Uiso   1.00
C885   C     0.74733   0.73345   0.81827   0.00000  Uiso   1.00
C886   C     0.75267   0.93322   0.84839   0.00000  Uiso   1.00
C887   C     0.51551   0.74081   0.77845   0.00000  Uiso   1.00
C888   C     0.98449   0.92585   0.88822   0.00000  Uiso   1.00
C889   C     0.73961   0.67817   0.81220   0.00000  Uiso   1.00
C890   C     0.76039   0.98850   0.85447   0.00000  Uiso   1.00
C891   C     0.66444   0.83280   0.83410   0.00000  Uiso   1.00
C892   C     0.83557   0.83386   0.83256   0.00000  Uiso   1.00
C893   C     0.91098   0.87568   0.87035   0.00000  Uiso   1.00
C894   C     0.58902   0.79099   0.79632   0.00000  Uiso   1.00
C895   C     0.88388   0.83466   0.83104   0.00000  Uiso   1.00
C896   C     0.61612   0.83200   0.83563   0.00000  Uiso   1.00
C897   C     0.90285   0.79361   0.79178   0.00000  Uiso   1.00
C898   C     0.59715   0.87306   0.87488   0.00000  Uiso   1.00
C899   C     0.94922   0.78915   0.79934   0.00000  Uiso   1.00
C900   C     0.55078   0.87752   0.86733   0.00000  Uiso   1.00
C901   C     0.97661   0.83371   0.83259   0.00000  Uiso   1.00
C902   C     0.52339   0.83296   0.83408   0.00000  Uiso   1.00
C903   C     0.95719   0.87899   0.86444   0.00000  Uiso   1.00
C904   C     0.54281   0.78767   0.80223   0.00000  Uiso   1.00
C905   C     0.96902   0.74156   0.77689   0.00000  Uiso   1.00
C906   C     0.53098   0.92510   0.88977   0.00000  Uiso   1.00
Cu907  Cu    0.75501   0.83913   0.89479   0.00000  Uiso   1.00
Cu908  Cu    0.74500   0.82754   0.77187   0.00000  Uiso   1.00
H909   H     0.71509   0.79257   0.98271   0.00000  Uiso   1.00
H910   H     0.78491   0.87410   0.68396   0.00000  Uiso   1.00
N911   N     0.73745   0.81881   0.67951   0.00000  Uiso   1.00
N912   N     0.76256   0.84786   0.98716   0.00000  Uiso   1.00
O913   O     0.75326   0.76204   0.87326   0.00000  Uiso   1.00
O914   O     0.74675   0.90462   0.79341   0.00000  Uiso   1.00
O915   O     0.74480   0.75226   0.76945   0.00000  Uiso   1.00
O916   O     0.75520   0.91441   0.89721   0.00000  Uiso   1.00
O917   O     0.68936   0.83821   0.88524   0.00000  Uiso   1.00
O918   O     0.81065   0.82845   0.78143   0.00000  Uiso   1.00
O919   O     0.68090   0.82843   0.78143   0.00000  Uiso   1.00
O920   O     0.81910   0.83824   0.88523   0.00000  Uiso   1.00
Cl921  Cl    0.88699   0.91889   0.93057   0.00000  Uiso   1.00
Cl922  Cl    0.61301   0.74778   0.73610   0.00000  Uiso   1.00
Cl923  Cl    0.86839   0.75132   0.73078   0.00000  Uiso   1.00
Cl924  Cl    0.63161   0.91535   0.93589   0.00000  Uiso   1.00
Cl925  Cl    0.93742   0.68011   0.75667   0.00000  Uiso   1.00
Cl926  Cl    0.56258   0.98656   0.90999   0.00000  Uiso   1.00
Cl927  Cl    0.53805   0.67848   0.76031   0.00000  Uiso   1.00
Cl928  Cl    0.96195   0.98818   0.90635   0.00000  Uiso   1.00
C929   C     0.70432   0.98344   0.76159   0.00000  Uiso   1.00
H930   H     0.68551   0.67816   0.74087   0.00000  Uiso   1.00
H931   H     0.72012   0.95805   0.72349   0.00000  Uiso   1.00
H932   H     0.67945   0.95998   0.78074   0.00000  Uiso   1.00
C933   C     0.79568   0.68322   0.90507   0.00000  Uiso   1.00
H934   H     0.81449   0.98851   0.92580   0.00000  Uiso   1.00
H935   H     0.82055   0.70669   0.88592   0.00000  Uiso   1.00
H936   H     0.77989   0.70862   0.94318   0.00000  Uiso   1.00
loop_
_geom_bond_atom_site_label_1
_geom_bond_atom_site_label_2
_geom_bond_distance
_geom_bond_site_symmetry_2
_ccdc_geom_bond_type
C1     O31     1.287   .     A
C1     C5      1.430   .     S
C1     O29     1.281   .     A
C2     O30     1.281   .     A
C2     O32     1.287   .     A
C2     C6      1.430   .     S
C3     C20     1.418   .     A
C3     Cl43    1.778   .     S
C3     C73     1.401   1_455 S
C4     C19     1.418   .     A
C4     Cl44    1.778   .     S
C4     C74     1.401   .     S
C5     C214    1.359   1_545 S
C5     C253    1.523   1_545 S
C6     C109    1.359   .     S
C6     C153    1.523   .     S
C7     O33     1.294   .     A
C7     C12     1.459   .     S
C7     O35     1.290   .     A
C8     O34     1.294   .     A
C8     C11     1.459   .     S
C8     O36     1.290   .     A
C9     Cl37    1.778   .     S
C9     C11     1.406   .     A
C9     C19     1.409   .     A
C10    Cl38    1.778   .     S
C10    C12     1.406   .     A
C10    C20     1.409   .     A
C11    C13     1.404   .     A
C12    C14     1.404   .     A
C13    C15     1.410   .     A
C13    Cl39    1.778   .     S
C14    C16     1.410   .     A
C14    Cl40    1.778   .     S
C15    C21     1.417   .     A
C15    C17     1.422   .     A
C16    C18     1.422   .     A
C16    C22     1.417   .     A
C17    C19     1.420   .     A
C17    C70     1.410   .     S
C18    C20     1.420   .     A
C18    C69     1.410   1_455 S
C21    Cl41    1.778   .     S
C21    C55     1.401   .     S
C22    Cl42    1.778   .     S
C22    C56     1.401   1_455 S
Cu23   Cu24    2.678   .     S
Cu23   O32     1.962   .     S
Cu23   N28     2.012   .     S
Cu23   O36     1.960   .     S
Cu23   O29     1.968   .     S
Cu23   O33     1.974   .     S
Cu24   N27     2.012   .     S
Cu24   O31     1.962   .     S
Cu24   O35     1.960   .     S
Cu24   O30     1.968   .     S
Cu24   O34     1.974   .     S
H25    N339    1.029   .     S
H26    N652    1.029   1_554 S
N27    H649    1.029   1_554 S
N27    N652    1.293   1_554 S
N28    N339    1.293   .     S
N28    H338    1.029   .     S
C45    H47     1.110   .     S
C45    H48     1.111   .     S
C45    C109    1.523   .     S
C45    H150    1.109   .     S
H46    C253    1.109   1_545 S
C49    H52     1.110   .     S
C49    H51     1.111   .     S
C49    C214    1.523   1_545 S
C49    H258    1.109   1_545 S
H50    C153    1.109   .     S
C53    O83     1.287   .     A
C53    C57     1.430   .     S
C53    O81     1.281   .     A
C54    O82     1.281   .     A
C54    O84     1.287   .     A
C54    C58     1.430   .     S
C55    C72     1.418   .     A
C55    Cl95    1.778   .     S
C56    C71     1.418   .     A
C56    Cl96    1.778   .     S
C56    C22     1.401   1_655 S
C57    C266    1.359   1_545 S
C57    C305    1.523   1_545 S
C58    C161    1.359   .     S
C58    C205    1.523   .     S
C59    O85     1.294   .     A
C59    C64     1.459   .     S
C59    O87     1.290   .     A
C60    O86     1.294   .     A
C60    C63     1.459   .     S
C60    O88     1.290   .     A
C61    Cl89    1.778   .     S
C61    C63     1.406   .     A
C61    C71     1.409   .     A
C62    Cl90    1.778   .     S
C62    C64     1.406   .     A
C62    C72     1.409   .     A
C63    C65     1.404   .     A
C64    C66     1.404   .     A
C65    C67     1.410   .     A
C65    Cl91    1.778   .     S
C66    C68     1.410   .     A
C66    Cl92    1.778   .     S
C67    C73     1.417   .     A
C67    C69     1.422   .     A
C68    C70     1.422   .     A
C68    C74     1.417   .     A
C69    C71     1.420   .     A
C69    C18     1.410   1_655 S
C70    C72     1.420   .     A
C73    Cl93    1.778   .     S
C73    C3      1.401   1_655 S
C74    Cl94    1.778   .     S
Cu75   Cu76    2.678   .     S
Cu75   O84     1.962   .     S
Cu75   N80     2.012   .     S
Cu75   O88     1.960   .     S
Cu75   O81     1.968   .     S
Cu75   O85     1.974   .     S
Cu76   N79     2.012   .     S
Cu76   O83     1.962   .     S
Cu76   O87     1.960   .     S
Cu76   O82     1.968   .     S
Cu76   O86     1.974   .     S
H77    N391    1.029   .     S
H78    N704    1.029   1_554 S
N79    H701    1.029   1_554 S
N79    N704    1.293   1_554 S
N80    N391    1.293   .     S
N80    H390    1.029   .     S
C97    H99     1.110   .     S
C97    H100    1.111   .     S
C97    C161    1.523   .     S
C97    H202    1.109   .     S
H98    C305    1.109   1_545 S
C101   H104    1.110   .     S
C101   H103    1.111   .     S
C101   C266    1.523   1_545 S
C101   H310    1.109   1_545 S
H102   C205    1.109   .     S
C105   O135    1.287   .     A
C105   C109    1.430   .     S
C105   O133    1.281   .     A
C106   O134    1.281   .     A
C106   O136    1.287   .     A
C106   C110    1.430   .     S
C107   C124    1.418   .     A
C107   Cl147   1.778   .     S
C107   C177    1.401   1_455 S
C108   C123    1.418   .     A
C108   Cl148   1.778   .     S
C108   C178    1.401   .     S
C110   C213    1.359   .     S
C110   C257    1.523   .     S
C111   O137    1.294   .     A
C111   C116    1.459   .     S
C111   O139    1.290   .     A
C112   O138    1.294   .     A
C112   C115    1.459   .     S
C112   O140    1.290   .     A
C113   Cl141   1.778   .     S
C113   C115    1.406   .     A
C113   C123    1.409   .     A
C114   Cl142   1.778   .     S
C114   C116    1.406   .     A
C114   C124    1.409   .     A
C115   C117    1.404   .     A
C116   C118    1.404   .     A
C117   C119    1.410   .     A
C117   Cl143   1.778   .     S
C118   C120    1.410   .     A
C118   Cl144   1.778   .     S
C119   C125    1.417   .     A
C119   C121    1.422   .     A
C120   C122    1.422   .     A
C120   C126    1.417   .     A
C121   C123    1.420   .     A
C121   C174    1.410   .     S
C122   C124    1.420   .     A
C122   C173    1.410   1_455 S
C125   Cl145   1.778   .     S
C125   C159    1.401   .     S
C126   Cl146   1.778   .     S
C126   C160    1.401   1_455 S
Cu127  Cu128   2.678   .     S
Cu127  O136    1.962   .     S
Cu127  N132    2.012   .     S
Cu127  O140    1.960   .     S
Cu127  O133    1.968   .     S
Cu127  O137    1.974   .     S
Cu128  N131    2.012   .     S
Cu128  O135    1.962   .     S
Cu128  O139    1.960   .     S
Cu128  O134    1.968   .     S
Cu128  O138    1.974   .     S
H129   N443    1.029   .     S
H130   N756    1.029   1_554 S
N131   H753    1.029   1_554 S
N131   N756    1.293   1_554 S
N132   N443    1.293   .     S
N132   H442    1.029   .     S
C149   H151    1.110   .     S
C149   H152    1.111   .     S
C149   C213    1.523   .     S
C149   H254    1.109   .     S
C153   H156    1.110   .     S
C153   H155    1.111   .     S
H154   C257    1.109   .     S
C157   O187    1.287   .     A
C157   C161    1.430   .     S
C157   O185    1.281   .     A
C158   O186    1.281   .     A
C158   O188    1.287   .     A
C158   C162    1.430   .     S
C159   C176    1.418   .     A
C159   Cl199   1.778   .     S
C160   C175    1.418   .     A
C160   Cl200   1.778   .     S
C160   C126    1.401   1_655 S
C162   C265    1.359   .     S
C162   C309    1.523   .     S
C163   O189    1.294   .     A
C163   C168    1.459   .     S
C163   O191    1.290   .     A
C164   O190    1.294   .     A
C164   C167    1.459   .     S
C164   O192    1.290   .     A
C165   Cl193   1.778   .     S
C165   C167    1.406   .     A
C165   C175    1.409   .     A
C166   Cl194   1.778   .     S
C166   C168    1.406   .     A
C166   C176    1.409   .     A
C167   C169    1.404   .     A
C168   C170    1.404   .     A
C169   C171    1.410   .     A
C169   Cl195   1.778   .     S
C170   C172    1.410   .     A
C170   Cl196   1.778   .     S
C171   C177    1.417   .     A
C171   C173    1.422   .     A
C172   C174    1.422   .     A
C172   C178    1.417   .     A
C173   C175    1.420   .     A
C173   C122    1.410   1_655 S
C174   C176    1.420   .     A
C177   Cl197   1.778   .     S
C177   C107    1.401   1_655 S
C178   Cl198   1.778   .     S
Cu179  Cu180   2.678   .     S
Cu179  O188    1.962   .     S
Cu179  N184    2.012   .     S
Cu179  O192    1.960   .     S
Cu179  O185    1.968   .     S
Cu179  O189    1.974   .     S
Cu180  N183    2.012   .     S
Cu180  O187    1.962   .     S
Cu180  O191    1.960   .     S
Cu180  O186    1.968   .     S
Cu180  O190    1.974   .     S
H181   N495    1.029   .     S
H182   N808    1.029   1_554 S
N183   H805    1.029   1_554 S
N183   N808    1.293   1_554 S
N184   N495    1.293   .     S
N184   H494    1.029   .     S
C201   H203    1.110   .     S
C201   H204    1.111   .     S
C201   C265    1.523   .     S
C201   H306    1.109   .     S
C205   H208    1.110   .     S
C205   H207    1.111   .     S
H206   C309    1.109   .     S
C209   O239    1.287   .     A
C209   C213    1.430   .     S
C209   O237    1.281   .     A
C210   O238    1.281   .     A
C210   O240    1.287   .     A
C210   C214    1.430   .     S
C211   C228    1.418   .     A
C211   Cl251   1.778   .     S
C211   C281    1.401   1_455 S
C212   C227    1.418   .     A
C212   Cl252   1.778   .     S
C212   C282    1.401   .     S
C214   C5      1.359   1_565 S
C214   C49     1.523   1_565 S
C215   O241    1.294   .     A
C215   C220    1.459   .     S
C215   O243    1.290   .     A
C216   O242    1.294   .     A
C216   C219    1.459   .     S
C216   O244    1.290   .     A
C217   Cl245   1.778   .     S
C217   C219    1.406   .     A
C217   C227    1.409   .     A
C218   Cl246   1.778   .     S
C218   C220    1.406   .     A
C218   C228    1.409   .     A
C219   C221    1.404   .     A
C220   C222    1.404   .     A
C221   C223    1.410   .     A
C221   Cl247   1.778   .     S
C222   C224    1.410   .     A
C222   Cl248   1.778   .     S
C223   C229    1.417   .     A
C223   C225    1.422   .     A
C224   C226    1.422   .     A
C224   C230    1.417   .     A
C225   C227    1.420   .     A
C225   C278    1.410   .     S
C226   C228    1.420   .     A
C226   C277    1.410   1_455 S
C229   Cl249   1.778   .     S
C229   C263    1.401   .     S
C230   Cl250   1.778   .     S
C230   C264    1.401   1_455 S
Cu231  Cu232   2.678   .     S
Cu231  O240    1.962   .     S
Cu231  N236    2.012   .     S
Cu231  O244    1.960   .     S
Cu231  O237    1.968   .     S
Cu231  O241    1.974   .     S
Cu232  N235    2.012   .     S
Cu232  O239    1.962   .     S
Cu232  O243    1.960   .     S
Cu232  O238    1.968   .     S
Cu232  O242    1.974   .     S
H233   N547    1.029   .     S
H234   N860    1.029   1_554 S
N235   H857    1.029   1_554 S
N235   N860    1.293   1_554 S
N236   N547    1.293   .     S
N236   H546    1.029   .     S
C253   H255    1.110   .     S
C253   H256    1.111   .     S
C253   C5      1.523   1_565 S
C253   H46     1.109   1_565 S
C257   H260    1.110   .     S
C257   H259    1.111   .     S
H258   C49     1.109   1_565 S
C261   O291    1.287   .     A
C261   C265    1.430   .     S
C261   O289    1.281   .     A
C262   O290    1.281   .     A
C262   O292    1.287   .     A
C262   C266    1.430   .     S
C263   C280    1.418   .     A
C263   Cl303   1.778   .     S
C264   C279    1.418   .     A
C264   Cl304   1.778   .     S
C264   C230    1.401   1_655 S
C266   C57     1.359   1_565 S
C266   C101    1.523   1_565 S
C267   O293    1.294   .     A
C267   C272    1.459   .     S
C267   O295    1.290   .     A
C268   O294    1.294   .     A
C268   C271    1.459   .     S
C268   O296    1.290   .     A
C269   Cl297   1.778   .     S
C269   C271    1.406   .     A
C269   C279    1.409   .     A
C270   Cl298   1.778   .     S
C270   C272    1.406   .     A
C270   C280    1.409   .     A
C271   C273    1.404   .     A
C272   C274    1.404   .     A
C273   C275    1.410   .     A
C273   Cl299   1.778   .     S
C274   C276    1.410   .     A
C274   Cl300   1.778   .     S
C275   C281    1.417   .     A
C275   C277    1.422   .     A
C276   C278    1.422   .     A
C276   C282    1.417   .     A
C277   C279    1.420   .     A
C277   C226    1.410   1_655 S
C278   C280    1.420   .     A
C281   Cl301   1.778   .     S
C281   C211    1.401   1_655 S
C282   Cl302   1.778   .     S
Cu283  Cu284   2.678   .     S
Cu283  O292    1.962   .     S
Cu283  N288    2.012   .     S
Cu283  O296    1.960   .     S
Cu283  O289    1.968   .     S
Cu283  O293    1.974   .     S
Cu284  N287    2.012   .     S
Cu284  O291    1.962   .     S
Cu284  O295    1.960   .     S
Cu284  O290    1.968   .     S
Cu284  O294    1.974   .     S
H285   N599    1.029   .     S
H286   N912    1.029   1_554 S
N287   H909    1.029   1_554 S
N287   N912    1.293   1_554 S
N288   N599    1.293   .     S
N288   H598    1.029   .     S
C305   H307    1.110   .     S
C305   H308    1.111   .     S
C305   C57     1.523   1_565 S
C305   H98     1.109   1_565 S
C309   H312    1.110   .     S
C309   H311    1.111   .     S
H310   C101    1.109   1_565 S
C313   O343    1.287   .     A
C313   C317    1.430   .     S
C313   O341    1.281   .     A
C314   O342    1.281   .     A
C314   O344    1.287   .     A
C314   C318    1.430   .     S
C315   C332    1.418   .     A
C315   Cl355   1.778   .     S
C315   C385    1.401   1_455 S
C316   C331    1.418   .     A
C316   Cl356   1.778   .     S
C316   C386    1.401   .     S
C317   C526    1.359   1_545 S
C317   C565    1.523   1_545 S
C318   C421    1.359   .     S
C318   C465    1.523   .     S
C319   O345    1.294   .     A
C319   C324    1.459   .     S
C319   O347    1.290   .     A
C320   O346    1.294   .     A
C320   C323    1.459   .     S
C320   O348    1.290   .     A
C321   Cl349   1.778   .     S
C321   C323    1.406   .     A
C321   C331    1.409   .     A
C322   Cl350   1.778   .     S
C322   C324    1.406   .     A
C322   C332    1.409   .     A
C323   C325    1.404   .     A
C324   C326    1.404   .     A
C325   C327    1.410   .     A
C325   Cl351   1.778   .     S
C326   C328    1.410   .     A
C326   Cl352   1.778   .     S
C327   C333    1.417   .     A
C327   C329    1.422   .     A
C328   C330    1.422   .     A
C328   C334    1.417   .     A
C329   C331    1.420   .     A
C329   C382    1.410   .     S
C330   C332    1.420   .     A
C330   C381    1.410   1_455 S
C333   Cl353   1.778   .     S
C333   C367    1.401   .     S
C334   Cl354   1.778   .     S
C334   C368    1.401   1_455 S
Cu335  Cu336   2.678   .     S
Cu335  O344    1.962   .     S
Cu335  N340    2.012   .     S
Cu335  O348    1.960   .     S
Cu335  O341    1.968   .     S
Cu335  O345    1.974   .     S
Cu336  N339    2.012   .     S
Cu336  O343    1.962   .     S
Cu336  O347    1.960   .     S
Cu336  O342    1.968   .     S
Cu336  O346    1.974   .     S
H337   N651    1.029   .     S
N340   N651    1.293   .     S
N340   H650    1.029   .     S
C357   H359    1.110   .     S
C357   H360    1.111   .     S
C357   C421    1.523   .     S
C357   H462    1.109   .     S
H358   C565    1.109   1_545 S
C361   H364    1.110   .     S
C361   H363    1.111   .     S
C361   C526    1.523   1_545 S
C361   H570    1.109   1_545 S
H362   C465    1.109   .     S
C365   O395    1.287   .     A
C365   C369    1.430   .     S
C365   O393    1.281   .     A
C366   O394    1.281   .     A
C366   O396    1.287   .     A
C366   C370    1.430   .     S
C367   C384    1.418   .     A
C367   Cl407   1.778   .     S
C368   C383    1.418   .     A
C368   Cl408   1.778   .     S
C368   C334    1.401   1_655 S
C369   C578    1.359   1_545 S
C369   C617    1.523   1_545 S
C370   C473    1.359   .     S
C370   C517    1.523   .     S
C371   O397    1.294   .     A
C371   C376    1.459   .     S
C371   O399    1.290   .     A
C372   O398    1.294   .     A
C372   C375    1.459   .     S
C372   O400    1.290   .     A
C373   Cl401   1.778   .     S
C373   C375    1.406   .     A
C373   C383    1.409   .     A
C374   Cl402   1.778   .     S
C374   C376    1.406   .     A
C374   C384    1.409   .     A
C375   C377    1.404   .     A
C376   C378    1.404   .     A
C377   C379    1.410   .     A
C377   Cl403   1.778   .     S
C378   C380    1.410   .     A
C378   Cl404   1.778   .     S
C379   C385    1.417   .     A
C379   C381    1.422   .     A
C380   C382    1.422   .     A
C380   C386    1.417   .     A
C381   C383    1.420   .     A
C381   C330    1.410   1_655 S
C382   C384    1.420   .     A
C385   Cl405   1.778   .     S
C385   C315    1.401   1_655 S
C386   Cl406   1.778   .     S
Cu387  Cu388   2.678   .     S
Cu387  O396    1.962   .     S
Cu387  N392    2.012   .     S
Cu387  O400    1.960   .     S
Cu387  O393    1.968   .     S
Cu387  O397    1.974   .     S
Cu388  N391    2.012   .     S
Cu388  O395    1.962   .     S
Cu388  O399    1.960   .     S
Cu388  O394    1.968   .     S
Cu388  O398    1.974   .     S
H389   N703    1.029   .     S
N392   N703    1.293   .     S
N392   H702    1.029   .     S
C409   H411    1.110   .     S
C409   H412    1.111   .     S
C409   C473    1.523   .     S
C409   H514    1.109   .     S
H410   C617    1.109   1_545 S
C413   H416    1.110   .     S
C413   H415    1.111   .     S
C413   C578    1.523   1_545 S
C413   H622    1.109   1_545 S
H414   C517    1.109   .     S
C417   O447    1.287   .     A
C417   C421    1.430   .     S
C417   O445    1.281   .     A
C418   O446    1.281   .     A
C418   O448    1.287   .     A
C418   C422    1.430   .     S
C419   C436    1.418   .     A
C419   Cl459   1.778   .     S
C419   C489    1.401   1_455 S
C420   C435    1.418   .     A
C420   Cl460   1.778   .     S
C420   C490    1.401   .     S
C422   C525    1.359   .     S
C422   C569    1.523   .     S
C423   O449    1.294   .     A
C423   C428    1.459   .     S
C423   O451    1.290   .     A
C424   O450    1.294   .     A
C424   C427    1.459   .     S
C424   O452    1.290   .     A
C425   Cl453   1.778   .     S
C425   C427    1.406   .     A
C425   C435    1.409   .     A
C426   Cl454   1.778   .     S
C426   C428    1.406   .     A
C426   C436    1.409   .     A
C427   C429    1.404   .     A
C428   C430    1.404   .     A
C429   C431    1.410   .     A
C429   Cl455   1.778   .     S
C430   C432    1.410   .     A
C430   Cl456   1.778   .     S
C431   C437    1.417   .     A
C431   C433    1.422   .     A
C432   C434    1.422   .     A
C432   C438    1.417   .     A
C433   C435    1.420   .     A
C433   C486    1.410   .     S
C434   C436    1.420   .     A
C434   C485    1.410   1_455 S
C437   Cl457   1.778   .     S
C437   C471    1.401   .     S
C438   Cl458   1.778   .     S
C438   C472    1.401   1_455 S
Cu439  Cu440   2.678   .     S
Cu439  O448    1.962   .     S
Cu439  N444    2.012   .     S
Cu439  O452    1.960   .     S
Cu439  O445    1.968   .     S
Cu439  O449    1.974   .     S
Cu440  N443    2.012   .     S
Cu440  O447    1.962   .     S
Cu440  O451    1.960   .     S
Cu440  O446    1.968   .     S
Cu440  O450    1.974   .     S
H441   N755    1.029   .     S
N444   N755    1.293   .     S
N444   H754    1.029   .     S
C461   H463    1.110   .     S
C461   H464    1.111   .     S
C461   C525    1.523   .     S
C461   H566    1.109   .     S
C465   H468    1.110   .     S
C465   H467    1.111   .     S
H466   C569    1.109   .     S
C469   O499    1.287   .     A
C469   C473    1.430   .     S
C469   O497    1.281   .     A
C470   O498    1.281   .     A
C470   O500    1.287   .     A
C470   C474    1.430   .     S
C471   C488    1.418   .     A
C471   Cl511   1.778   .     S
C472   C487    1.418   .     A
C472   Cl512   1.778   .     S
C472   C438    1.401   1_655 S
C474   C577    1.359   .     S
C474   C621    1.523   .     S
C475   O501    1.294   .     A
C475   C480    1.459   .     S
C475   O503    1.290   .     A
C476   O502    1.294   .     A
C476   C479    1.459   .     S
C476   O504    1.290   .     A
C477   Cl505   1.778   .     S
C477   C479    1.406   .     A
C477   C487    1.409   .     A
C478   Cl506   1.778   .     S
C478   C480    1.406   .     A
C478   C488    1.409   .     A
C479   C481    1.404   .     A
C480   C482    1.404   .     A
C481   C483    1.410   .     A
C481   Cl507   1.778   .     S
C482   C484    1.410   .     A
C482   Cl508   1.778   .     S
C483   C489    1.417   .     A
C483   C485    1.422   .     A
C484   C486    1.422   .     A
C484   C490    1.417   .     A
C485   C487    1.420   .     A
C485   C434    1.410   1_655 S
C486   C488    1.420   .     A
C489   Cl509   1.778   .     S
C489   C419    1.401   1_655 S
C490   Cl510   1.778   .     S
Cu491  Cu492   2.678   .     S
Cu491  O500    1.962   .     S
Cu491  N496    2.012   .     S
Cu491  O504    1.960   .     S
Cu491  O497    1.968   .     S
Cu491  O501    1.974   .     S
Cu492  N495    2.012   .     S
Cu492  O499    1.962   .     S
Cu492  O503    1.960   .     S
Cu492  O498    1.968   .     S
Cu492  O502    1.974   .     S
H493   N807    1.029   .     S
N496   N807    1.293   .     S
N496   H806    1.029   .     S
C513   H515    1.110   .     S
C513   H516    1.111   .     S
C513   C577    1.523   .     S
C513   H618    1.109   .     S
C517   H520    1.110   .     S
C517   H519    1.111   .     S
H518   C621    1.109   .     S
C521   O551    1.287   .     A
C521   C525    1.430   .     S
C521   O549    1.281   .     A
C522   O550    1.281   .     A
C522   O552    1.287   .     A
C522   C526    1.430   .     S
C523   C540    1.418   .     A
C523   Cl563   1.778   .     S
C523   C593    1.401   1_455 S
C524   C539    1.418   .     A
C524   Cl564   1.778   .     S
C524   C594    1.401   .     S
C526   C317    1.359   1_565 S
C526   C361    1.523   1_565 S
C527   O553    1.294   .     A
C527   C532    1.459   .     S
C527   O555    1.290   .     A
C528   O554    1.294   .     A
C528   C531    1.459   .     S
C528   O556    1.290   .     A
C529   Cl557   1.778   .     S
C529   C531    1.406   .     A
C529   C539    1.409   .     A
C530   Cl558   1.778   .     S
C530   C532    1.406   .     A
C530   C540    1.409   .     A
C531   C533    1.404   .     A
C532   C534    1.404   .     A
C533   C535    1.410   .     A
C533   Cl559   1.778   .     S
C534   C536    1.410   .     A
C534   Cl560   1.778   .     S
C535   C541    1.417   .     A
C535   C537    1.422   .     A
C536   C538    1.422   .     A
C536   C542    1.417   .     A
C537   C539    1.420   .     A
C537   C590    1.410   .     S
C538   C540    1.420   .     A
C538   C589    1.410   1_455 S
C541   Cl561   1.778   .     S
C541   C575    1.401   .     S
C542   Cl562   1.778   .     S
C542   C576    1.401   1_455 S
Cu543  Cu544   2.678   .     S
Cu543  O552    1.962   .     S
Cu543  N548    2.012   .     S
Cu543  O556    1.960   .     S
Cu543  O549    1.968   .     S
Cu543  O553    1.974   .     S
Cu544  N547    2.012   .     S
Cu544  O551    1.962   .     S
Cu544  O555    1.960   .     S
Cu544  O550    1.968   .     S
Cu544  O554    1.974   .     S
H545   N859    1.029   .     S
N548   N859    1.293   .     S
N548   H858    1.029   .     S
C565   H567    1.110   .     S
C565   H568    1.111   .     S
C565   C317    1.523   1_565 S
C565   H358    1.109   1_565 S
C569   H572    1.110   .     S
C569   H571    1.111   .     S
H570   C361    1.109   1_565 S
C573   O603    1.287   .     A
C573   C577    1.430   .     S
C573   O601    1.281   .     A
C574   O602    1.281   .     A
C574   O604    1.287   .     A
C574   C578    1.430   .     S
C575   C592    1.418   .     A
C575   Cl615   1.778   .     S
C576   C591    1.418   .     A
C576   Cl616   1.778   .     S
C576   C542    1.401   1_655 S
C578   C369    1.359   1_565 S
C578   C413    1.523   1_565 S
C579   O605    1.294   .     A
C579   C584    1.459   .     S
C579   O607    1.290   .     A
C580   O606    1.294   .     A
C580   C583    1.459   .     S
C580   O608    1.290   .     A
C581   Cl609   1.778   .     S
C581   C583    1.406   .     A
C581   C591    1.409   .     A
C582   Cl610   1.778   .     S
C582   C584    1.406   .     A
C582   C592    1.409   .     A
C583   C585    1.404   .     A
C584   C586    1.404   .     A
C585   C587    1.410   .     A
C585   Cl611   1.778   .     S
C586   C588    1.410   .     A
C586   Cl612   1.778   .     S
C587   C593    1.417   .     A
C587   C589    1.422   .     A
C588   C590    1.422   .     A
C588   C594    1.417   .     A
C589   C591    1.420   .     A
C589   C538    1.410   1_655 S
C590   C592    1.420   .     A
C593   Cl613   1.778   .     S
C593   C523    1.401   1_655 S
C594   Cl614   1.778   .     S
Cu595  Cu596   2.678   .     S
Cu595  O604    1.962   .     S
Cu595  N600    2.012   .     S
Cu595  O608    1.960   .     S
Cu595  O601    1.968   .     S
Cu595  O605    1.974   .     S
Cu596  N599    2.012   .     S
Cu596  O603    1.962   .     S
Cu596  O607    1.960   .     S
Cu596  O602    1.968   .     S
Cu596  O606    1.974   .     S
H597   N911    1.029   .     S
N600   N911    1.293   .     S
N600   H910    1.029   .     S
C617   H619    1.110   .     S
C617   H620    1.111   .     S
C617   C369    1.523   1_565 S
C617   H410    1.109   1_565 S
C621   H624    1.110   .     S
C621   H623    1.111   .     S
H622   C413    1.109   1_565 S
C625   O655    1.287   .     A
C625   C629    1.430   .     S
C625   O653    1.281   .     A
C626   O654    1.281   .     A
C626   O656    1.287   .     A
C626   C630    1.430   .     S
C627   C644    1.418   .     A
C627   Cl667   1.778   .     S
C627   C697    1.401   1_455 S
C628   C643    1.418   .     A
C628   Cl668   1.778   .     S
C628   C698    1.401   .     S
C629   C838    1.359   1_545 S
C629   C877    1.523   1_545 S
C630   C733    1.359   .     S
C630   C777    1.523   .     S
C631   O657    1.294   .     A
C631   C636    1.459   .     S
C631   O659    1.290   .     A
C632   O658    1.294   .     A
C632   C635    1.459   .     S
C632   O660    1.290   .     A
C633   Cl661   1.778   .     S
C633   C635    1.406   .     A
C633   C643    1.409   .     A
C634   Cl662   1.778   .     S
C634   C636    1.406   .     A
C634   C644    1.409   .     A
C635   C637    1.404   .     A
C636   C638    1.404   .     A
C637   C639    1.410   .     A
C637   Cl663   1.778   .     S
C638   C640    1.410   .     A
C638   Cl664   1.778   .     S
C639   C645    1.417   .     A
C639   C641    1.422   .     A
C640   C642    1.422   .     A
C640   C646    1.417   .     A
C641   C643    1.420   .     A
C641   C694    1.410   .     S
C642   C644    1.420   .     A
C642   C693    1.410   1_455 S
C645   Cl665   1.778   .     S
C645   C679    1.401   .     S
C646   Cl666   1.778   .     S
C646   C680    1.401   1_455 S
Cu647  Cu648   2.678   .     S
Cu647  O656    1.962   .     S
Cu647  N652    2.012   .     S
Cu647  O660    1.960   .     S
Cu647  O653    1.968   .     S
Cu647  O657    1.974   .     S
Cu648  N651    2.012   .     S
Cu648  O655    1.962   .     S
Cu648  O659    1.960   .     S
Cu648  O654    1.968   .     S
Cu648  O658    1.974   .     S
H649   N27     1.029   1_556 S
N652   N27     1.293   1_556 S
N652   H26     1.029   1_556 S
C669   H671    1.110   .     S
C669   H672    1.111   .     S
C669   C733    1.523   .     S
C669   H774    1.109   .     S
H670   C877    1.109   1_545 S
C673   H676    1.110   .     S
C673   H675    1.111   .     S
C673   C838    1.523   1_545 S
C673   H882    1.109   1_545 S
H674   C777    1.109   .     S
C677   O707    1.287   .     A
C677   C681    1.430   .     S
C677   O705    1.281   .     A
C678   O706    1.281   .     A
C678   O708    1.287   .     A
C678   C682    1.430   .     S
C679   C696    1.418   .     A
C679   Cl719   1.778   .     S
C680   C695    1.418   .     A
C680   Cl720   1.778   .     S
C680   C646    1.401   1_655 S
C681   C890    1.359   1_545 S
C681   C929    1.523   1_545 S
C682   C785    1.359   .     S
C682   C829    1.523   .     S
C683   O709    1.294   .     A
C683   C688    1.459   .     S
C683   O711    1.290   .     A
C684   O710    1.294   .     A
C684   C687    1.459   .     S
C684   O712    1.290   .     A
C685   Cl713   1.778   .     S
C685   C687    1.406   .     A
C685   C695    1.409   .     A
C686   Cl714   1.778   .     S
C686   C688    1.406   .     A
C686   C696    1.409   .     A
C687   C689    1.404   .     A
C688   C690    1.404   .     A
C689   C691    1.410   .     A
C689   Cl715   1.778   .     S
C690   C692    1.410   .     A
C690   Cl716   1.778   .     S
C691   C697    1.417   .     A
C691   C693    1.422   .     A
C692   C694    1.422   .     A
C692   C698    1.417   .     A
C693   C695    1.420   .     A
C693   C642    1.410   1_655 S
C694   C696    1.420   .     A
C697   Cl717   1.778   .     S
C697   C627    1.401   1_655 S
C698   Cl718   1.778   .     S
Cu699  Cu700   2.678   .     S
Cu699  O708    1.962   .     S
Cu699  N704    2.012   .     S
Cu699  O712    1.960   .     S
Cu699  O705    1.968   .     S
Cu699  O709    1.974   .     S
Cu700  N703    2.012   .     S
Cu700  O707    1.962   .     S
Cu700  O711    1.960   .     S
Cu700  O706    1.968   .     S
Cu700  O710    1.974   .     S
H701   N79     1.029   1_556 S
N704   N79     1.293   1_556 S
N704   H78     1.029   1_556 S
C721   H723    1.110   .     S
C721   H724    1.111   .     S
C721   C785    1.523   .     S
C721   H826    1.109   .     S
H722   C929    1.109   1_545 S
C725   H728    1.110   .     S
C725   H727    1.111   .     S
C725   C890    1.523   1_545 S
C725   H934    1.109   1_545 S
H726   C829    1.109   .     S
C729   O759    1.287   .     A
C729   C733    1.430   .     S
C729   O757    1.281   .     A
C730   O758    1.281   .     A
C730   O760    1.287   .     A
C730   C734    1.430   .     S
C731   C748    1.418   .     A
C731   Cl771   1.778   .     S
C731   C801    1.401   1_455 S
C732   C747    1.418   .     A
C732   Cl772   1.778   .     S
C732   C802    1.401   .     S
C734   C837    1.359   .     S
C734   C881    1.523   .     S
C735   O761    1.294   .     A
C735   C740    1.459   .     S
C735   O763    1.290   .     A
C736   O762    1.294   .     A
C736   C739    1.459   .     S
C736   O764    1.290   .     A
C737   Cl765   1.778   .     S
C737   C739    1.406   .     A
C737   C747    1.409   .     A
C738   Cl766   1.778   .     S
C738   C740    1.406   .     A
C738   C748    1.409   .     A
C739   C741    1.404   .     A
C740   C742    1.404   .     A
C741   C743    1.410   .     A
C741   Cl767   1.778   .     S
C742   C744    1.410   .     A
C742   Cl768   1.778   .     S
C743   C749    1.417   .     A
C743   C745    1.422   .     A
C744   C746    1.422   .     A
C744   C750    1.417   .     A
C745   C747    1.420   .     A
C745   C798    1.410   .     S
C746   C748    1.420   .     A
C746   C797    1.410   1_455 S
C749   Cl769   1.778   .     S
C749   C783    1.401   .     S
C750   Cl770   1.778   .     S
C750   C784    1.401   1_455 S
Cu751  Cu752   2.678   .     S
Cu751  O760    1.962   .     S
Cu751  N756    2.012   .     S
Cu751  O764    1.960   .     S
Cu751  O757    1.968   .     S
Cu751  O761    1.974   .     S
Cu752  N755    2.012   .     S
Cu752  O759    1.962   .     S
Cu752  O763    1.960   .     S
Cu752  O758    1.968   .     S
Cu752  O762    1.974   .     S
H753   N131    1.029   1_556 S
N756   N131    1.293   1_556 S
N756   H130    1.029   1_556 S
C773   H775    1.110   .     S
C773   H776    1.111   .     S
C773   C837    1.523   .     S
C773   H878    1.109   .     S
C777   H780    1.110   .     S
C777   H779    1.111   .     S
H778   C881    1.109   .     S
C781   O811    1.287   .     A
C781   C785    1.430   .     S
C781   O809    1.281   .     A
C782   O810    1.281   .     A
C782   O812    1.287   .     A
C782   C786    1.430   .     S
C783   C800    1.418   .     A
C783   Cl823   1.778   .     S
C784   C799    1.418   .     A
C784   Cl824   1.778   .     S
C784   C750    1.401   1_655 S
C786   C889    1.359   .     S
C786   C933    1.523   .     S
C787   O813    1.294   .     A
C787   C792    1.459   .     S
C787   O815    1.290   .     A
C788   O814    1.294   .     A
C788   C791    1.459   .     S
C788   O816    1.290   .     A
C789   Cl817   1.778   .     S
C789   C791    1.406   .     A
C789   C799    1.409   .     A
C790   Cl818   1.778   .     S
C790   C792    1.406   .     A
C790   C800    1.409   .     A
C791   C793    1.404   .     A
C792   C794    1.404   .     A
C793   C795    1.410   .     A
C793   Cl819   1.778   .     S
C794   C796    1.410   .     A
C794   Cl820   1.778   .     S
C795   C801    1.417   .     A
C795   C797    1.422   .     A
C796   C798    1.422   .     A
C796   C802    1.417   .     A
C797   C799    1.420   .     A
C797   C746    1.410   1_655 S
C798   C800    1.420   .     A
C801   Cl821   1.778   .     S
C801   C731    1.401   1_655 S
C802   Cl822   1.778   .     S
Cu803  Cu804   2.678   .     S
Cu803  O812    1.962   .     S
Cu803  N808    2.012   .     S
Cu803  O816    1.960   .     S
Cu803  O809    1.968   .     S
Cu803  O813    1.974   .     S
Cu804  N807    2.012   .     S
Cu804  O811    1.962   .     S
Cu804  O815    1.960   .     S
Cu804  O810    1.968   .     S
Cu804  O814    1.974   .     S
H805   N183    1.029   1_556 S
N808   N183    1.293   1_556 S
N808   H182    1.029   1_556 S
C825   H827    1.110   .     S
C825   H828    1.111   .     S
C825   C889    1.523   .     S
C825   H930    1.109   .     S
C829   H832    1.110   .     S
C829   H831    1.111   .     S
H830   C933    1.109   .     S
C833   O863    1.287   .     A
C833   C837    1.430   .     S
C833   O861    1.281   .     A
C834   O862    1.281   .     A
C834   O864    1.287   .     A
C834   C838    1.430   .     S
C835   C852    1.418   .     A
C835   Cl875   1.778   .     S
C835   C905    1.401   1_455 S
C836   C851    1.418   .     A
C836   Cl876   1.778   .     S
C836   C906    1.401   .     S
C838   C629    1.359   1_565 S
C838   C673    1.523   1_565 S
C839   O865    1.294   .     A
C839   C844    1.459   .     S
C839   O867    1.290   .     A
C840   O866    1.294   .     A
C840   C843    1.459   .     S
C840   O868    1.290   .     A
C841   Cl869   1.778   .     S
C841   C843    1.406   .     A
C841   C851    1.409   .     A
C842   Cl870   1.778   .     S
C842   C844    1.406   .     A
C842   C852    1.409   .     A
C843   C845    1.404   .     A
C844   C846    1.404   .     A
C845   C847    1.410   .     A
C845   Cl871   1.778   .     S
C846   C848    1.410   .     A
C846   Cl872   1.778   .     S
C847   C853    1.417   .     A
C847   C849    1.422   .     A
C848   C850    1.422   .     A
C848   C854    1.417   .     A
C849   C851    1.420   .     A
C849   C902    1.410   .     S
C850   C852    1.420   .     A
C850   C901    1.410   1_455 S
C853   Cl873   1.778   .     S
C853   C887    1.401   .     S
C854   Cl874   1.778   .     S
C854   C888    1.401   1_455 S
Cu855  Cu856   2.678   .     S
Cu855  O864    1.962   .     S
Cu855  N860    2.012   .     S
Cu855  O868    1.960   .     S
Cu855  O861    1.968   .     S
Cu855  O865    1.974   .     S
Cu856  N859    2.012   .     S
Cu856  O863    1.962   .     S
Cu856  O867    1.960   .     S
Cu856  O862    1.968   .     S
Cu856  O866    1.974   .     S
H857   N235    1.029   1_556 S
N860   N235    1.293   1_556 S
N860   H234    1.029   1_556 S
C877   H879    1.110   .     S
C877   H880    1.111   .     S
C877   C629    1.523   1_565 S
C877   H670    1.109   1_565 S
C881   H884    1.110   .     S
C881   H883    1.111   .     S
H882   C673    1.109   1_565 S
C885   O915    1.287   .     A
C885   C889    1.430   .     S
C885   O913    1.281   .     A
C886   O914    1.281   .     A
C886   O916    1.287   .     A
C886   C890    1.430   .     S
C887   C904    1.418   .     A
C887   Cl927   1.778   .     S
C888   C903    1.418   .     A
C888   Cl928   1.778   .     S
C888   C854    1.401   1_655 S
C890   C681    1.359   1_565 S
C890   C725    1.523   1_565 S
C891   O917    1.294   .     A
C891   C896    1.459   .     S
C891   O919    1.290   .     A
C892   O918    1.294   .     A
C892   C895    1.459   .     S
C892   O920    1.290   .     A
C893   Cl921   1.778   .     S
C893   C895    1.406   .     A
C893   C903    1.409   .     A
C894   Cl922   1.778   .     S
C894   C896    1.406   .     A
C894   C904    1.409   .     A
C895   C897    1.404   .     A
C896   C898    1.404   .     A
C897   C899    1.410   .     A
C897   Cl923   1.778   .     S
C898   C900    1.410   .     A
C898   Cl924   1.778   .     S
C899   C905    1.417   .     A
C899   C901    1.422   .     A
C900   C902    1.422   .     A
C900   C906    1.417   .     A
C901   C903    1.420   .     A
C901   C850    1.410   1_655 S
C902   C904    1.420   .     A
C905   Cl925   1.778   .     S
C905   C835    1.401   1_655 S
C906   Cl926   1.778   .     S
Cu907  Cu908   2.678   .     S
Cu907  O916    1.962   .     S
Cu907  N912    2.012   .     S
Cu907  O920    1.960   .     S
Cu907  O913    1.968   .     S
Cu907  O917    1.974   .     S
Cu908  N911    2.012   .     S
Cu908  O915    1.962   .     S
Cu908  O919    1.960   .     S
Cu908  O914    1.968   .     S
Cu908  O918    1.974   .     S
H909   N287    1.029   1_556 S
N912   N287    1.293   1_556 S
N912   H286    1.029   1_556 S
C929   H931    1.110   .     S
C929   H932    1.111   .     S
C929   C681    1.523   1_565 S
C929   H722    1.109   1_565 S
C933   H936    1.110   .     S
C933   H935    1.111   .     S
H934   C725    1.109   1_565 S
