data_str_m2_o1_o2_pcu_sym.38
_audit_creation_date              2020-01-03
_audit_creation_method            'Materials Studio'
_symmetry_space_group_name_H-M    'P1'
_symmetry_Int_Tables_number       1
_symmetry_cell_setting            triclinic
loop_
_symmetry_equiv_pos_as_xyz
  x,y,z
_cell_length_a                    32.7790
_cell_length_b                    28.4993
_cell_length_c                    30.2235
_cell_angle_alpha                 89.3383
_cell_angle_beta                  90.3656
_cell_angle_gamma                 89.5758
loop_
_atom_site_label
_atom_site_type_symbol
_atom_site_fract_x
_atom_site_fract_y
_atom_site_fract_z
_atom_site_U_iso_or_equiv
_atom_site_adp_type
_atom_site_occupancy
Br1    Br    0.04965   0.08144   0.30529   0.00000  Uiso   1.00
Br2    Br    0.28579   0.26588   0.21735   0.00000  Uiso   1.00
Br3    Br    0.28878   0.06583   0.27692   0.00000  Uiso   1.00
Br4    Br    0.04801   0.25343   0.19608   0.00000  Uiso   1.00
C5     C     0.08744   0.16683   0.25013   0.00000  Uiso   1.00
C6     C     0.31223   0.20689   0.23430   0.00000  Uiso   1.00
C7     C     0.31319   0.12630   0.26419   0.00000  Uiso   1.00
C8     C     0.02126   0.20503   0.23081   0.00000  Uiso   1.00
C9     C     0.19877   0.17914   0.04695   0.00000  Uiso   1.00
C10    C     0.19630   0.14690   0.45361   0.00000  Uiso   1.00
C11    C     0.12989   0.18472   0.45120   0.00000  Uiso   1.00
C12    C     0.12790   0.15571   0.04831   0.00000  Uiso   1.00
C13    C     0.20012   0.17849   0.09290   0.00000  Uiso   1.00
C14    C     0.19767   0.14717   0.40769   0.00000  Uiso   1.00
C15    C     0.13069   0.18478   0.40507   0.00000  Uiso   1.00
C16    C     0.24611   0.16655   0.24971   0.00000  Uiso   1.00
C17    C     0.12875   0.15540   0.09445   0.00000  Uiso   1.00
C18    C     0.16494   0.16720   0.11694   0.00000  Uiso   1.00
C19    C     0.16479   0.16602   0.38309   0.00000  Uiso   1.00
C20    C     0.16290   0.16745   0.02432   0.00000  Uiso   1.00
C21    C     0.16276   0.16607   0.47570   0.00000  Uiso   1.00
C22    C     0.29091   0.16648   0.24929   0.00000  Uiso   1.00
C23    C     0.04302   0.16713   0.25024   0.00000  Uiso   1.00
C24    C     0.16618   0.16686   0.16505   0.00000  Uiso   1.00
C25    C     0.16618   0.16646   0.33496   0.00000  Uiso   1.00
C26    C     0.14720   0.02538   0.21723   0.00000  Uiso   1.00
C27    C     0.18613   0.30796   0.28277   0.00000  Uiso   1.00
C28    C     0.18600   0.02425   0.28285   0.00000  Uiso   1.00
C29    C     0.14741   0.30910   0.21711   0.00000  Uiso   1.00
C30    C     0.02203   0.12901   0.26922   0.00000  Uiso   1.00
Cu31   Cu    0.16667   0.21355   0.25000   0.00000  Uiso   1.00
Cu32   Cu    0.16667   0.11978   0.25000   0.00000  Uiso   1.00
H33    H     0.13146   0.04449   0.19106   0.00000  Uiso   1.00
H34    H     0.20193   0.28885   0.30891   0.00000  Uiso   1.00
H35    H     0.20146   0.04247   0.30919   0.00000  Uiso   1.00
H36    H     0.13225   0.29092   0.19059   0.00000  Uiso   1.00
H37    H     0.22603   0.18843   0.02889   0.00000  Uiso   1.00
H38    H     0.22174   0.13191   0.47209   0.00000  Uiso   1.00
H39    H     0.10389   0.19992   0.46787   0.00000  Uiso   1.00
H40    H     0.10017   0.14583   0.03123   0.00000  Uiso   1.00
I41    I     0.25729   0.19091   0.12326   0.00000  Uiso   1.00
I42    I     0.25183   0.12187   0.37832   0.00000  Uiso   1.00
I43    I     0.07911   0.21285   0.37074   0.00000  Uiso   1.00
I44    I     0.07462   0.13605   0.12801   0.00000  Uiso   1.00
N45    N     0.16667   0.28402   0.25000   0.00000  Uiso   1.00
N46    N     0.16667   0.04931   0.25000   0.00000  Uiso   1.00
O47    O     0.10655   0.20625   0.24999   0.00000  Uiso   1.00
O48    O     0.22679   0.12709   0.25000   0.00000  Uiso   1.00
O49    O     0.22679   0.20625   0.25000   0.00000  Uiso   1.00
O50    O     0.10655   0.12709   0.24999   0.00000  Uiso   1.00
O51    O     0.16666   0.20626   0.18573   0.00000  Uiso   1.00
O52    O     0.16667   0.12707   0.31427   0.00000  Uiso   1.00
O53    O     0.16667   0.20626   0.31427   0.00000  Uiso   1.00
O54    O     0.16666   0.12707   0.18573   0.00000  Uiso   1.00
Br55   Br    0.38298   0.08144   0.30529   0.00000  Uiso   1.00
Br56   Br    0.61913   0.26588   0.21735   0.00000  Uiso   1.00
Br57   Br    0.62212   0.06583   0.27692   0.00000  Uiso   1.00
Br58   Br    0.38134   0.25343   0.19608   0.00000  Uiso   1.00
C59    C     0.42078   0.16683   0.25013   0.00000  Uiso   1.00
C60    C     0.64556   0.20689   0.23430   0.00000  Uiso   1.00
C61    C     0.64652   0.12630   0.26419   0.00000  Uiso   1.00
C62    C     0.35459   0.20503   0.23081   0.00000  Uiso   1.00
C63    C     0.53211   0.17914   0.04695   0.00000  Uiso   1.00
C64    C     0.52963   0.14690   0.45361   0.00000  Uiso   1.00
C65    C     0.46322   0.18472   0.45120   0.00000  Uiso   1.00
C66    C     0.46123   0.15571   0.04831   0.00000  Uiso   1.00
C67    C     0.53346   0.17849   0.09290   0.00000  Uiso   1.00
C68    C     0.53100   0.14717   0.40769   0.00000  Uiso   1.00
C69    C     0.46402   0.18478   0.40507   0.00000  Uiso   1.00
C70    C     0.57944   0.16655   0.24971   0.00000  Uiso   1.00
C71    C     0.46208   0.15540   0.09445   0.00000  Uiso   1.00
C72    C     0.49827   0.16720   0.11694   0.00000  Uiso   1.00
C73    C     0.49812   0.16602   0.38309   0.00000  Uiso   1.00
C74    C     0.49623   0.16745   0.02432   0.00000  Uiso   1.00
C75    C     0.49610   0.16607   0.47570   0.00000  Uiso   1.00
C76    C     0.62424   0.16648   0.24929   0.00000  Uiso   1.00
C77    C     0.37635   0.16713   0.25024   0.00000  Uiso   1.00
C78    C     0.49952   0.16686   0.16505   0.00000  Uiso   1.00
C79    C     0.49952   0.16646   0.33496   0.00000  Uiso   1.00
C80    C     0.48054   0.02538   0.21723   0.00000  Uiso   1.00
C81    C     0.51947   0.30796   0.28277   0.00000  Uiso   1.00
C82    C     0.51933   0.02425   0.28285   0.00000  Uiso   1.00
C83    C     0.48074   0.30910   0.21711   0.00000  Uiso   1.00
C84    C     0.35536   0.12901   0.26922   0.00000  Uiso   1.00
Cu85   Cu    0.50000   0.21355   0.25000   0.00000  Uiso   1.00
Cu86   Cu    0.50000   0.11978   0.25000   0.00000  Uiso   1.00
H87    H     0.46479   0.04449   0.19106   0.00000  Uiso   1.00
H88    H     0.53526   0.28885   0.30891   0.00000  Uiso   1.00
H89    H     0.53479   0.04247   0.30919   0.00000  Uiso   1.00
H90    H     0.46558   0.29092   0.19059   0.00000  Uiso   1.00
H91    H     0.55937   0.18843   0.02889   0.00000  Uiso   1.00
H92    H     0.55507   0.13191   0.47209   0.00000  Uiso   1.00
H93    H     0.43722   0.19992   0.46787   0.00000  Uiso   1.00
H94    H     0.43351   0.14583   0.03123   0.00000  Uiso   1.00
I95    I     0.59062   0.19091   0.12326   0.00000  Uiso   1.00
I96    I     0.58516   0.12187   0.37832   0.00000  Uiso   1.00
I97    I     0.41244   0.21285   0.37074   0.00000  Uiso   1.00
I98    I     0.40796   0.13605   0.12801   0.00000  Uiso   1.00
N99    N     0.50000   0.28402   0.25000   0.00000  Uiso   1.00
N100   N     0.50000   0.04931   0.25000   0.00000  Uiso   1.00
O101   O     0.43988   0.20625   0.24999   0.00000  Uiso   1.00
O102   O     0.56012   0.12709   0.25000   0.00000  Uiso   1.00
O103   O     0.56012   0.20625   0.25000   0.00000  Uiso   1.00
O104   O     0.43988   0.12709   0.24999   0.00000  Uiso   1.00
O105   O     0.50000   0.20626   0.18573   0.00000  Uiso   1.00
O106   O     0.50000   0.12707   0.31427   0.00000  Uiso   1.00
O107   O     0.50000   0.20626   0.31427   0.00000  Uiso   1.00
O108   O     0.50000   0.12707   0.18573   0.00000  Uiso   1.00
Br109  Br    0.71631   0.08144   0.30529   0.00000  Uiso   1.00
Br110  Br    0.95246   0.26588   0.21735   0.00000  Uiso   1.00
Br111  Br    0.95545   0.06583   0.27692   0.00000  Uiso   1.00
Br112  Br    0.71467   0.25343   0.19608   0.00000  Uiso   1.00
C113   C     0.75411   0.16683   0.25013   0.00000  Uiso   1.00
C114   C     0.97890   0.20689   0.23430   0.00000  Uiso   1.00
C115   C     0.97986   0.12630   0.26419   0.00000  Uiso   1.00
C116   C     0.68793   0.20503   0.23081   0.00000  Uiso   1.00
C117   C     0.86544   0.17914   0.04695   0.00000  Uiso   1.00
C118   C     0.86296   0.14690   0.45361   0.00000  Uiso   1.00
C119   C     0.79655   0.18472   0.45120   0.00000  Uiso   1.00
C120   C     0.79457   0.15571   0.04831   0.00000  Uiso   1.00
C121   C     0.86679   0.17849   0.09290   0.00000  Uiso   1.00
C122   C     0.86433   0.14717   0.40769   0.00000  Uiso   1.00
C123   C     0.79736   0.18478   0.40507   0.00000  Uiso   1.00
C124   C     0.91277   0.16655   0.24971   0.00000  Uiso   1.00
C125   C     0.79542   0.15540   0.09445   0.00000  Uiso   1.00
C126   C     0.83160   0.16720   0.11694   0.00000  Uiso   1.00
C127   C     0.83146   0.16602   0.38309   0.00000  Uiso   1.00
C128   C     0.82956   0.16745   0.02432   0.00000  Uiso   1.00
C129   C     0.82943   0.16607   0.47570   0.00000  Uiso   1.00
C130   C     0.95758   0.16648   0.24929   0.00000  Uiso   1.00
C131   C     0.70969   0.16713   0.25024   0.00000  Uiso   1.00
C132   C     0.83285   0.16686   0.16505   0.00000  Uiso   1.00
C133   C     0.83285   0.16646   0.33496   0.00000  Uiso   1.00
C134   C     0.81387   0.02538   0.21723   0.00000  Uiso   1.00
C135   C     0.85280   0.30796   0.28277   0.00000  Uiso   1.00
C136   C     0.85267   0.02425   0.28285   0.00000  Uiso   1.00
C137   C     0.81408   0.30910   0.21711   0.00000  Uiso   1.00
C138   C     0.68870   0.12901   0.26922   0.00000  Uiso   1.00
Cu139  Cu    0.83333   0.21355   0.25000   0.00000  Uiso   1.00
Cu140  Cu    0.83333   0.11978   0.25000   0.00000  Uiso   1.00
H141   H     0.79813   0.04449   0.19106   0.00000  Uiso   1.00
H142   H     0.86859   0.28885   0.30891   0.00000  Uiso   1.00
H143   H     0.86812   0.04247   0.30919   0.00000  Uiso   1.00
H144   H     0.79892   0.29092   0.19059   0.00000  Uiso   1.00
H145   H     0.89270   0.18843   0.02889   0.00000  Uiso   1.00
H146   H     0.88840   0.13191   0.47209   0.00000  Uiso   1.00
H147   H     0.77056   0.19992   0.46787   0.00000  Uiso   1.00
H148   H     0.76684   0.14583   0.03123   0.00000  Uiso   1.00
I149   I     0.92396   0.19091   0.12326   0.00000  Uiso   1.00
I150   I     0.91850   0.12187   0.37832   0.00000  Uiso   1.00
I151   I     0.74577   0.21285   0.37074   0.00000  Uiso   1.00
I152   I     0.74129   0.13605   0.12801   0.00000  Uiso   1.00
N153   N     0.83333   0.28402   0.25000   0.00000  Uiso   1.00
N154   N     0.83333   0.04931   0.25000   0.00000  Uiso   1.00
O155   O     0.77321   0.20625   0.24999   0.00000  Uiso   1.00
O156   O     0.89345   0.12709   0.25000   0.00000  Uiso   1.00
O157   O     0.89345   0.20625   0.25000   0.00000  Uiso   1.00
O158   O     0.77321   0.12709   0.24999   0.00000  Uiso   1.00
O159   O     0.83333   0.20626   0.18573   0.00000  Uiso   1.00
O160   O     0.83334   0.12707   0.31427   0.00000  Uiso   1.00
O161   O     0.83334   0.20626   0.31427   0.00000  Uiso   1.00
O162   O     0.83333   0.12707   0.18573   0.00000  Uiso   1.00
Br163  Br    0.04965   0.41477   0.30529   0.00000  Uiso   1.00
Br164  Br    0.28579   0.59921   0.21735   0.00000  Uiso   1.00
Br165  Br    0.28878   0.39916   0.27692   0.00000  Uiso   1.00
Br166  Br    0.04801   0.58676   0.19608   0.00000  Uiso   1.00
C167   C     0.08744   0.50017   0.25013   0.00000  Uiso   1.00
C168   C     0.31223   0.54022   0.23430   0.00000  Uiso   1.00
C169   C     0.31319   0.45964   0.26419   0.00000  Uiso   1.00
C170   C     0.02126   0.53837   0.23081   0.00000  Uiso   1.00
C171   C     0.19877   0.51248   0.04695   0.00000  Uiso   1.00
C172   C     0.19630   0.48023   0.45361   0.00000  Uiso   1.00
C173   C     0.12989   0.51806   0.45120   0.00000  Uiso   1.00
C174   C     0.12790   0.48904   0.04831   0.00000  Uiso   1.00
C175   C     0.20012   0.51182   0.09290   0.00000  Uiso   1.00
C176   C     0.19767   0.48051   0.40769   0.00000  Uiso   1.00
C177   C     0.13069   0.51811   0.40507   0.00000  Uiso   1.00
C178   C     0.24611   0.49988   0.24971   0.00000  Uiso   1.00
C179   C     0.12875   0.48874   0.09445   0.00000  Uiso   1.00
C180   C     0.16494   0.50053   0.11694   0.00000  Uiso   1.00
C181   C     0.16479   0.49936   0.38309   0.00000  Uiso   1.00
C182   C     0.16290   0.50078   0.02432   0.00000  Uiso   1.00
C183   C     0.16276   0.49941   0.47570   0.00000  Uiso   1.00
C184   C     0.29091   0.49982   0.24929   0.00000  Uiso   1.00
C185   C     0.04302   0.50046   0.25024   0.00000  Uiso   1.00
C186   C     0.16618   0.50019   0.16505   0.00000  Uiso   1.00
C187   C     0.16618   0.49979   0.33496   0.00000  Uiso   1.00
C188   C     0.14720   0.35872   0.21723   0.00000  Uiso   1.00
C189   C     0.18613   0.64129   0.28277   0.00000  Uiso   1.00
C190   C     0.18600   0.35758   0.28285   0.00000  Uiso   1.00
C191   C     0.14741   0.64244   0.21711   0.00000  Uiso   1.00
C192   C     0.02203   0.46234   0.26922   0.00000  Uiso   1.00
Cu193  Cu    0.16667   0.54689   0.25000   0.00000  Uiso   1.00
Cu194  Cu    0.16667   0.45311   0.25000   0.00000  Uiso   1.00
H195   H     0.13146   0.37782   0.19106   0.00000  Uiso   1.00
H196   H     0.20193   0.62218   0.30891   0.00000  Uiso   1.00
H197   H     0.20146   0.37580   0.30919   0.00000  Uiso   1.00
H198   H     0.13225   0.62425   0.19059   0.00000  Uiso   1.00
H199   H     0.22603   0.52176   0.02889   0.00000  Uiso   1.00
H200   H     0.22174   0.46524   0.47209   0.00000  Uiso   1.00
H201   H     0.10389   0.53325   0.46787   0.00000  Uiso   1.00
H202   H     0.10017   0.47916   0.03123   0.00000  Uiso   1.00
I203   I     0.25729   0.52425   0.12326   0.00000  Uiso   1.00
I204   I     0.25183   0.45520   0.37832   0.00000  Uiso   1.00
I205   I     0.07911   0.54618   0.37074   0.00000  Uiso   1.00
I206   I     0.07462   0.46939   0.12801   0.00000  Uiso   1.00
N207   N     0.16667   0.61736   0.25000   0.00000  Uiso   1.00
N208   N     0.16667   0.38264   0.25000   0.00000  Uiso   1.00
O209   O     0.10655   0.53958   0.24999   0.00000  Uiso   1.00
O210   O     0.22679   0.46042   0.25000   0.00000  Uiso   1.00
O211   O     0.22679   0.53958   0.25000   0.00000  Uiso   1.00
O212   O     0.10655   0.46042   0.24999   0.00000  Uiso   1.00
O213   O     0.16666   0.53959   0.18573   0.00000  Uiso   1.00
O214   O     0.16667   0.46041   0.31427   0.00000  Uiso   1.00
O215   O     0.16667   0.53959   0.31427   0.00000  Uiso   1.00
O216   O     0.16666   0.46041   0.18573   0.00000  Uiso   1.00
Br217  Br    0.38298   0.41477   0.30529   0.00000  Uiso   1.00
Br218  Br    0.61913   0.59921   0.21735   0.00000  Uiso   1.00
Br219  Br    0.62212   0.39916   0.27692   0.00000  Uiso   1.00
Br220  Br    0.38134   0.58676   0.19608   0.00000  Uiso   1.00
C221   C     0.42078   0.50017   0.25013   0.00000  Uiso   1.00
C222   C     0.64556   0.54022   0.23430   0.00000  Uiso   1.00
C223   C     0.64652   0.45964   0.26419   0.00000  Uiso   1.00
C224   C     0.35459   0.53837   0.23081   0.00000  Uiso   1.00
C225   C     0.53211   0.51248   0.04695   0.00000  Uiso   1.00
C226   C     0.52963   0.48023   0.45361   0.00000  Uiso   1.00
C227   C     0.46322   0.51806   0.45120   0.00000  Uiso   1.00
C228   C     0.46123   0.48904   0.04831   0.00000  Uiso   1.00
C229   C     0.53346   0.51182   0.09290   0.00000  Uiso   1.00
C230   C     0.53100   0.48051   0.40769   0.00000  Uiso   1.00
C231   C     0.46402   0.51811   0.40507   0.00000  Uiso   1.00
C232   C     0.57944   0.49988   0.24971   0.00000  Uiso   1.00
C233   C     0.46208   0.48874   0.09445   0.00000  Uiso   1.00
C234   C     0.49827   0.50053   0.11694   0.00000  Uiso   1.00
C235   C     0.49812   0.49936   0.38309   0.00000  Uiso   1.00
C236   C     0.49623   0.50078   0.02432   0.00000  Uiso   1.00
C237   C     0.49610   0.49941   0.47570   0.00000  Uiso   1.00
C238   C     0.62424   0.49982   0.24929   0.00000  Uiso   1.00
C239   C     0.37635   0.50046   0.25024   0.00000  Uiso   1.00
C240   C     0.49952   0.50019   0.16505   0.00000  Uiso   1.00
C241   C     0.49952   0.49979   0.33496   0.00000  Uiso   1.00
C242   C     0.48054   0.35872   0.21723   0.00000  Uiso   1.00
C243   C     0.51947   0.64129   0.28277   0.00000  Uiso   1.00
C244   C     0.51933   0.35758   0.28285   0.00000  Uiso   1.00
C245   C     0.48074   0.64244   0.21711   0.00000  Uiso   1.00
C246   C     0.35536   0.46234   0.26922   0.00000  Uiso   1.00
Cu247  Cu    0.50000   0.54689   0.25000   0.00000  Uiso   1.00
Cu248  Cu    0.50000   0.45311   0.25000   0.00000  Uiso   1.00
H249   H     0.46479   0.37782   0.19106   0.00000  Uiso   1.00
H250   H     0.53526   0.62218   0.30891   0.00000  Uiso   1.00
H251   H     0.53479   0.37580   0.30919   0.00000  Uiso   1.00
H252   H     0.46558   0.62425   0.19059   0.00000  Uiso   1.00
H253   H     0.55937   0.52176   0.02889   0.00000  Uiso   1.00
H254   H     0.55507   0.46524   0.47209   0.00000  Uiso   1.00
H255   H     0.43722   0.53325   0.46787   0.00000  Uiso   1.00
H256   H     0.43351   0.47916   0.03123   0.00000  Uiso   1.00
I257   I     0.59062   0.52425   0.12326   0.00000  Uiso   1.00
I258   I     0.58516   0.45520   0.37832   0.00000  Uiso   1.00
I259   I     0.41244   0.54618   0.37074   0.00000  Uiso   1.00
I260   I     0.40796   0.46939   0.12801   0.00000  Uiso   1.00
N261   N     0.50000   0.61736   0.25000   0.00000  Uiso   1.00
N262   N     0.50000   0.38264   0.25000   0.00000  Uiso   1.00
O263   O     0.43988   0.53958   0.24999   0.00000  Uiso   1.00
O264   O     0.56012   0.46042   0.25000   0.00000  Uiso   1.00
O265   O     0.56012   0.53958   0.25000   0.00000  Uiso   1.00
O266   O     0.43988   0.46042   0.24999   0.00000  Uiso   1.00
O267   O     0.50000   0.53959   0.18573   0.00000  Uiso   1.00
O268   O     0.50000   0.46041   0.31427   0.00000  Uiso   1.00
O269   O     0.50000   0.53959   0.31427   0.00000  Uiso   1.00
O270   O     0.50000   0.46041   0.18573   0.00000  Uiso   1.00
Br271  Br    0.71631   0.41477   0.30529   0.00000  Uiso   1.00
Br272  Br    0.95246   0.59921   0.21735   0.00000  Uiso   1.00
Br273  Br    0.95545   0.39916   0.27692   0.00000  Uiso   1.00
Br274  Br    0.71467   0.58676   0.19608   0.00000  Uiso   1.00
C275   C     0.75411   0.50017   0.25013   0.00000  Uiso   1.00
C276   C     0.97890   0.54022   0.23430   0.00000  Uiso   1.00
C277   C     0.97986   0.45964   0.26419   0.00000  Uiso   1.00
C278   C     0.68793   0.53837   0.23081   0.00000  Uiso   1.00
C279   C     0.86544   0.51248   0.04695   0.00000  Uiso   1.00
C280   C     0.86296   0.48023   0.45361   0.00000  Uiso   1.00
C281   C     0.79655   0.51806   0.45120   0.00000  Uiso   1.00
C282   C     0.79457   0.48904   0.04831   0.00000  Uiso   1.00
C283   C     0.86679   0.51182   0.09290   0.00000  Uiso   1.00
C284   C     0.86433   0.48051   0.40769   0.00000  Uiso   1.00
C285   C     0.79736   0.51811   0.40507   0.00000  Uiso   1.00
C286   C     0.91277   0.49988   0.24971   0.00000  Uiso   1.00
C287   C     0.79542   0.48874   0.09445   0.00000  Uiso   1.00
C288   C     0.83160   0.50053   0.11694   0.00000  Uiso   1.00
C289   C     0.83146   0.49936   0.38309   0.00000  Uiso   1.00
C290   C     0.82956   0.50078   0.02432   0.00000  Uiso   1.00
C291   C     0.82943   0.49941   0.47570   0.00000  Uiso   1.00
C292   C     0.95758   0.49982   0.24929   0.00000  Uiso   1.00
C293   C     0.70969   0.50046   0.25024   0.00000  Uiso   1.00
C294   C     0.83285   0.50019   0.16505   0.00000  Uiso   1.00
C295   C     0.83285   0.49979   0.33496   0.00000  Uiso   1.00
C296   C     0.81387   0.35872   0.21723   0.00000  Uiso   1.00
C297   C     0.85280   0.64129   0.28277   0.00000  Uiso   1.00
C298   C     0.85267   0.35758   0.28285   0.00000  Uiso   1.00
C299   C     0.81408   0.64244   0.21711   0.00000  Uiso   1.00
C300   C     0.68870   0.46234   0.26922   0.00000  Uiso   1.00
Cu301  Cu    0.83333   0.54689   0.25000   0.00000  Uiso   1.00
Cu302  Cu    0.83333   0.45311   0.25000   0.00000  Uiso   1.00
H303   H     0.79813   0.37782   0.19106   0.00000  Uiso   1.00
H304   H     0.86859   0.62218   0.30891   0.00000  Uiso   1.00
H305   H     0.86812   0.37580   0.30919   0.00000  Uiso   1.00
H306   H     0.79892   0.62425   0.19059   0.00000  Uiso   1.00
H307   H     0.89270   0.52176   0.02889   0.00000  Uiso   1.00
H308   H     0.88840   0.46524   0.47209   0.00000  Uiso   1.00
H309   H     0.77056   0.53325   0.46787   0.00000  Uiso   1.00
H310   H     0.76684   0.47916   0.03123   0.00000  Uiso   1.00
I311   I     0.92396   0.52425   0.12326   0.00000  Uiso   1.00
I312   I     0.91850   0.45520   0.37832   0.00000  Uiso   1.00
I313   I     0.74577   0.54618   0.37074   0.00000  Uiso   1.00
I314   I     0.74129   0.46939   0.12801   0.00000  Uiso   1.00
N315   N     0.83333   0.61736   0.25000   0.00000  Uiso   1.00
N316   N     0.83333   0.38264   0.25000   0.00000  Uiso   1.00
O317   O     0.77321   0.53958   0.24999   0.00000  Uiso   1.00
O318   O     0.89345   0.46042   0.25000   0.00000  Uiso   1.00
O319   O     0.89345   0.53958   0.25000   0.00000  Uiso   1.00
O320   O     0.77321   0.46042   0.24999   0.00000  Uiso   1.00
O321   O     0.83333   0.53959   0.18573   0.00000  Uiso   1.00
O322   O     0.83334   0.46041   0.31427   0.00000  Uiso   1.00
O323   O     0.83334   0.53959   0.31427   0.00000  Uiso   1.00
O324   O     0.83333   0.46041   0.18573   0.00000  Uiso   1.00
Br325  Br    0.04965   0.74810   0.30529   0.00000  Uiso   1.00
Br326  Br    0.28579   0.93254   0.21735   0.00000  Uiso   1.00
Br327  Br    0.28878   0.73249   0.27692   0.00000  Uiso   1.00
Br328  Br    0.04801   0.92010   0.19608   0.00000  Uiso   1.00
C329   C     0.08744   0.83350   0.25013   0.00000  Uiso   1.00
C330   C     0.31223   0.87355   0.23430   0.00000  Uiso   1.00
C331   C     0.31319   0.79297   0.26419   0.00000  Uiso   1.00
C332   C     0.02126   0.87170   0.23081   0.00000  Uiso   1.00
C333   C     0.19877   0.84581   0.04695   0.00000  Uiso   1.00
C334   C     0.19630   0.81357   0.45361   0.00000  Uiso   1.00
C335   C     0.12989   0.85139   0.45120   0.00000  Uiso   1.00
C336   C     0.12790   0.82238   0.04831   0.00000  Uiso   1.00
C337   C     0.20012   0.84516   0.09290   0.00000  Uiso   1.00
C338   C     0.19767   0.81384   0.40769   0.00000  Uiso   1.00
C339   C     0.13069   0.85145   0.40507   0.00000  Uiso   1.00
C340   C     0.24611   0.83321   0.24971   0.00000  Uiso   1.00
C341   C     0.12875   0.82207   0.09445   0.00000  Uiso   1.00
C342   C     0.16494   0.83386   0.11694   0.00000  Uiso   1.00
C343   C     0.16479   0.83269   0.38309   0.00000  Uiso   1.00
C344   C     0.16290   0.83411   0.02432   0.00000  Uiso   1.00
C345   C     0.16276   0.83274   0.47570   0.00000  Uiso   1.00
C346   C     0.29091   0.83315   0.24929   0.00000  Uiso   1.00
C347   C     0.04302   0.83380   0.25024   0.00000  Uiso   1.00
C348   C     0.16618   0.83352   0.16505   0.00000  Uiso   1.00
C349   C     0.16618   0.83312   0.33496   0.00000  Uiso   1.00
C350   C     0.14720   0.69205   0.21723   0.00000  Uiso   1.00
C351   C     0.18613   0.97463   0.28277   0.00000  Uiso   1.00
C352   C     0.18600   0.69091   0.28285   0.00000  Uiso   1.00
C353   C     0.14741   0.97577   0.21711   0.00000  Uiso   1.00
C354   C     0.02203   0.79567   0.26922   0.00000  Uiso   1.00
Cu355  Cu    0.16667   0.88022   0.25000   0.00000  Uiso   1.00
Cu356  Cu    0.16667   0.78645   0.25000   0.00000  Uiso   1.00
H357   H     0.13146   0.71116   0.19106   0.00000  Uiso   1.00
H358   H     0.20193   0.95552   0.30891   0.00000  Uiso   1.00
H359   H     0.20146   0.70913   0.30919   0.00000  Uiso   1.00
H360   H     0.13225   0.95758   0.19059   0.00000  Uiso   1.00
H361   H     0.22603   0.85509   0.02889   0.00000  Uiso   1.00
H362   H     0.22174   0.79857   0.47209   0.00000  Uiso   1.00
H363   H     0.10389   0.86659   0.46787   0.00000  Uiso   1.00
H364   H     0.10017   0.81250   0.03123   0.00000  Uiso   1.00
I365   I     0.25729   0.85758   0.12326   0.00000  Uiso   1.00
I366   I     0.25183   0.78854   0.37832   0.00000  Uiso   1.00
I367   I     0.07911   0.87952   0.37074   0.00000  Uiso   1.00
I368   I     0.07462   0.80272   0.12801   0.00000  Uiso   1.00
N369   N     0.16667   0.95069   0.25000   0.00000  Uiso   1.00
N370   N     0.16667   0.71598   0.25000   0.00000  Uiso   1.00
O371   O     0.10655   0.87291   0.24999   0.00000  Uiso   1.00
O372   O     0.22679   0.79375   0.25000   0.00000  Uiso   1.00
O373   O     0.22679   0.87291   0.25000   0.00000  Uiso   1.00
O374   O     0.10655   0.79375   0.24999   0.00000  Uiso   1.00
O375   O     0.16666   0.87293   0.18573   0.00000  Uiso   1.00
O376   O     0.16667   0.79374   0.31427   0.00000  Uiso   1.00
O377   O     0.16667   0.87293   0.31427   0.00000  Uiso   1.00
O378   O     0.16666   0.79374   0.18573   0.00000  Uiso   1.00
Br379  Br    0.38298   0.74810   0.30529   0.00000  Uiso   1.00
Br380  Br    0.61913   0.93254   0.21735   0.00000  Uiso   1.00
Br381  Br    0.62212   0.73249   0.27692   0.00000  Uiso   1.00
Br382  Br    0.38134   0.92010   0.19608   0.00000  Uiso   1.00
C383   C     0.42078   0.83350   0.25013   0.00000  Uiso   1.00
C384   C     0.64556   0.87355   0.23430   0.00000  Uiso   1.00
C385   C     0.64652   0.79297   0.26419   0.00000  Uiso   1.00
C386   C     0.35459   0.87170   0.23081   0.00000  Uiso   1.00
C387   C     0.53211   0.84581   0.04695   0.00000  Uiso   1.00
C388   C     0.52963   0.81357   0.45361   0.00000  Uiso   1.00
C389   C     0.46322   0.85139   0.45120   0.00000  Uiso   1.00
C390   C     0.46123   0.82238   0.04831   0.00000  Uiso   1.00
C391   C     0.53346   0.84516   0.09290   0.00000  Uiso   1.00
C392   C     0.53100   0.81384   0.40769   0.00000  Uiso   1.00
C393   C     0.46402   0.85145   0.40507   0.00000  Uiso   1.00
C394   C     0.57944   0.83321   0.24971   0.00000  Uiso   1.00
C395   C     0.46208   0.82207   0.09445   0.00000  Uiso   1.00
C396   C     0.49827   0.83386   0.11694   0.00000  Uiso   1.00
C397   C     0.49812   0.83269   0.38309   0.00000  Uiso   1.00
C398   C     0.49623   0.83411   0.02432   0.00000  Uiso   1.00
C399   C     0.49610   0.83274   0.47570   0.00000  Uiso   1.00
C400   C     0.62424   0.83315   0.24929   0.00000  Uiso   1.00
C401   C     0.37635   0.83380   0.25024   0.00000  Uiso   1.00
C402   C     0.49952   0.83352   0.16505   0.00000  Uiso   1.00
C403   C     0.49952   0.83312   0.33496   0.00000  Uiso   1.00
C404   C     0.48054   0.69205   0.21723   0.00000  Uiso   1.00
C405   C     0.51947   0.97463   0.28277   0.00000  Uiso   1.00
C406   C     0.51933   0.69091   0.28285   0.00000  Uiso   1.00
C407   C     0.48074   0.97577   0.21711   0.00000  Uiso   1.00
C408   C     0.35536   0.79567   0.26922   0.00000  Uiso   1.00
Cu409  Cu    0.50000   0.88022   0.25000   0.00000  Uiso   1.00
Cu410  Cu    0.50000   0.78645   0.25000   0.00000  Uiso   1.00
H411   H     0.46479   0.71116   0.19106   0.00000  Uiso   1.00
H412   H     0.53526   0.95552   0.30891   0.00000  Uiso   1.00
H413   H     0.53479   0.70913   0.30919   0.00000  Uiso   1.00
H414   H     0.46558   0.95758   0.19059   0.00000  Uiso   1.00
H415   H     0.55937   0.85509   0.02889   0.00000  Uiso   1.00
H416   H     0.55507   0.79857   0.47209   0.00000  Uiso   1.00
H417   H     0.43722   0.86659   0.46787   0.00000  Uiso   1.00
H418   H     0.43351   0.81250   0.03123   0.00000  Uiso   1.00
I419   I     0.59062   0.85758   0.12326   0.00000  Uiso   1.00
I420   I     0.58516   0.78854   0.37832   0.00000  Uiso   1.00
I421   I     0.41244   0.87952   0.37074   0.00000  Uiso   1.00
I422   I     0.40796   0.80272   0.12801   0.00000  Uiso   1.00
N423   N     0.50000   0.95069   0.25000   0.00000  Uiso   1.00
N424   N     0.50000   0.71598   0.25000   0.00000  Uiso   1.00
O425   O     0.43988   0.87291   0.24999   0.00000  Uiso   1.00
O426   O     0.56012   0.79375   0.25000   0.00000  Uiso   1.00
O427   O     0.56012   0.87291   0.25000   0.00000  Uiso   1.00
O428   O     0.43988   0.79375   0.24999   0.00000  Uiso   1.00
O429   O     0.50000   0.87293   0.18573   0.00000  Uiso   1.00
O430   O     0.50000   0.79374   0.31427   0.00000  Uiso   1.00
O431   O     0.50000   0.87293   0.31427   0.00000  Uiso   1.00
O432   O     0.50000   0.79374   0.18573   0.00000  Uiso   1.00
Br433  Br    0.71631   0.74810   0.30529   0.00000  Uiso   1.00
Br434  Br    0.95246   0.93254   0.21735   0.00000  Uiso   1.00
Br435  Br    0.95545   0.73249   0.27692   0.00000  Uiso   1.00
Br436  Br    0.71467   0.92010   0.19608   0.00000  Uiso   1.00
C437   C     0.75411   0.83350   0.25013   0.00000  Uiso   1.00
C438   C     0.97890   0.87355   0.23430   0.00000  Uiso   1.00
C439   C     0.97986   0.79297   0.26419   0.00000  Uiso   1.00
C440   C     0.68793   0.87170   0.23081   0.00000  Uiso   1.00
C441   C     0.86544   0.84581   0.04695   0.00000  Uiso   1.00
C442   C     0.86296   0.81357   0.45361   0.00000  Uiso   1.00
C443   C     0.79655   0.85139   0.45120   0.00000  Uiso   1.00
C444   C     0.79457   0.82238   0.04831   0.00000  Uiso   1.00
C445   C     0.86679   0.84516   0.09290   0.00000  Uiso   1.00
C446   C     0.86433   0.81384   0.40769   0.00000  Uiso   1.00
C447   C     0.79736   0.85145   0.40507   0.00000  Uiso   1.00
C448   C     0.91277   0.83321   0.24971   0.00000  Uiso   1.00
C449   C     0.79542   0.82207   0.09445   0.00000  Uiso   1.00
C450   C     0.83160   0.83386   0.11694   0.00000  Uiso   1.00
C451   C     0.83146   0.83269   0.38309   0.00000  Uiso   1.00
C452   C     0.82956   0.83411   0.02432   0.00000  Uiso   1.00
C453   C     0.82943   0.83274   0.47570   0.00000  Uiso   1.00
C454   C     0.95758   0.83315   0.24929   0.00000  Uiso   1.00
C455   C     0.70969   0.83380   0.25024   0.00000  Uiso   1.00
C456   C     0.83285   0.83352   0.16505   0.00000  Uiso   1.00
C457   C     0.83285   0.83312   0.33496   0.00000  Uiso   1.00
C458   C     0.81387   0.69205   0.21723   0.00000  Uiso   1.00
C459   C     0.85280   0.97463   0.28277   0.00000  Uiso   1.00
C460   C     0.85267   0.69091   0.28285   0.00000  Uiso   1.00
C461   C     0.81408   0.97577   0.21711   0.00000  Uiso   1.00
C462   C     0.68870   0.79567   0.26922   0.00000  Uiso   1.00
Cu463  Cu    0.83333   0.88022   0.25000   0.00000  Uiso   1.00
Cu464  Cu    0.83333   0.78645   0.25000   0.00000  Uiso   1.00
H465   H     0.79813   0.71116   0.19106   0.00000  Uiso   1.00
H466   H     0.86859   0.95552   0.30891   0.00000  Uiso   1.00
H467   H     0.86812   0.70913   0.30919   0.00000  Uiso   1.00
H468   H     0.79892   0.95758   0.19059   0.00000  Uiso   1.00
H469   H     0.89270   0.85509   0.02889   0.00000  Uiso   1.00
H470   H     0.88840   0.79857   0.47209   0.00000  Uiso   1.00
H471   H     0.77056   0.86659   0.46787   0.00000  Uiso   1.00
H472   H     0.76684   0.81250   0.03123   0.00000  Uiso   1.00
I473   I     0.92396   0.85758   0.12326   0.00000  Uiso   1.00
I474   I     0.91850   0.78854   0.37832   0.00000  Uiso   1.00
I475   I     0.74577   0.87952   0.37074   0.00000  Uiso   1.00
I476   I     0.74129   0.80272   0.12801   0.00000  Uiso   1.00
N477   N     0.83333   0.95069   0.25000   0.00000  Uiso   1.00
N478   N     0.83333   0.71598   0.25000   0.00000  Uiso   1.00
O479   O     0.77321   0.87291   0.24999   0.00000  Uiso   1.00
O480   O     0.89345   0.79375   0.25000   0.00000  Uiso   1.00
O481   O     0.89345   0.87291   0.25000   0.00000  Uiso   1.00
O482   O     0.77321   0.79375   0.24999   0.00000  Uiso   1.00
O483   O     0.83333   0.87293   0.18573   0.00000  Uiso   1.00
O484   O     0.83334   0.79374   0.31427   0.00000  Uiso   1.00
O485   O     0.83334   0.87293   0.31427   0.00000  Uiso   1.00
O486   O     0.83333   0.79374   0.18573   0.00000  Uiso   1.00
Br487  Br    0.04965   0.08144   0.80529   0.00000  Uiso   1.00
Br488  Br    0.28579   0.26588   0.71735   0.00000  Uiso   1.00
Br489  Br    0.28878   0.06583   0.77692   0.00000  Uiso   1.00
Br490  Br    0.04801   0.25343   0.69608   0.00000  Uiso   1.00
C491   C     0.08744   0.16683   0.75013   0.00000  Uiso   1.00
C492   C     0.31223   0.20689   0.73430   0.00000  Uiso   1.00
C493   C     0.31319   0.12630   0.76419   0.00000  Uiso   1.00
C494   C     0.02126   0.20503   0.73081   0.00000  Uiso   1.00
C495   C     0.19877   0.17914   0.54695   0.00000  Uiso   1.00
C496   C     0.19630   0.14690   0.95361   0.00000  Uiso   1.00
C497   C     0.12989   0.18472   0.95120   0.00000  Uiso   1.00
C498   C     0.12790   0.15571   0.54831   0.00000  Uiso   1.00
C499   C     0.20012   0.17849   0.59290   0.00000  Uiso   1.00
C500   C     0.19767   0.14717   0.90769   0.00000  Uiso   1.00
C501   C     0.13069   0.18478   0.90507   0.00000  Uiso   1.00
C502   C     0.24611   0.16655   0.74971   0.00000  Uiso   1.00
C503   C     0.12875   0.15540   0.59445   0.00000  Uiso   1.00
C504   C     0.16494   0.16720   0.61694   0.00000  Uiso   1.00
C505   C     0.16479   0.16602   0.88309   0.00000  Uiso   1.00
C506   C     0.16290   0.16745   0.52432   0.00000  Uiso   1.00
C507   C     0.16276   0.16607   0.97570   0.00000  Uiso   1.00
C508   C     0.29091   0.16648   0.74929   0.00000  Uiso   1.00
C509   C     0.04302   0.16713   0.75024   0.00000  Uiso   1.00
C510   C     0.16618   0.16686   0.66505   0.00000  Uiso   1.00
C511   C     0.16618   0.16646   0.83496   0.00000  Uiso   1.00
C512   C     0.14720   0.02538   0.71723   0.00000  Uiso   1.00
C513   C     0.18613   0.30796   0.78277   0.00000  Uiso   1.00
C514   C     0.18600   0.02425   0.78285   0.00000  Uiso   1.00
C515   C     0.14741   0.30910   0.71711   0.00000  Uiso   1.00
C516   C     0.02203   0.12901   0.76922   0.00000  Uiso   1.00
Cu517  Cu    0.16667   0.21355   0.75000   0.00000  Uiso   1.00
Cu518  Cu    0.16667   0.11978   0.75000   0.00000  Uiso   1.00
H519   H     0.13146   0.04449   0.69106   0.00000  Uiso   1.00
H520   H     0.20193   0.28885   0.80891   0.00000  Uiso   1.00
H521   H     0.20146   0.04247   0.80919   0.00000  Uiso   1.00
H522   H     0.13225   0.29092   0.69059   0.00000  Uiso   1.00
H523   H     0.22603   0.18843   0.52889   0.00000  Uiso   1.00
H524   H     0.22174   0.13191   0.97209   0.00000  Uiso   1.00
H525   H     0.10389   0.19992   0.96787   0.00000  Uiso   1.00
H526   H     0.10017   0.14583   0.53123   0.00000  Uiso   1.00
I527   I     0.25729   0.19091   0.62326   0.00000  Uiso   1.00
I528   I     0.25183   0.12187   0.87832   0.00000  Uiso   1.00
I529   I     0.07911   0.21285   0.87074   0.00000  Uiso   1.00
I530   I     0.07462   0.13605   0.62801   0.00000  Uiso   1.00
N531   N     0.16667   0.28402   0.75000   0.00000  Uiso   1.00
N532   N     0.16667   0.04931   0.75000   0.00000  Uiso   1.00
O533   O     0.10655   0.20625   0.74999   0.00000  Uiso   1.00
O534   O     0.22679   0.12709   0.75000   0.00000  Uiso   1.00
O535   O     0.22679   0.20625   0.75000   0.00000  Uiso   1.00
O536   O     0.10655   0.12709   0.74999   0.00000  Uiso   1.00
O537   O     0.16666   0.20626   0.68573   0.00000  Uiso   1.00
O538   O     0.16667   0.12707   0.81427   0.00000  Uiso   1.00
O539   O     0.16667   0.20626   0.81427   0.00000  Uiso   1.00
O540   O     0.16666   0.12707   0.68573   0.00000  Uiso   1.00
Br541  Br    0.38298   0.08144   0.80529   0.00000  Uiso   1.00
Br542  Br    0.61913   0.26588   0.71735   0.00000  Uiso   1.00
Br543  Br    0.62212   0.06583   0.77692   0.00000  Uiso   1.00
Br544  Br    0.38134   0.25343   0.69608   0.00000  Uiso   1.00
C545   C     0.42078   0.16683   0.75013   0.00000  Uiso   1.00
C546   C     0.64556   0.20689   0.73430   0.00000  Uiso   1.00
C547   C     0.64652   0.12630   0.76419   0.00000  Uiso   1.00
C548   C     0.35459   0.20503   0.73081   0.00000  Uiso   1.00
C549   C     0.53211   0.17914   0.54695   0.00000  Uiso   1.00
C550   C     0.52963   0.14690   0.95361   0.00000  Uiso   1.00
C551   C     0.46322   0.18472   0.95120   0.00000  Uiso   1.00
C552   C     0.46123   0.15571   0.54831   0.00000  Uiso   1.00
C553   C     0.53346   0.17849   0.59290   0.00000  Uiso   1.00
C554   C     0.53100   0.14717   0.90769   0.00000  Uiso   1.00
C555   C     0.46402   0.18478   0.90507   0.00000  Uiso   1.00
C556   C     0.57944   0.16655   0.74971   0.00000  Uiso   1.00
C557   C     0.46208   0.15540   0.59445   0.00000  Uiso   1.00
C558   C     0.49827   0.16720   0.61694   0.00000  Uiso   1.00
C559   C     0.49812   0.16602   0.88309   0.00000  Uiso   1.00
C560   C     0.49623   0.16745   0.52432   0.00000  Uiso   1.00
C561   C     0.49610   0.16607   0.97570   0.00000  Uiso   1.00
C562   C     0.62424   0.16648   0.74929   0.00000  Uiso   1.00
C563   C     0.37635   0.16713   0.75024   0.00000  Uiso   1.00
C564   C     0.49952   0.16686   0.66505   0.00000  Uiso   1.00
C565   C     0.49952   0.16646   0.83496   0.00000  Uiso   1.00
C566   C     0.48054   0.02538   0.71723   0.00000  Uiso   1.00
C567   C     0.51947   0.30796   0.78277   0.00000  Uiso   1.00
C568   C     0.51933   0.02425   0.78285   0.00000  Uiso   1.00
C569   C     0.48074   0.30910   0.71711   0.00000  Uiso   1.00
C570   C     0.35536   0.12901   0.76922   0.00000  Uiso   1.00
Cu571  Cu    0.50000   0.21355   0.75000   0.00000  Uiso   1.00
Cu572  Cu    0.50000   0.11978   0.75000   0.00000  Uiso   1.00
H573   H     0.46479   0.04449   0.69106   0.00000  Uiso   1.00
H574   H     0.53526   0.28885   0.80891   0.00000  Uiso   1.00
H575   H     0.53479   0.04247   0.80919   0.00000  Uiso   1.00
H576   H     0.46558   0.29092   0.69059   0.00000  Uiso   1.00
H577   H     0.55937   0.18843   0.52889   0.00000  Uiso   1.00
H578   H     0.55507   0.13191   0.97209   0.00000  Uiso   1.00
H579   H     0.43722   0.19992   0.96787   0.00000  Uiso   1.00
H580   H     0.43351   0.14583   0.53123   0.00000  Uiso   1.00
I581   I     0.59062   0.19091   0.62326   0.00000  Uiso   1.00
I582   I     0.58516   0.12187   0.87832   0.00000  Uiso   1.00
I583   I     0.41244   0.21285   0.87074   0.00000  Uiso   1.00
I584   I     0.40796   0.13605   0.62801   0.00000  Uiso   1.00
N585   N     0.50000   0.28402   0.75000   0.00000  Uiso   1.00
N586   N     0.50000   0.04931   0.75000   0.00000  Uiso   1.00
O587   O     0.43988   0.20625   0.74999   0.00000  Uiso   1.00
O588   O     0.56012   0.12709   0.75000   0.00000  Uiso   1.00
O589   O     0.56012   0.20625   0.75000   0.00000  Uiso   1.00
O590   O     0.43988   0.12709   0.74999   0.00000  Uiso   1.00
O591   O     0.50000   0.20626   0.68573   0.00000  Uiso   1.00
O592   O     0.50000   0.12707   0.81427   0.00000  Uiso   1.00
O593   O     0.50000   0.20626   0.81427   0.00000  Uiso   1.00
O594   O     0.50000   0.12707   0.68573   0.00000  Uiso   1.00
Br595  Br    0.71631   0.08144   0.80529   0.00000  Uiso   1.00
Br596  Br    0.95246   0.26588   0.71735   0.00000  Uiso   1.00
Br597  Br    0.95545   0.06583   0.77692   0.00000  Uiso   1.00
Br598  Br    0.71467   0.25343   0.69608   0.00000  Uiso   1.00
C599   C     0.75411   0.16683   0.75013   0.00000  Uiso   1.00
C600   C     0.97890   0.20689   0.73430   0.00000  Uiso   1.00
C601   C     0.97986   0.12630   0.76419   0.00000  Uiso   1.00
C602   C     0.68793   0.20503   0.73081   0.00000  Uiso   1.00
C603   C     0.86544   0.17914   0.54695   0.00000  Uiso   1.00
C604   C     0.86296   0.14690   0.95361   0.00000  Uiso   1.00
C605   C     0.79655   0.18472   0.95120   0.00000  Uiso   1.00
C606   C     0.79457   0.15571   0.54831   0.00000  Uiso   1.00
C607   C     0.86679   0.17849   0.59290   0.00000  Uiso   1.00
C608   C     0.86433   0.14717   0.90769   0.00000  Uiso   1.00
C609   C     0.79736   0.18478   0.90507   0.00000  Uiso   1.00
C610   C     0.91277   0.16655   0.74971   0.00000  Uiso   1.00
C611   C     0.79542   0.15540   0.59445   0.00000  Uiso   1.00
C612   C     0.83160   0.16720   0.61694   0.00000  Uiso   1.00
C613   C     0.83146   0.16602   0.88309   0.00000  Uiso   1.00
C614   C     0.82956   0.16745   0.52432   0.00000  Uiso   1.00
C615   C     0.82943   0.16607   0.97570   0.00000  Uiso   1.00
C616   C     0.95758   0.16648   0.74929   0.00000  Uiso   1.00
C617   C     0.70969   0.16713   0.75024   0.00000  Uiso   1.00
C618   C     0.83285   0.16686   0.66505   0.00000  Uiso   1.00
C619   C     0.83285   0.16646   0.83496   0.00000  Uiso   1.00
C620   C     0.81387   0.02538   0.71723   0.00000  Uiso   1.00
C621   C     0.85280   0.30796   0.78277   0.00000  Uiso   1.00
C622   C     0.85267   0.02425   0.78285   0.00000  Uiso   1.00
C623   C     0.81408   0.30910   0.71711   0.00000  Uiso   1.00
C624   C     0.68870   0.12901   0.76922   0.00000  Uiso   1.00
Cu625  Cu    0.83333   0.21355   0.75000   0.00000  Uiso   1.00
Cu626  Cu    0.83333   0.11978   0.75000   0.00000  Uiso   1.00
H627   H     0.79813   0.04449   0.69106   0.00000  Uiso   1.00
H628   H     0.86859   0.28885   0.80891   0.00000  Uiso   1.00
H629   H     0.86812   0.04247   0.80919   0.00000  Uiso   1.00
H630   H     0.79892   0.29092   0.69059   0.00000  Uiso   1.00
H631   H     0.89270   0.18843   0.52889   0.00000  Uiso   1.00
H632   H     0.88840   0.13191   0.97209   0.00000  Uiso   1.00
H633   H     0.77056   0.19992   0.96787   0.00000  Uiso   1.00
H634   H     0.76684   0.14583   0.53123   0.00000  Uiso   1.00
I635   I     0.92396   0.19091   0.62326   0.00000  Uiso   1.00
I636   I     0.91850   0.12187   0.87832   0.00000  Uiso   1.00
I637   I     0.74577   0.21285   0.87074   0.00000  Uiso   1.00
I638   I     0.74129   0.13605   0.62801   0.00000  Uiso   1.00
N639   N     0.83333   0.28402   0.75000   0.00000  Uiso   1.00
N640   N     0.83333   0.04931   0.75000   0.00000  Uiso   1.00
O641   O     0.77321   0.20625   0.74999   0.00000  Uiso   1.00
O642   O     0.89345   0.12709   0.75000   0.00000  Uiso   1.00
O643   O     0.89345   0.20625   0.75000   0.00000  Uiso   1.00
O644   O     0.77321   0.12709   0.74999   0.00000  Uiso   1.00
O645   O     0.83333   0.20626   0.68573   0.00000  Uiso   1.00
O646   O     0.83334   0.12707   0.81427   0.00000  Uiso   1.00
O647   O     0.83334   0.20626   0.81427   0.00000  Uiso   1.00
O648   O     0.83333   0.12707   0.68573   0.00000  Uiso   1.00
Br649  Br    0.04965   0.41477   0.80529   0.00000  Uiso   1.00
Br650  Br    0.28579   0.59921   0.71735   0.00000  Uiso   1.00
Br651  Br    0.28878   0.39916   0.77692   0.00000  Uiso   1.00
Br652  Br    0.04801   0.58676   0.69608   0.00000  Uiso   1.00
C653   C     0.08744   0.50017   0.75013   0.00000  Uiso   1.00
C654   C     0.31223   0.54022   0.73430   0.00000  Uiso   1.00
C655   C     0.31319   0.45964   0.76419   0.00000  Uiso   1.00
C656   C     0.02126   0.53837   0.73081   0.00000  Uiso   1.00
C657   C     0.19877   0.51248   0.54695   0.00000  Uiso   1.00
C658   C     0.19630   0.48023   0.95361   0.00000  Uiso   1.00
C659   C     0.12989   0.51806   0.95120   0.00000  Uiso   1.00
C660   C     0.12790   0.48904   0.54831   0.00000  Uiso   1.00
C661   C     0.20012   0.51182   0.59290   0.00000  Uiso   1.00
C662   C     0.19767   0.48051   0.90769   0.00000  Uiso   1.00
C663   C     0.13069   0.51811   0.90507   0.00000  Uiso   1.00
C664   C     0.24611   0.49988   0.74971   0.00000  Uiso   1.00
C665   C     0.12875   0.48874   0.59445   0.00000  Uiso   1.00
C666   C     0.16494   0.50053   0.61694   0.00000  Uiso   1.00
C667   C     0.16479   0.49936   0.88309   0.00000  Uiso   1.00
C668   C     0.16290   0.50078   0.52432   0.00000  Uiso   1.00
C669   C     0.16276   0.49941   0.97570   0.00000  Uiso   1.00
C670   C     0.29091   0.49982   0.74929   0.00000  Uiso   1.00
C671   C     0.04302   0.50046   0.75024   0.00000  Uiso   1.00
C672   C     0.16618   0.50019   0.66505   0.00000  Uiso   1.00
C673   C     0.16618   0.49979   0.83496   0.00000  Uiso   1.00
C674   C     0.14720   0.35872   0.71723   0.00000  Uiso   1.00
C675   C     0.18613   0.64129   0.78277   0.00000  Uiso   1.00
C676   C     0.18600   0.35758   0.78285   0.00000  Uiso   1.00
C677   C     0.14741   0.64244   0.71711   0.00000  Uiso   1.00
C678   C     0.02203   0.46234   0.76922   0.00000  Uiso   1.00
Cu679  Cu    0.16667   0.54689   0.75000   0.00000  Uiso   1.00
Cu680  Cu    0.16667   0.45311   0.75000   0.00000  Uiso   1.00
H681   H     0.13146   0.37782   0.69106   0.00000  Uiso   1.00
H682   H     0.20193   0.62218   0.80891   0.00000  Uiso   1.00
H683   H     0.20146   0.37580   0.80919   0.00000  Uiso   1.00
H684   H     0.13225   0.62425   0.69059   0.00000  Uiso   1.00
H685   H     0.22603   0.52176   0.52889   0.00000  Uiso   1.00
H686   H     0.22174   0.46524   0.97209   0.00000  Uiso   1.00
H687   H     0.10389   0.53325   0.96787   0.00000  Uiso   1.00
H688   H     0.10017   0.47916   0.53123   0.00000  Uiso   1.00
I689   I     0.25729   0.52425   0.62326   0.00000  Uiso   1.00
I690   I     0.25183   0.45520   0.87832   0.00000  Uiso   1.00
I691   I     0.07911   0.54618   0.87074   0.00000  Uiso   1.00
I692   I     0.07462   0.46939   0.62801   0.00000  Uiso   1.00
N693   N     0.16667   0.61736   0.75000   0.00000  Uiso   1.00
N694   N     0.16667   0.38264   0.75000   0.00000  Uiso   1.00
O695   O     0.10655   0.53958   0.74999   0.00000  Uiso   1.00
O696   O     0.22679   0.46042   0.75000   0.00000  Uiso   1.00
O697   O     0.22679   0.53958   0.75000   0.00000  Uiso   1.00
O698   O     0.10655   0.46042   0.74999   0.00000  Uiso   1.00
O699   O     0.16666   0.53959   0.68573   0.00000  Uiso   1.00
O700   O     0.16667   0.46041   0.81427   0.00000  Uiso   1.00
O701   O     0.16667   0.53959   0.81427   0.00000  Uiso   1.00
O702   O     0.16666   0.46041   0.68573   0.00000  Uiso   1.00
Br703  Br    0.38298   0.41477   0.80529   0.00000  Uiso   1.00
Br704  Br    0.61913   0.59921   0.71735   0.00000  Uiso   1.00
Br705  Br    0.62212   0.39916   0.77692   0.00000  Uiso   1.00
Br706  Br    0.38134   0.58676   0.69608   0.00000  Uiso   1.00
C707   C     0.42078   0.50017   0.75013   0.00000  Uiso   1.00
C708   C     0.64556   0.54022   0.73430   0.00000  Uiso   1.00
C709   C     0.64652   0.45964   0.76419   0.00000  Uiso   1.00
C710   C     0.35459   0.53837   0.73081   0.00000  Uiso   1.00
C711   C     0.53211   0.51248   0.54695   0.00000  Uiso   1.00
C712   C     0.52963   0.48023   0.95361   0.00000  Uiso   1.00
C713   C     0.46322   0.51806   0.95120   0.00000  Uiso   1.00
C714   C     0.46123   0.48904   0.54831   0.00000  Uiso   1.00
C715   C     0.53346   0.51182   0.59290   0.00000  Uiso   1.00
C716   C     0.53100   0.48051   0.90769   0.00000  Uiso   1.00
C717   C     0.46402   0.51811   0.90507   0.00000  Uiso   1.00
C718   C     0.57944   0.49988   0.74971   0.00000  Uiso   1.00
C719   C     0.46208   0.48874   0.59445   0.00000  Uiso   1.00
C720   C     0.49827   0.50053   0.61694   0.00000  Uiso   1.00
C721   C     0.49812   0.49936   0.88309   0.00000  Uiso   1.00
C722   C     0.49623   0.50078   0.52432   0.00000  Uiso   1.00
C723   C     0.49610   0.49941   0.97570   0.00000  Uiso   1.00
C724   C     0.62424   0.49982   0.74929   0.00000  Uiso   1.00
C725   C     0.37635   0.50046   0.75024   0.00000  Uiso   1.00
C726   C     0.49952   0.50019   0.66505   0.00000  Uiso   1.00
C727   C     0.49952   0.49979   0.83496   0.00000  Uiso   1.00
C728   C     0.48054   0.35872   0.71723   0.00000  Uiso   1.00
C729   C     0.51947   0.64129   0.78277   0.00000  Uiso   1.00
C730   C     0.51933   0.35758   0.78285   0.00000  Uiso   1.00
C731   C     0.48074   0.64244   0.71711   0.00000  Uiso   1.00
C732   C     0.35536   0.46234   0.76922   0.00000  Uiso   1.00
Cu733  Cu    0.50000   0.54689   0.75000   0.00000  Uiso   1.00
Cu734  Cu    0.50000   0.45311   0.75000   0.00000  Uiso   1.00
H735   H     0.46479   0.37782   0.69106   0.00000  Uiso   1.00
H736   H     0.53526   0.62218   0.80891   0.00000  Uiso   1.00
H737   H     0.53479   0.37580   0.80919   0.00000  Uiso   1.00
H738   H     0.46558   0.62425   0.69059   0.00000  Uiso   1.00
H739   H     0.55937   0.52176   0.52889   0.00000  Uiso   1.00
H740   H     0.55507   0.46524   0.97209   0.00000  Uiso   1.00
H741   H     0.43722   0.53325   0.96787   0.00000  Uiso   1.00
H742   H     0.43351   0.47916   0.53123   0.00000  Uiso   1.00
I743   I     0.59062   0.52425   0.62326   0.00000  Uiso   1.00
I744   I     0.58516   0.45520   0.87832   0.00000  Uiso   1.00
I745   I     0.41244   0.54618   0.87074   0.00000  Uiso   1.00
I746   I     0.40796   0.46939   0.62801   0.00000  Uiso   1.00
N747   N     0.50000   0.61736   0.75000   0.00000  Uiso   1.00
N748   N     0.50000   0.38264   0.75000   0.00000  Uiso   1.00
O749   O     0.43988   0.53958   0.74999   0.00000  Uiso   1.00
O750   O     0.56012   0.46042   0.75000   0.00000  Uiso   1.00
O751   O     0.56012   0.53958   0.75000   0.00000  Uiso   1.00
O752   O     0.43988   0.46042   0.74999   0.00000  Uiso   1.00
O753   O     0.50000   0.53959   0.68573   0.00000  Uiso   1.00
O754   O     0.50000   0.46041   0.81427   0.00000  Uiso   1.00
O755   O     0.50000   0.53959   0.81427   0.00000  Uiso   1.00
O756   O     0.50000   0.46041   0.68573   0.00000  Uiso   1.00
Br757  Br    0.71631   0.41477   0.80529   0.00000  Uiso   1.00
Br758  Br    0.95246   0.59921   0.71735   0.00000  Uiso   1.00
Br759  Br    0.95545   0.39916   0.77692   0.00000  Uiso   1.00
Br760  Br    0.71467   0.58676   0.69608   0.00000  Uiso   1.00
C761   C     0.75411   0.50017   0.75013   0.00000  Uiso   1.00
C762   C     0.97890   0.54022   0.73430   0.00000  Uiso   1.00
C763   C     0.97986   0.45964   0.76419   0.00000  Uiso   1.00
C764   C     0.68793   0.53837   0.73081   0.00000  Uiso   1.00
C765   C     0.86544   0.51248   0.54695   0.00000  Uiso   1.00
C766   C     0.86296   0.48023   0.95361   0.00000  Uiso   1.00
C767   C     0.79655   0.51806   0.95120   0.00000  Uiso   1.00
C768   C     0.79457   0.48904   0.54831   0.00000  Uiso   1.00
C769   C     0.86679   0.51182   0.59290   0.00000  Uiso   1.00
C770   C     0.86433   0.48051   0.90769   0.00000  Uiso   1.00
C771   C     0.79736   0.51811   0.90507   0.00000  Uiso   1.00
C772   C     0.91277   0.49988   0.74971   0.00000  Uiso   1.00
C773   C     0.79542   0.48874   0.59445   0.00000  Uiso   1.00
C774   C     0.83160   0.50053   0.61694   0.00000  Uiso   1.00
C775   C     0.83146   0.49936   0.88309   0.00000  Uiso   1.00
C776   C     0.82956   0.50078   0.52432   0.00000  Uiso   1.00
C777   C     0.82943   0.49941   0.97570   0.00000  Uiso   1.00
C778   C     0.95758   0.49982   0.74929   0.00000  Uiso   1.00
C779   C     0.70969   0.50046   0.75024   0.00000  Uiso   1.00
C780   C     0.83285   0.50019   0.66505   0.00000  Uiso   1.00
C781   C     0.83285   0.49979   0.83496   0.00000  Uiso   1.00
C782   C     0.81387   0.35872   0.71723   0.00000  Uiso   1.00
C783   C     0.85280   0.64129   0.78277   0.00000  Uiso   1.00
C784   C     0.85267   0.35758   0.78285   0.00000  Uiso   1.00
C785   C     0.81408   0.64244   0.71711   0.00000  Uiso   1.00
C786   C     0.68870   0.46234   0.76922   0.00000  Uiso   1.00
Cu787  Cu    0.83333   0.54689   0.75000   0.00000  Uiso   1.00
Cu788  Cu    0.83333   0.45311   0.75000   0.00000  Uiso   1.00
H789   H     0.79813   0.37782   0.69106   0.00000  Uiso   1.00
H790   H     0.86859   0.62218   0.80891   0.00000  Uiso   1.00
H791   H     0.86812   0.37580   0.80919   0.00000  Uiso   1.00
H792   H     0.79892   0.62425   0.69059   0.00000  Uiso   1.00
H793   H     0.89270   0.52176   0.52889   0.00000  Uiso   1.00
H794   H     0.88840   0.46524   0.97209   0.00000  Uiso   1.00
H795   H     0.77056   0.53325   0.96787   0.00000  Uiso   1.00
H796   H     0.76684   0.47916   0.53123   0.00000  Uiso   1.00
I797   I     0.92396   0.52425   0.62326   0.00000  Uiso   1.00
I798   I     0.91850   0.45520   0.87832   0.00000  Uiso   1.00
I799   I     0.74577   0.54618   0.87074   0.00000  Uiso   1.00
I800   I     0.74129   0.46939   0.62801   0.00000  Uiso   1.00
N801   N     0.83333   0.61736   0.75000   0.00000  Uiso   1.00
N802   N     0.83333   0.38264   0.75000   0.00000  Uiso   1.00
O803   O     0.77321   0.53958   0.74999   0.00000  Uiso   1.00
O804   O     0.89345   0.46042   0.75000   0.00000  Uiso   1.00
O805   O     0.89345   0.53958   0.75000   0.00000  Uiso   1.00
O806   O     0.77321   0.46042   0.74999   0.00000  Uiso   1.00
O807   O     0.83333   0.53959   0.68573   0.00000  Uiso   1.00
O808   O     0.83334   0.46041   0.81427   0.00000  Uiso   1.00
O809   O     0.83334   0.53959   0.81427   0.00000  Uiso   1.00
O810   O     0.83333   0.46041   0.68573   0.00000  Uiso   1.00
Br811  Br    0.04965   0.74810   0.80529   0.00000  Uiso   1.00
Br812  Br    0.28579   0.93254   0.71735   0.00000  Uiso   1.00
Br813  Br    0.28878   0.73249   0.77692   0.00000  Uiso   1.00
Br814  Br    0.04801   0.92010   0.69608   0.00000  Uiso   1.00
C815   C     0.08744   0.83350   0.75013   0.00000  Uiso   1.00
C816   C     0.31223   0.87355   0.73430   0.00000  Uiso   1.00
C817   C     0.31319   0.79297   0.76419   0.00000  Uiso   1.00
C818   C     0.02126   0.87170   0.73081   0.00000  Uiso   1.00
C819   C     0.19877   0.84581   0.54695   0.00000  Uiso   1.00
C820   C     0.19630   0.81357   0.95361   0.00000  Uiso   1.00
C821   C     0.12989   0.85139   0.95120   0.00000  Uiso   1.00
C822   C     0.12790   0.82238   0.54831   0.00000  Uiso   1.00
C823   C     0.20012   0.84516   0.59290   0.00000  Uiso   1.00
C824   C     0.19767   0.81384   0.90769   0.00000  Uiso   1.00
C825   C     0.13069   0.85145   0.90507   0.00000  Uiso   1.00
C826   C     0.24611   0.83321   0.74971   0.00000  Uiso   1.00
C827   C     0.12875   0.82207   0.59445   0.00000  Uiso   1.00
C828   C     0.16494   0.83386   0.61694   0.00000  Uiso   1.00
C829   C     0.16479   0.83269   0.88309   0.00000  Uiso   1.00
C830   C     0.16290   0.83411   0.52432   0.00000  Uiso   1.00
C831   C     0.16276   0.83274   0.97570   0.00000  Uiso   1.00
C832   C     0.29091   0.83315   0.74929   0.00000  Uiso   1.00
C833   C     0.04302   0.83380   0.75024   0.00000  Uiso   1.00
C834   C     0.16618   0.83352   0.66505   0.00000  Uiso   1.00
C835   C     0.16618   0.83312   0.83496   0.00000  Uiso   1.00
C836   C     0.14720   0.69205   0.71723   0.00000  Uiso   1.00
C837   C     0.18613   0.97463   0.78277   0.00000  Uiso   1.00
C838   C     0.18600   0.69091   0.78285   0.00000  Uiso   1.00
C839   C     0.14741   0.97577   0.71711   0.00000  Uiso   1.00
C840   C     0.02203   0.79567   0.76922   0.00000  Uiso   1.00
Cu841  Cu    0.16667   0.88022   0.75000   0.00000  Uiso   1.00
Cu842  Cu    0.16667   0.78645   0.75000   0.00000  Uiso   1.00
H843   H     0.13146   0.71116   0.69106   0.00000  Uiso   1.00
H844   H     0.20193   0.95552   0.80891   0.00000  Uiso   1.00
H845   H     0.20146   0.70913   0.80919   0.00000  Uiso   1.00
H846   H     0.13225   0.95758   0.69059   0.00000  Uiso   1.00
H847   H     0.22603   0.85509   0.52889   0.00000  Uiso   1.00
H848   H     0.22174   0.79857   0.97209   0.00000  Uiso   1.00
H849   H     0.10389   0.86659   0.96787   0.00000  Uiso   1.00
H850   H     0.10017   0.81250   0.53123   0.00000  Uiso   1.00
I851   I     0.25729   0.85758   0.62326   0.00000  Uiso   1.00
I852   I     0.25183   0.78854   0.87832   0.00000  Uiso   1.00
I853   I     0.07911   0.87952   0.87074   0.00000  Uiso   1.00
I854   I     0.07462   0.80272   0.62801   0.00000  Uiso   1.00
N855   N     0.16667   0.95069   0.75000   0.00000  Uiso   1.00
N856   N     0.16667   0.71598   0.75000   0.00000  Uiso   1.00
O857   O     0.10655   0.87291   0.74999   0.00000  Uiso   1.00
O858   O     0.22679   0.79375   0.75000   0.00000  Uiso   1.00
O859   O     0.22679   0.87291   0.75000   0.00000  Uiso   1.00
O860   O     0.10655   0.79375   0.74999   0.00000  Uiso   1.00
O861   O     0.16666   0.87293   0.68573   0.00000  Uiso   1.00
O862   O     0.16667   0.79374   0.81427   0.00000  Uiso   1.00
O863   O     0.16667   0.87293   0.81427   0.00000  Uiso   1.00
O864   O     0.16666   0.79374   0.68573   0.00000  Uiso   1.00
Br865  Br    0.38298   0.74810   0.80529   0.00000  Uiso   1.00
Br866  Br    0.61913   0.93254   0.71735   0.00000  Uiso   1.00
Br867  Br    0.62212   0.73249   0.77692   0.00000  Uiso   1.00
Br868  Br    0.38134   0.92010   0.69608   0.00000  Uiso   1.00
C869   C     0.42078   0.83350   0.75013   0.00000  Uiso   1.00
C870   C     0.64556   0.87355   0.73430   0.00000  Uiso   1.00
C871   C     0.64652   0.79297   0.76419   0.00000  Uiso   1.00
C872   C     0.35459   0.87170   0.73081   0.00000  Uiso   1.00
C873   C     0.53211   0.84581   0.54695   0.00000  Uiso   1.00
C874   C     0.52963   0.81357   0.95361   0.00000  Uiso   1.00
C875   C     0.46322   0.85139   0.95120   0.00000  Uiso   1.00
C876   C     0.46123   0.82238   0.54831   0.00000  Uiso   1.00
C877   C     0.53346   0.84516   0.59290   0.00000  Uiso   1.00
C878   C     0.53100   0.81384   0.90769   0.00000  Uiso   1.00
C879   C     0.46402   0.85145   0.90507   0.00000  Uiso   1.00
C880   C     0.57944   0.83321   0.74971   0.00000  Uiso   1.00
C881   C     0.46208   0.82207   0.59445   0.00000  Uiso   1.00
C882   C     0.49827   0.83386   0.61694   0.00000  Uiso   1.00
C883   C     0.49812   0.83269   0.88309   0.00000  Uiso   1.00
C884   C     0.49623   0.83411   0.52432   0.00000  Uiso   1.00
C885   C     0.49610   0.83274   0.97570   0.00000  Uiso   1.00
C886   C     0.62424   0.83315   0.74929   0.00000  Uiso   1.00
C887   C     0.37635   0.83380   0.75024   0.00000  Uiso   1.00
C888   C     0.49952   0.83352   0.66505   0.00000  Uiso   1.00
C889   C     0.49952   0.83312   0.83496   0.00000  Uiso   1.00
C890   C     0.48054   0.69205   0.71723   0.00000  Uiso   1.00
C891   C     0.51947   0.97463   0.78277   0.00000  Uiso   1.00
C892   C     0.51933   0.69091   0.78285   0.00000  Uiso   1.00
C893   C     0.48074   0.97577   0.71711   0.00000  Uiso   1.00
C894   C     0.35536   0.79567   0.76922   0.00000  Uiso   1.00
Cu895  Cu    0.50000   0.88022   0.75000   0.00000  Uiso   1.00
Cu896  Cu    0.50000   0.78645   0.75000   0.00000  Uiso   1.00
H897   H     0.46479   0.71116   0.69106   0.00000  Uiso   1.00
H898   H     0.53526   0.95552   0.80891   0.00000  Uiso   1.00
H899   H     0.53479   0.70913   0.80919   0.00000  Uiso   1.00
H900   H     0.46558   0.95758   0.69059   0.00000  Uiso   1.00
H901   H     0.55937   0.85509   0.52889   0.00000  Uiso   1.00
H902   H     0.55507   0.79857   0.97209   0.00000  Uiso   1.00
H903   H     0.43722   0.86659   0.96787   0.00000  Uiso   1.00
H904   H     0.43351   0.81250   0.53123   0.00000  Uiso   1.00
I905   I     0.59062   0.85758   0.62326   0.00000  Uiso   1.00
I906   I     0.58516   0.78854   0.87832   0.00000  Uiso   1.00
I907   I     0.41244   0.87952   0.87074   0.00000  Uiso   1.00
I908   I     0.40796   0.80272   0.62801   0.00000  Uiso   1.00
N909   N     0.50000   0.95069   0.75000   0.00000  Uiso   1.00
N910   N     0.50000   0.71598   0.75000   0.00000  Uiso   1.00
O911   O     0.43988   0.87291   0.74999   0.00000  Uiso   1.00
O912   O     0.56012   0.79375   0.75000   0.00000  Uiso   1.00
O913   O     0.56012   0.87291   0.75000   0.00000  Uiso   1.00
O914   O     0.43988   0.79375   0.74999   0.00000  Uiso   1.00
O915   O     0.50000   0.87293   0.68573   0.00000  Uiso   1.00
O916   O     0.50000   0.79374   0.81427   0.00000  Uiso   1.00
O917   O     0.50000   0.87293   0.81427   0.00000  Uiso   1.00
O918   O     0.50000   0.79374   0.68573   0.00000  Uiso   1.00
Br919  Br    0.71631   0.74810   0.80529   0.00000  Uiso   1.00
Br920  Br    0.95246   0.93254   0.71735   0.00000  Uiso   1.00
Br921  Br    0.95545   0.73249   0.77692   0.00000  Uiso   1.00
Br922  Br    0.71467   0.92010   0.69608   0.00000  Uiso   1.00
C923   C     0.75411   0.83350   0.75013   0.00000  Uiso   1.00
C924   C     0.97890   0.87355   0.73430   0.00000  Uiso   1.00
C925   C     0.97986   0.79297   0.76419   0.00000  Uiso   1.00
C926   C     0.68793   0.87170   0.73081   0.00000  Uiso   1.00
C927   C     0.86544   0.84581   0.54695   0.00000  Uiso   1.00
C928   C     0.86296   0.81357   0.95361   0.00000  Uiso   1.00
C929   C     0.79655   0.85139   0.95120   0.00000  Uiso   1.00
C930   C     0.79457   0.82238   0.54831   0.00000  Uiso   1.00
C931   C     0.86679   0.84516   0.59290   0.00000  Uiso   1.00
C932   C     0.86433   0.81384   0.90769   0.00000  Uiso   1.00
C933   C     0.79736   0.85145   0.90507   0.00000  Uiso   1.00
C934   C     0.91277   0.83321   0.74971   0.00000  Uiso   1.00
C935   C     0.79542   0.82207   0.59445   0.00000  Uiso   1.00
C936   C     0.83160   0.83386   0.61694   0.00000  Uiso   1.00
C937   C     0.83146   0.83269   0.88309   0.00000  Uiso   1.00
C938   C     0.82956   0.83411   0.52432   0.00000  Uiso   1.00
C939   C     0.82943   0.83274   0.97570   0.00000  Uiso   1.00
C940   C     0.95758   0.83315   0.74929   0.00000  Uiso   1.00
C941   C     0.70969   0.83380   0.75024   0.00000  Uiso   1.00
C942   C     0.83285   0.83352   0.66505   0.00000  Uiso   1.00
C943   C     0.83285   0.83312   0.83496   0.00000  Uiso   1.00
C944   C     0.81387   0.69205   0.71723   0.00000  Uiso   1.00
C945   C     0.85280   0.97463   0.78277   0.00000  Uiso   1.00
C946   C     0.85267   0.69091   0.78285   0.00000  Uiso   1.00
C947   C     0.81408   0.97577   0.71711   0.00000  Uiso   1.00
C948   C     0.68870   0.79567   0.76922   0.00000  Uiso   1.00
Cu949  Cu    0.83333   0.88022   0.75000   0.00000  Uiso   1.00
Cu950  Cu    0.83333   0.78645   0.75000   0.00000  Uiso   1.00
H951   H     0.79813   0.71116   0.69106   0.00000  Uiso   1.00
H952   H     0.86859   0.95552   0.80891   0.00000  Uiso   1.00
H953   H     0.86812   0.70913   0.80919   0.00000  Uiso   1.00
H954   H     0.79892   0.95758   0.69059   0.00000  Uiso   1.00
H955   H     0.89270   0.85509   0.52889   0.00000  Uiso   1.00
H956   H     0.88840   0.79857   0.97209   0.00000  Uiso   1.00
H957   H     0.77056   0.86659   0.96787   0.00000  Uiso   1.00
H958   H     0.76684   0.81250   0.53123   0.00000  Uiso   1.00
I959   I     0.92396   0.85758   0.62326   0.00000  Uiso   1.00
I960   I     0.91850   0.78854   0.87832   0.00000  Uiso   1.00
I961   I     0.74577   0.87952   0.87074   0.00000  Uiso   1.00
I962   I     0.74129   0.80272   0.62801   0.00000  Uiso   1.00
N963   N     0.83333   0.95069   0.75000   0.00000  Uiso   1.00
N964   N     0.83333   0.71598   0.75000   0.00000  Uiso   1.00
O965   O     0.77321   0.87291   0.74999   0.00000  Uiso   1.00
O966   O     0.89345   0.79375   0.75000   0.00000  Uiso   1.00
O967   O     0.89345   0.87291   0.75000   0.00000  Uiso   1.00
O968   O     0.77321   0.79375   0.74999   0.00000  Uiso   1.00
O969   O     0.83333   0.87293   0.68573   0.00000  Uiso   1.00
O970   O     0.83334   0.79374   0.81427   0.00000  Uiso   1.00
O971   O     0.83334   0.87293   0.81427   0.00000  Uiso   1.00
O972   O     0.83333   0.79374   0.68573   0.00000  Uiso   1.00
loop_
_geom_bond_atom_site_label_1
_geom_bond_atom_site_label_2
_geom_bond_distance
_geom_bond_site_symmetry_2
_ccdc_geom_bond_type
Br1    C30     1.945   .     S
Br2    C6      1.947   .     S
Br3    C7      1.941   .     S
Br4    C8      1.941   .     S
C5     O47     1.290   .     A
C5     C23     1.456   .     S
C5     O50     1.290   .     A
C6     C22     1.422   .     A
C6     C62     1.394   .     S
C7     C22     1.421   .     A
C7     C84     1.393   .     S
C8     C23     1.410   .     A
C8     C114    1.394   1_455 S
C9     C20     1.401   .     A
C9     H37     1.083   .     S
C9     C13     1.389   .     A
C10    H38     1.083   .     S
C10    C21     1.401   .     A
C10    C14     1.389   .     A
C11    H39     1.083   .     S
C11    C15     1.395   .     A
C11    C21     1.402   .     A
C12    C17     1.395   .     A
C12    H40     1.083   .     S
C12    C20     1.401   .     A
C13    C18     1.404   .     A
C13    I41     2.115   .     S
C14    I42     2.116   .     S
C14    C19     1.405   .     A
C15    I43     2.124   .     S
C15    C19     1.409   .     A
C16    C22     1.469   .     S
C16    O49     1.293   .     A
C16    O48     1.295   .     A
C17    C18     1.408   .     A
C17    I44     2.123   .     S
C18    C24     1.454   .     S
C19    C25     1.456   .     S
C20    C507    1.470   1_554 S
C21    C506    1.470   .     S
C23    C30     1.409   .     A
C24    O51     1.292   .     A
C24    O54     1.288   .     A
C25    O53     1.289   .     A
C25    O52     1.291   .     A
C26    N46     1.366   .     A
C26    H33     1.081   .     S
C26    C353    1.414   1_545 S
C27    H34     1.081   .     S
C27    N45     1.367   .     A
C27    C190    1.414   .     S
C28    N46     1.366   .     A
C28    H35     1.081   .     S
C28    C351    1.414   1_545 S
C29    H36     1.080   .     S
C29    N45     1.366   .     A
C29    C188    1.414   .     S
C30    C115    1.393   1_455 S
Cu31   Cu32    2.672   .     S
Cu31   O47     1.983   .     S
Cu31   O53     1.951   .     S
Cu31   O49     1.980   .     S
Cu31   N45     2.008   .     S
Cu31   O51     1.956   .     S
Cu32   O48     1.983   .     S
Cu32   O50     1.980   .     S
Cu32   O54     1.951   .     S
Cu32   O52     1.956   .     S
Cu32   N46     2.008   .     S
Br55   C84     1.945   .     S
Br56   C60     1.947   .     S
Br57   C61     1.941   .     S
Br58   C62     1.941   .     S
C59    O101    1.290   .     A
C59    C77     1.456   .     S
C59    O104    1.290   .     A
C60    C76     1.422   .     A
C60    C116    1.394   .     S
C61    C76     1.421   .     A
C61    C138    1.393   .     S
C62    C77     1.410   .     A
C63    C74     1.401   .     A
C63    H91     1.083   .     S
C63    C67     1.389   .     A
C64    H92     1.083   .     S
C64    C75     1.401   .     A
C64    C68     1.389   .     A
C65    H93     1.083   .     S
C65    C69     1.395   .     A
C65    C75     1.402   .     A
C66    C71     1.395   .     A
C66    H94     1.083   .     S
C66    C74     1.401   .     A
C67    C72     1.404   .     A
C67    I95     2.115   .     S
C68    I96     2.116   .     S
C68    C73     1.405   .     A
C69    I97     2.124   .     S
C69    C73     1.409   .     A
C70    C76     1.469   .     S
C70    O103    1.293   .     A
C70    O102    1.295   .     A
C71    C72     1.408   .     A
C71    I98     2.123   .     S
C72    C78     1.454   .     S
C73    C79     1.456   .     S
C74    C561    1.470   1_554 S
C75    C560    1.470   .     S
C77    C84     1.409   .     A
C78    O105    1.292   .     A
C78    O108    1.288   .     A
C79    O107    1.289   .     A
C79    O106    1.291   .     A
C80    N100    1.366   .     A
C80    H87     1.081   .     S
C80    C407    1.414   1_545 S
C81    H88     1.081   .     S
C81    N99     1.367   .     A
C81    C244    1.414   .     S
C82    N100    1.366   .     A
C82    H89     1.081   .     S
C82    C405    1.414   1_545 S
C83    H90     1.080   .     S
C83    N99     1.366   .     A
C83    C242    1.414   .     S
Cu85   Cu86    2.672   .     S
Cu85   O101    1.983   .     S
Cu85   O107    1.951   .     S
Cu85   O103    1.980   .     S
Cu85   N99     2.008   .     S
Cu85   O105    1.956   .     S
Cu86   O102    1.983   .     S
Cu86   O104    1.980   .     S
Cu86   O108    1.951   .     S
Cu86   O106    1.956   .     S
Cu86   N100    2.008   .     S
Br109  C138    1.945   .     S
Br110  C114    1.947   .     S
Br111  C115    1.941   .     S
Br112  C116    1.941   .     S
C113   O155    1.290   .     A
C113   C131    1.456   .     S
C113   O158    1.290   .     A
C114   C130    1.422   .     A
C114   C8      1.394   1_655 S
C115   C130    1.421   .     A
C115   C30     1.393   1_655 S
C116   C131    1.410   .     A
C117   C128    1.401   .     A
C117   H145    1.083   .     S
C117   C121    1.389   .     A
C118   H146    1.083   .     S
C118   C129    1.401   .     A
C118   C122    1.389   .     A
C119   H147    1.083   .     S
C119   C123    1.395   .     A
C119   C129    1.402   .     A
C120   C125    1.395   .     A
C120   H148    1.083   .     S
C120   C128    1.401   .     A
C121   C126    1.404   .     A
C121   I149    2.115   .     S
C122   I150    2.116   .     S
C122   C127    1.405   .     A
C123   I151    2.124   .     S
C123   C127    1.409   .     A
C124   C130    1.469   .     S
C124   O157    1.293   .     A
C124   O156    1.295   .     A
C125   C126    1.408   .     A
C125   I152    2.123   .     S
C126   C132    1.454   .     S
C127   C133    1.456   .     S
C128   C615    1.470   1_554 S
C129   C614    1.470   .     S
C131   C138    1.409   .     A
C132   O159    1.292   .     A
C132   O162    1.288   .     A
C133   O161    1.289   .     A
C133   O160    1.291   .     A
C134   N154    1.366   .     A
C134   H141    1.081   .     S
C134   C461    1.414   1_545 S
C135   H142    1.081   .     S
C135   N153    1.367   .     A
C135   C298    1.414   .     S
C136   N154    1.366   .     A
C136   H143    1.081   .     S
C136   C459    1.414   1_545 S
C137   H144    1.080   .     S
C137   N153    1.366   .     A
C137   C296    1.414   .     S
Cu139  Cu140   2.672   .     S
Cu139  O155    1.983   .     S
Cu139  O161    1.951   .     S
Cu139  O157    1.980   .     S
Cu139  N153    2.008   .     S
Cu139  O159    1.956   .     S
Cu140  O156    1.983   .     S
Cu140  O158    1.980   .     S
Cu140  O162    1.951   .     S
Cu140  O160    1.956   .     S
Cu140  N154    2.008   .     S
Br163  C192    1.945   .     S
Br164  C168    1.947   .     S
Br165  C169    1.941   .     S
Br166  C170    1.941   .     S
C167   O209    1.290   .     A
C167   C185    1.456   .     S
C167   O212    1.290   .     A
C168   C184    1.422   .     A
C168   C224    1.394   .     S
C169   C184    1.421   .     A
C169   C246    1.393   .     S
C170   C185    1.410   .     A
C170   C276    1.394   1_455 S
C171   C182    1.401   .     A
C171   H199    1.083   .     S
C171   C175    1.389   .     A
C172   H200    1.083   .     S
C172   C183    1.401   .     A
C172   C176    1.389   .     A
C173   H201    1.083   .     S
C173   C177    1.395   .     A
C173   C183    1.402   .     A
C174   C179    1.395   .     A
C174   H202    1.083   .     S
C174   C182    1.401   .     A
C175   C180    1.404   .     A
C175   I203    2.115   .     S
C176   I204    2.116   .     S
C176   C181    1.405   .     A
C177   I205    2.124   .     S
C177   C181    1.409   .     A
C178   C184    1.469   .     S
C178   O211    1.293   .     A
C178   O210    1.295   .     A
C179   C180    1.408   .     A
C179   I206    2.123   .     S
C180   C186    1.454   .     S
C181   C187    1.456   .     S
C182   C669    1.470   1_554 S
C183   C668    1.470   .     S
C185   C192    1.409   .     A
C186   O213    1.292   .     A
C186   O216    1.288   .     A
C187   O215    1.289   .     A
C187   O214    1.291   .     A
C188   N208    1.366   .     A
C188   H195    1.081   .     S
C189   H196    1.081   .     S
C189   N207    1.367   .     A
C189   C352    1.414   .     S
C190   N208    1.366   .     A
C190   H197    1.081   .     S
C191   H198    1.080   .     S
C191   N207    1.366   .     A
C191   C350    1.414   .     S
C192   C277    1.393   1_455 S
Cu193  Cu194   2.672   .     S
Cu193  O209    1.983   .     S
Cu193  O215    1.951   .     S
Cu193  O211    1.980   .     S
Cu193  N207    2.008   .     S
Cu193  O213    1.956   .     S
Cu194  O210    1.983   .     S
Cu194  O212    1.980   .     S
Cu194  O216    1.951   .     S
Cu194  O214    1.956   .     S
Cu194  N208    2.008   .     S
Br217  C246    1.945   .     S
Br218  C222    1.947   .     S
Br219  C223    1.941   .     S
Br220  C224    1.941   .     S
C221   O263    1.290   .     A
C221   C239    1.456   .     S
C221   O266    1.290   .     A
C222   C238    1.422   .     A
C222   C278    1.394   .     S
C223   C238    1.421   .     A
C223   C300    1.393   .     S
C224   C239    1.410   .     A
C225   C236    1.401   .     A
C225   H253    1.083   .     S
C225   C229    1.389   .     A
C226   H254    1.083   .     S
C226   C237    1.401   .     A
C226   C230    1.389   .     A
C227   H255    1.083   .     S
C227   C231    1.395   .     A
C227   C237    1.402   .     A
C228   C233    1.395   .     A
C228   H256    1.083   .     S
C228   C236    1.401   .     A
C229   C234    1.404   .     A
C229   I257    2.115   .     S
C230   I258    2.116   .     S
C230   C235    1.405   .     A
C231   I259    2.124   .     S
C231   C235    1.409   .     A
C232   C238    1.469   .     S
C232   O265    1.293   .     A
C232   O264    1.295   .     A
C233   C234    1.408   .     A
C233   I260    2.123   .     S
C234   C240    1.454   .     S
C235   C241    1.456   .     S
C236   C723    1.470   1_554 S
C237   C722    1.470   .     S
C239   C246    1.409   .     A
C240   O267    1.292   .     A
C240   O270    1.288   .     A
C241   O269    1.289   .     A
C241   O268    1.291   .     A
C242   N262    1.366   .     A
C242   H249    1.081   .     S
C243   H250    1.081   .     S
C243   N261    1.367   .     A
C243   C406    1.414   .     S
C244   N262    1.366   .     A
C244   H251    1.081   .     S
C245   H252    1.080   .     S
C245   N261    1.366   .     A
C245   C404    1.414   .     S
Cu247  Cu248   2.672   .     S
Cu247  O263    1.983   .     S
Cu247  O269    1.951   .     S
Cu247  O265    1.980   .     S
Cu247  N261    2.008   .     S
Cu247  O267    1.956   .     S
Cu248  O264    1.983   .     S
Cu248  O266    1.980   .     S
Cu248  O270    1.951   .     S
Cu248  O268    1.956   .     S
Cu248  N262    2.008   .     S
Br271  C300    1.945   .     S
Br272  C276    1.947   .     S
Br273  C277    1.941   .     S
Br274  C278    1.941   .     S
C275   O317    1.290   .     A
C275   C293    1.456   .     S
C275   O320    1.290   .     A
C276   C292    1.422   .     A
C276   C170    1.394   1_655 S
C277   C292    1.421   .     A
C277   C192    1.393   1_655 S
C278   C293    1.410   .     A
C279   C290    1.401   .     A
C279   H307    1.083   .     S
C279   C283    1.389   .     A
C280   H308    1.083   .     S
C280   C291    1.401   .     A
C280   C284    1.389   .     A
C281   H309    1.083   .     S
C281   C285    1.395   .     A
C281   C291    1.402   .     A
C282   C287    1.395   .     A
C282   H310    1.083   .     S
C282   C290    1.401   .     A
C283   C288    1.404   .     A
C283   I311    2.115   .     S
C284   I312    2.116   .     S
C284   C289    1.405   .     A
C285   I313    2.124   .     S
C285   C289    1.409   .     A
C286   C292    1.469   .     S
C286   O319    1.293   .     A
C286   O318    1.295   .     A
C287   C288    1.408   .     A
C287   I314    2.123   .     S
C288   C294    1.454   .     S
C289   C295    1.456   .     S
C290   C777    1.470   1_554 S
C291   C776    1.470   .     S
C293   C300    1.409   .     A
C294   O321    1.292   .     A
C294   O324    1.288   .     A
C295   O323    1.289   .     A
C295   O322    1.291   .     A
C296   N316    1.366   .     A
C296   H303    1.081   .     S
C297   H304    1.081   .     S
C297   N315    1.367   .     A
C297   C460    1.414   .     S
C298   N316    1.366   .     A
C298   H305    1.081   .     S
C299   H306    1.080   .     S
C299   N315    1.366   .     A
C299   C458    1.414   .     S
Cu301  Cu302   2.672   .     S
Cu301  O317    1.983   .     S
Cu301  O323    1.951   .     S
Cu301  O319    1.980   .     S
Cu301  N315    2.008   .     S
Cu301  O321    1.956   .     S
Cu302  O318    1.983   .     S
Cu302  O320    1.980   .     S
Cu302  O324    1.951   .     S
Cu302  O322    1.956   .     S
Cu302  N316    2.008   .     S
Br325  C354    1.945   .     S
Br326  C330    1.947   .     S
Br327  C331    1.941   .     S
Br328  C332    1.941   .     S
C329   O371    1.290   .     A
C329   C347    1.456   .     S
C329   O374    1.290   .     A
C330   C346    1.422   .     A
C330   C386    1.394   .     S
C331   C346    1.421   .     A
C331   C408    1.393   .     S
C332   C347    1.410   .     A
C332   C438    1.394   1_455 S
C333   C344    1.401   .     A
C333   H361    1.083   .     S
C333   C337    1.389   .     A
C334   H362    1.083   .     S
C334   C345    1.401   .     A
C334   C338    1.389   .     A
C335   H363    1.083   .     S
C335   C339    1.395   .     A
C335   C345    1.402   .     A
C336   C341    1.395   .     A
C336   H364    1.083   .     S
C336   C344    1.401   .     A
C337   C342    1.404   .     A
C337   I365    2.115   .     S
C338   I366    2.116   .     S
C338   C343    1.405   .     A
C339   I367    2.124   .     S
C339   C343    1.409   .     A
C340   C346    1.469   .     S
C340   O373    1.293   .     A
C340   O372    1.295   .     A
C341   C342    1.408   .     A
C341   I368    2.123   .     S
C342   C348    1.454   .     S
C343   C349    1.456   .     S
C344   C831    1.470   1_554 S
C345   C830    1.470   .     S
C347   C354    1.409   .     A
C348   O375    1.292   .     A
C348   O378    1.288   .     A
C349   O377    1.289   .     A
C349   O376    1.291   .     A
C350   N370    1.366   .     A
C350   H357    1.081   .     S
C351   H358    1.081   .     S
C351   N369    1.367   .     A
C351   C28     1.414   1_565 S
C352   N370    1.366   .     A
C352   H359    1.081   .     S
C353   H360    1.080   .     S
C353   N369    1.366   .     A
C353   C26     1.414   1_565 S
C354   C439    1.393   1_455 S
Cu355  Cu356   2.672   .     S
Cu355  O371    1.983   .     S
Cu355  O377    1.951   .     S
Cu355  O373    1.980   .     S
Cu355  N369    2.008   .     S
Cu355  O375    1.956   .     S
Cu356  O372    1.983   .     S
Cu356  O374    1.980   .     S
Cu356  O378    1.951   .     S
Cu356  O376    1.956   .     S
Cu356  N370    2.008   .     S
Br379  C408    1.945   .     S
Br380  C384    1.947   .     S
Br381  C385    1.941   .     S
Br382  C386    1.941   .     S
C383   O425    1.290   .     A
C383   C401    1.456   .     S
C383   O428    1.290   .     A
C384   C400    1.422   .     A
C384   C440    1.394   .     S
C385   C400    1.421   .     A
C385   C462    1.393   .     S
C386   C401    1.410   .     A
C387   C398    1.401   .     A
C387   H415    1.083   .     S
C387   C391    1.389   .     A
C388   H416    1.083   .     S
C388   C399    1.401   .     A
C388   C392    1.389   .     A
C389   H417    1.083   .     S
C389   C393    1.395   .     A
C389   C399    1.402   .     A
C390   C395    1.395   .     A
C390   H418    1.083   .     S
C390   C398    1.401   .     A
C391   C396    1.404   .     A
C391   I419    2.115   .     S
C392   I420    2.116   .     S
C392   C397    1.405   .     A
C393   I421    2.124   .     S
C393   C397    1.409   .     A
C394   C400    1.469   .     S
C394   O427    1.293   .     A
C394   O426    1.295   .     A
C395   C396    1.408   .     A
C395   I422    2.123   .     S
C396   C402    1.454   .     S
C397   C403    1.456   .     S
C398   C885    1.470   1_554 S
C399   C884    1.470   .     S
C401   C408    1.409   .     A
C402   O429    1.292   .     A
C402   O432    1.288   .     A
C403   O431    1.289   .     A
C403   O430    1.291   .     A
C404   N424    1.366   .     A
C404   H411    1.081   .     S
C405   H412    1.081   .     S
C405   N423    1.367   .     A
C405   C82     1.414   1_565 S
C406   N424    1.366   .     A
C406   H413    1.081   .     S
C407   H414    1.080   .     S
C407   N423    1.366   .     A
C407   C80     1.414   1_565 S
Cu409  Cu410   2.672   .     S
Cu409  O425    1.983   .     S
Cu409  O431    1.951   .     S
Cu409  O427    1.980   .     S
Cu409  N423    2.008   .     S
Cu409  O429    1.956   .     S
Cu410  O426    1.983   .     S
Cu410  O428    1.980   .     S
Cu410  O432    1.951   .     S
Cu410  O430    1.956   .     S
Cu410  N424    2.008   .     S
Br433  C462    1.945   .     S
Br434  C438    1.947   .     S
Br435  C439    1.941   .     S
Br436  C440    1.941   .     S
C437   O479    1.290   .     A
C437   C455    1.456   .     S
C437   O482    1.290   .     A
C438   C454    1.422   .     A
C438   C332    1.394   1_655 S
C439   C454    1.421   .     A
C439   C354    1.393   1_655 S
C440   C455    1.410   .     A
C441   C452    1.401   .     A
C441   H469    1.083   .     S
C441   C445    1.389   .     A
C442   H470    1.083   .     S
C442   C453    1.401   .     A
C442   C446    1.389   .     A
C443   H471    1.083   .     S
C443   C447    1.395   .     A
C443   C453    1.402   .     A
C444   C449    1.395   .     A
C444   H472    1.083   .     S
C444   C452    1.401   .     A
C445   C450    1.404   .     A
C445   I473    2.115   .     S
C446   I474    2.116   .     S
C446   C451    1.405   .     A
C447   I475    2.124   .     S
C447   C451    1.409   .     A
C448   C454    1.469   .     S
C448   O481    1.293   .     A
C448   O480    1.295   .     A
C449   C450    1.408   .     A
C449   I476    2.123   .     S
C450   C456    1.454   .     S
C451   C457    1.456   .     S
C452   C939    1.470   1_554 S
C453   C938    1.470   .     S
C455   C462    1.409   .     A
C456   O483    1.292   .     A
C456   O486    1.288   .     A
C457   O485    1.289   .     A
C457   O484    1.291   .     A
C458   N478    1.366   .     A
C458   H465    1.081   .     S
C459   H466    1.081   .     S
C459   N477    1.367   .     A
C459   C136    1.414   1_565 S
C460   N478    1.366   .     A
C460   H467    1.081   .     S
C461   H468    1.080   .     S
C461   N477    1.366   .     A
C461   C134    1.414   1_565 S
Cu463  Cu464   2.672   .     S
Cu463  O479    1.983   .     S
Cu463  O485    1.951   .     S
Cu463  O481    1.980   .     S
Cu463  N477    2.008   .     S
Cu463  O483    1.956   .     S
Cu464  O480    1.983   .     S
Cu464  O482    1.980   .     S
Cu464  O486    1.951   .     S
Cu464  O484    1.956   .     S
Cu464  N478    2.008   .     S
Br487  C516    1.945   .     S
Br488  C492    1.947   .     S
Br489  C493    1.941   .     S
Br490  C494    1.941   .     S
C491   O533    1.290   .     A
C491   C509    1.456   .     S
C491   O536    1.290   .     A
C492   C508    1.422   .     A
C492   C548    1.394   .     S
C493   C508    1.421   .     A
C493   C570    1.393   .     S
C494   C509    1.410   .     A
C494   C600    1.394   1_455 S
C495   C506    1.401   .     A
C495   H523    1.083   .     S
C495   C499    1.389   .     A
C496   H524    1.083   .     S
C496   C507    1.401   .     A
C496   C500    1.389   .     A
C497   H525    1.083   .     S
C497   C501    1.395   .     A
C497   C507    1.402   .     A
C498   C503    1.395   .     A
C498   H526    1.083   .     S
C498   C506    1.401   .     A
C499   C504    1.404   .     A
C499   I527    2.115   .     S
C500   I528    2.116   .     S
C500   C505    1.405   .     A
C501   I529    2.124   .     S
C501   C505    1.409   .     A
C502   C508    1.469   .     S
C502   O535    1.293   .     A
C502   O534    1.295   .     A
C503   C504    1.408   .     A
C503   I530    2.123   .     S
C504   C510    1.454   .     S
C505   C511    1.456   .     S
C507   C20     1.470   1_556 S
C509   C516    1.409   .     A
C510   O537    1.292   .     A
C510   O540    1.288   .     A
C511   O539    1.289   .     A
C511   O538    1.291   .     A
C512   N532    1.366   .     A
C512   H519    1.081   .     S
C512   C839    1.414   1_545 S
C513   H520    1.081   .     S
C513   N531    1.367   .     A
C513   C676    1.414   .     S
C514   N532    1.366   .     A
C514   H521    1.081   .     S
C514   C837    1.414   1_545 S
C515   H522    1.080   .     S
C515   N531    1.366   .     A
C515   C674    1.414   .     S
C516   C601    1.393   1_455 S
Cu517  Cu518   2.672   .     S
Cu517  O533    1.983   .     S
Cu517  O539    1.951   .     S
Cu517  O535    1.980   .     S
Cu517  N531    2.008   .     S
Cu517  O537    1.956   .     S
Cu518  O534    1.983   .     S
Cu518  O536    1.980   .     S
Cu518  O540    1.951   .     S
Cu518  O538    1.956   .     S
Cu518  N532    2.008   .     S
Br541  C570    1.945   .     S
Br542  C546    1.947   .     S
Br543  C547    1.941   .     S
Br544  C548    1.941   .     S
C545   O587    1.290   .     A
C545   C563    1.456   .     S
C545   O590    1.290   .     A
C546   C562    1.422   .     A
C546   C602    1.394   .     S
C547   C562    1.421   .     A
C547   C624    1.393   .     S
C548   C563    1.410   .     A
C549   C560    1.401   .     A
C549   H577    1.083   .     S
C549   C553    1.389   .     A
C550   H578    1.083   .     S
C550   C561    1.401   .     A
C550   C554    1.389   .     A
C551   H579    1.083   .     S
C551   C555    1.395   .     A
C551   C561    1.402   .     A
C552   C557    1.395   .     A
C552   H580    1.083   .     S
C552   C560    1.401   .     A
C553   C558    1.404   .     A
C553   I581    2.115   .     S
C554   I582    2.116   .     S
C554   C559    1.405   .     A
C555   I583    2.124   .     S
C555   C559    1.409   .     A
C556   C562    1.469   .     S
C556   O589    1.293   .     A
C556   O588    1.295   .     A
C557   C558    1.408   .     A
C557   I584    2.123   .     S
C558   C564    1.454   .     S
C559   C565    1.456   .     S
C561   C74     1.470   1_556 S
C563   C570    1.409   .     A
C564   O591    1.292   .     A
C564   O594    1.288   .     A
C565   O593    1.289   .     A
C565   O592    1.291   .     A
C566   N586    1.366   .     A
C566   H573    1.081   .     S
C566   C893    1.414   1_545 S
C567   H574    1.081   .     S
C567   N585    1.367   .     A
C567   C730    1.414   .     S
C568   N586    1.366   .     A
C568   H575    1.081   .     S
C568   C891    1.414   1_545 S
C569   H576    1.080   .     S
C569   N585    1.366   .     A
C569   C728    1.414   .     S
Cu571  Cu572   2.672   .     S
Cu571  O587    1.983   .     S
Cu571  O593    1.951   .     S
Cu571  O589    1.980   .     S
Cu571  N585    2.008   .     S
Cu571  O591    1.956   .     S
Cu572  O588    1.983   .     S
Cu572  O590    1.980   .     S
Cu572  O594    1.951   .     S
Cu572  O592    1.956   .     S
Cu572  N586    2.008   .     S
Br595  C624    1.945   .     S
Br596  C600    1.947   .     S
Br597  C601    1.941   .     S
Br598  C602    1.941   .     S
C599   O641    1.290   .     A
C599   C617    1.456   .     S
C599   O644    1.290   .     A
C600   C616    1.422   .     A
C600   C494    1.394   1_655 S
C601   C616    1.421   .     A
C601   C516    1.393   1_655 S
C602   C617    1.410   .     A
C603   C614    1.401   .     A
C603   H631    1.083   .     S
C603   C607    1.389   .     A
C604   H632    1.083   .     S
C604   C615    1.401   .     A
C604   C608    1.389   .     A
C605   H633    1.083   .     S
C605   C609    1.395   .     A
C605   C615    1.402   .     A
C606   C611    1.395   .     A
C606   H634    1.083   .     S
C606   C614    1.401   .     A
C607   C612    1.404   .     A
C607   I635    2.115   .     S
C608   I636    2.116   .     S
C608   C613    1.405   .     A
C609   I637    2.124   .     S
C609   C613    1.409   .     A
C610   C616    1.469   .     S
C610   O643    1.293   .     A
C610   O642    1.295   .     A
C611   C612    1.408   .     A
C611   I638    2.123   .     S
C612   C618    1.454   .     S
C613   C619    1.456   .     S
C615   C128    1.470   1_556 S
C617   C624    1.409   .     A
C618   O645    1.292   .     A
C618   O648    1.288   .     A
C619   O647    1.289   .     A
C619   O646    1.291   .     A
C620   N640    1.366   .     A
C620   H627    1.081   .     S
C620   C947    1.414   1_545 S
C621   H628    1.081   .     S
C621   N639    1.367   .     A
C621   C784    1.414   .     S
C622   N640    1.366   .     A
C622   H629    1.081   .     S
C622   C945    1.414   1_545 S
C623   H630    1.080   .     S
C623   N639    1.366   .     A
C623   C782    1.414   .     S
Cu625  Cu626   2.672   .     S
Cu625  O641    1.983   .     S
Cu625  O647    1.951   .     S
Cu625  O643    1.980   .     S
Cu625  N639    2.008   .     S
Cu625  O645    1.956   .     S
Cu626  O642    1.983   .     S
Cu626  O644    1.980   .     S
Cu626  O648    1.951   .     S
Cu626  O646    1.956   .     S
Cu626  N640    2.008   .     S
Br649  C678    1.945   .     S
Br650  C654    1.947   .     S
Br651  C655    1.941   .     S
Br652  C656    1.941   .     S
C653   O695    1.290   .     A
C653   C671    1.456   .     S
C653   O698    1.290   .     A
C654   C670    1.422   .     A
C654   C710    1.394   .     S
C655   C670    1.421   .     A
C655   C732    1.393   .     S
C656   C671    1.410   .     A
C656   C762    1.394   1_455 S
C657   C668    1.401   .     A
C657   H685    1.083   .     S
C657   C661    1.389   .     A
C658   H686    1.083   .     S
C658   C669    1.401   .     A
C658   C662    1.389   .     A
C659   H687    1.083   .     S
C659   C663    1.395   .     A
C659   C669    1.402   .     A
C660   C665    1.395   .     A
C660   H688    1.083   .     S
C660   C668    1.401   .     A
C661   C666    1.404   .     A
C661   I689    2.115   .     S
C662   I690    2.116   .     S
C662   C667    1.405   .     A
C663   I691    2.124   .     S
C663   C667    1.409   .     A
C664   C670    1.469   .     S
C664   O697    1.293   .     A
C664   O696    1.295   .     A
C665   C666    1.408   .     A
C665   I692    2.123   .     S
C666   C672    1.454   .     S
C667   C673    1.456   .     S
C669   C182    1.470   1_556 S
C671   C678    1.409   .     A
C672   O699    1.292   .     A
C672   O702    1.288   .     A
C673   O701    1.289   .     A
C673   O700    1.291   .     A
C674   N694    1.366   .     A
C674   H681    1.081   .     S
C675   H682    1.081   .     S
C675   N693    1.367   .     A
C675   C838    1.414   .     S
C676   N694    1.366   .     A
C676   H683    1.081   .     S
C677   H684    1.080   .     S
C677   N693    1.366   .     A
C677   C836    1.414   .     S
C678   C763    1.393   1_455 S
Cu679  Cu680   2.672   .     S
Cu679  O695    1.983   .     S
Cu679  O701    1.951   .     S
Cu679  O697    1.980   .     S
Cu679  N693    2.008   .     S
Cu679  O699    1.956   .     S
Cu680  O696    1.983   .     S
Cu680  O698    1.980   .     S
Cu680  O702    1.951   .     S
Cu680  O700    1.956   .     S
Cu680  N694    2.008   .     S
Br703  C732    1.945   .     S
Br704  C708    1.947   .     S
Br705  C709    1.941   .     S
Br706  C710    1.941   .     S
C707   O749    1.290   .     A
C707   C725    1.456   .     S
C707   O752    1.290   .     A
C708   C724    1.422   .     A
C708   C764    1.394   .     S
C709   C724    1.421   .     A
C709   C786    1.393   .     S
C710   C725    1.410   .     A
C711   C722    1.401   .     A
C711   H739    1.083   .     S
C711   C715    1.389   .     A
C712   H740    1.083   .     S
C712   C723    1.401   .     A
C712   C716    1.389   .     A
C713   H741    1.083   .     S
C713   C717    1.395   .     A
C713   C723    1.402   .     A
C714   C719    1.395   .     A
C714   H742    1.083   .     S
C714   C722    1.401   .     A
C715   C720    1.404   .     A
C715   I743    2.115   .     S
C716   I744    2.116   .     S
C716   C721    1.405   .     A
C717   I745    2.124   .     S
C717   C721    1.409   .     A
C718   C724    1.469   .     S
C718   O751    1.293   .     A
C718   O750    1.295   .     A
C719   C720    1.408   .     A
C719   I746    2.123   .     S
C720   C726    1.454   .     S
C721   C727    1.456   .     S
C723   C236    1.470   1_556 S
C725   C732    1.409   .     A
C726   O753    1.292   .     A
C726   O756    1.288   .     A
C727   O755    1.289   .     A
C727   O754    1.291   .     A
C728   N748    1.366   .     A
C728   H735    1.081   .     S
C729   H736    1.081   .     S
C729   N747    1.367   .     A
C729   C892    1.414   .     S
C730   N748    1.366   .     A
C730   H737    1.081   .     S
C731   H738    1.080   .     S
C731   N747    1.366   .     A
C731   C890    1.414   .     S
Cu733  Cu734   2.672   .     S
Cu733  O749    1.983   .     S
Cu733  O755    1.951   .     S
Cu733  O751    1.980   .     S
Cu733  N747    2.008   .     S
Cu733  O753    1.956   .     S
Cu734  O750    1.983   .     S
Cu734  O752    1.980   .     S
Cu734  O756    1.951   .     S
Cu734  O754    1.956   .     S
Cu734  N748    2.008   .     S
Br757  C786    1.945   .     S
Br758  C762    1.947   .     S
Br759  C763    1.941   .     S
Br760  C764    1.941   .     S
C761   O803    1.290   .     A
C761   C779    1.456   .     S
C761   O806    1.290   .     A
C762   C778    1.422   .     A
C762   C656    1.394   1_655 S
C763   C778    1.421   .     A
C763   C678    1.393   1_655 S
C764   C779    1.410   .     A
C765   C776    1.401   .     A
C765   H793    1.083   .     S
C765   C769    1.389   .     A
C766   H794    1.083   .     S
C766   C777    1.401   .     A
C766   C770    1.389   .     A
C767   H795    1.083   .     S
C767   C771    1.395   .     A
C767   C777    1.402   .     A
C768   C773    1.395   .     A
C768   H796    1.083   .     S
C768   C776    1.401   .     A
C769   C774    1.404   .     A
C769   I797    2.115   .     S
C770   I798    2.116   .     S
C770   C775    1.405   .     A
C771   I799    2.124   .     S
C771   C775    1.409   .     A
C772   C778    1.469   .     S
C772   O805    1.293   .     A
C772   O804    1.295   .     A
C773   C774    1.408   .     A
C773   I800    2.123   .     S
C774   C780    1.454   .     S
C775   C781    1.456   .     S
C777   C290    1.470   1_556 S
C779   C786    1.409   .     A
C780   O807    1.292   .     A
C780   O810    1.288   .     A
C781   O809    1.289   .     A
C781   O808    1.291   .     A
C782   N802    1.366   .     A
C782   H789    1.081   .     S
C783   H790    1.081   .     S
C783   N801    1.367   .     A
C783   C946    1.414   .     S
C784   N802    1.366   .     A
C784   H791    1.081   .     S
C785   H792    1.080   .     S
C785   N801    1.366   .     A
C785   C944    1.414   .     S
Cu787  Cu788   2.672   .     S
Cu787  O803    1.983   .     S
Cu787  O809    1.951   .     S
Cu787  O805    1.980   .     S
Cu787  N801    2.008   .     S
Cu787  O807    1.956   .     S
Cu788  O804    1.983   .     S
Cu788  O806    1.980   .     S
Cu788  O810    1.951   .     S
Cu788  O808    1.956   .     S
Cu788  N802    2.008   .     S
Br811  C840    1.945   .     S
Br812  C816    1.947   .     S
Br813  C817    1.941   .     S
Br814  C818    1.941   .     S
C815   O857    1.290   .     A
C815   C833    1.456   .     S
C815   O860    1.290   .     A
C816   C832    1.422   .     A
C816   C872    1.394   .     S
C817   C832    1.421   .     A
C817   C894    1.393   .     S
C818   C833    1.410   .     A
C818   C924    1.394   1_455 S
C819   C830    1.401   .     A
C819   H847    1.083   .     S
C819   C823    1.389   .     A
C820   H848    1.083   .     S
C820   C831    1.401   .     A
C820   C824    1.389   .     A
C821   H849    1.083   .     S
C821   C825    1.395   .     A
C821   C831    1.402   .     A
C822   C827    1.395   .     A
C822   H850    1.083   .     S
C822   C830    1.401   .     A
C823   C828    1.404   .     A
C823   I851    2.115   .     S
C824   I852    2.116   .     S
C824   C829    1.405   .     A
C825   I853    2.124   .     S
C825   C829    1.409   .     A
C826   C832    1.469   .     S
C826   O859    1.293   .     A
C826   O858    1.295   .     A
C827   C828    1.408   .     A
C827   I854    2.123   .     S
C828   C834    1.454   .     S
C829   C835    1.456   .     S
C831   C344    1.470   1_556 S
C833   C840    1.409   .     A
C834   O861    1.292   .     A
C834   O864    1.288   .     A
C835   O863    1.289   .     A
C835   O862    1.291   .     A
C836   N856    1.366   .     A
C836   H843    1.081   .     S
C837   H844    1.081   .     S
C837   N855    1.367   .     A
C837   C514    1.414   1_565 S
C838   N856    1.366   .     A
C838   H845    1.081   .     S
C839   H846    1.080   .     S
C839   N855    1.366   .     A
C839   C512    1.414   1_565 S
C840   C925    1.393   1_455 S
Cu841  Cu842   2.672   .     S
Cu841  O857    1.983   .     S
Cu841  O863    1.951   .     S
Cu841  O859    1.980   .     S
Cu841  N855    2.008   .     S
Cu841  O861    1.956   .     S
Cu842  O858    1.983   .     S
Cu842  O860    1.980   .     S
Cu842  O864    1.951   .     S
Cu842  O862    1.956   .     S
Cu842  N856    2.008   .     S
Br865  C894    1.945   .     S
Br866  C870    1.947   .     S
Br867  C871    1.941   .     S
Br868  C872    1.941   .     S
C869   O911    1.290   .     A
C869   C887    1.456   .     S
C869   O914    1.290   .     A
C870   C886    1.422   .     A
C870   C926    1.394   .     S
C871   C886    1.421   .     A
C871   C948    1.393   .     S
C872   C887    1.410   .     A
C873   C884    1.401   .     A
C873   H901    1.083   .     S
C873   C877    1.389   .     A
C874   H902    1.083   .     S
C874   C885    1.401   .     A
C874   C878    1.389   .     A
C875   H903    1.083   .     S
C875   C879    1.395   .     A
C875   C885    1.402   .     A
C876   C881    1.395   .     A
C876   H904    1.083   .     S
C876   C884    1.401   .     A
C877   C882    1.404   .     A
C877   I905    2.115   .     S
C878   I906    2.116   .     S
C878   C883    1.405   .     A
C879   I907    2.124   .     S
C879   C883    1.409   .     A
C880   C886    1.469   .     S
C880   O913    1.293   .     A
C880   O912    1.295   .     A
C881   C882    1.408   .     A
C881   I908    2.123   .     S
C882   C888    1.454   .     S
C883   C889    1.456   .     S
C885   C398    1.470   1_556 S
C887   C894    1.409   .     A
C888   O915    1.292   .     A
C888   O918    1.288   .     A
C889   O917    1.289   .     A
C889   O916    1.291   .     A
C890   N910    1.366   .     A
C890   H897    1.081   .     S
C891   H898    1.081   .     S
C891   N909    1.367   .     A
C891   C568    1.414   1_565 S
C892   N910    1.366   .     A
C892   H899    1.081   .     S
C893   H900    1.080   .     S
C893   N909    1.366   .     A
C893   C566    1.414   1_565 S
Cu895  Cu896   2.672   .     S
Cu895  O911    1.983   .     S
Cu895  O917    1.951   .     S
Cu895  O913    1.980   .     S
Cu895  N909    2.008   .     S
Cu895  O915    1.956   .     S
Cu896  O912    1.983   .     S
Cu896  O914    1.980   .     S
Cu896  O918    1.951   .     S
Cu896  O916    1.956   .     S
Cu896  N910    2.008   .     S
Br919  C948    1.945   .     S
Br920  C924    1.947   .     S
Br921  C925    1.941   .     S
Br922  C926    1.941   .     S
C923   O965    1.290   .     A
C923   C941    1.456   .     S
C923   O968    1.290   .     A
C924   C940    1.422   .     A
C924   C818    1.394   1_655 S
C925   C940    1.421   .     A
C925   C840    1.393   1_655 S
C926   C941    1.410   .     A
C927   C938    1.401   .     A
C927   H955    1.083   .     S
C927   C931    1.389   .     A
C928   H956    1.083   .     S
C928   C939    1.401   .     A
C928   C932    1.389   .     A
C929   H957    1.083   .     S
C929   C933    1.395   .     A
C929   C939    1.402   .     A
C930   C935    1.395   .     A
C930   H958    1.083   .     S
C930   C938    1.401   .     A
C931   C936    1.404   .     A
C931   I959    2.115   .     S
C932   I960    2.116   .     S
C932   C937    1.405   .     A
C933   I961    2.124   .     S
C933   C937    1.409   .     A
C934   C940    1.469   .     S
C934   O967    1.293   .     A
C934   O966    1.295   .     A
C935   C936    1.408   .     A
C935   I962    2.123   .     S
C936   C942    1.454   .     S
C937   C943    1.456   .     S
C939   C452    1.470   1_556 S
C941   C948    1.409   .     A
C942   O969    1.292   .     A
C942   O972    1.288   .     A
C943   O971    1.289   .     A
C943   O970    1.291   .     A
C944   N964    1.366   .     A
C944   H951    1.081   .     S
C945   H952    1.081   .     S
C945   N963    1.367   .     A
C945   C622    1.414   1_565 S
C946   N964    1.366   .     A
C946   H953    1.081   .     S
C947   H954    1.080   .     S
C947   N963    1.366   .     A
C947   C620    1.414   1_565 S
Cu949  Cu950   2.672   .     S
Cu949  O965    1.983   .     S
Cu949  O971    1.951   .     S
Cu949  O967    1.980   .     S
Cu949  N963    2.008   .     S
Cu949  O969    1.956   .     S
Cu950  O966    1.983   .     S
Cu950  O968    1.980   .     S
Cu950  O972    1.951   .     S
Cu950  O970    1.956   .     S
Cu950  N964    2.008   .     S
