data_str_m2_o1_o2_pcu_sym.106
_audit_creation_date              2020-01-03
_audit_creation_method            'Materials Studio'
_symmetry_space_group_name_H-M    'P1'
_symmetry_Int_Tables_number       1
_symmetry_cell_setting            triclinic
loop_
_symmetry_equiv_pos_as_xyz
  x,y,z
_cell_length_a                    32.8964
_cell_length_b                    28.9572
_cell_length_c                    30.3078
_cell_angle_alpha                 89.9983
_cell_angle_beta                  95.3331
_cell_angle_gamma                 89.9999
loop_
_atom_site_label
_atom_site_type_symbol
_atom_site_fract_x
_atom_site_fract_y
_atom_site_fract_z
_atom_site_U_iso_or_equiv
_atom_site_adp_type
_atom_site_occupancy
C1     C     0.08762   0.16667   0.25169   0.00000  Uiso   1.00
C2     C     0.24571   0.16667   0.24831   0.00000  Uiso   1.00
C3     C     0.17100   0.16667   0.16575   0.00000  Uiso   1.00
C4     C     0.16233   0.16667   0.33425   0.00000  Uiso   1.00
C5     C     0.14056   0.02470   0.22045   0.00000  Uiso   1.00
C6     C     0.19277   0.30863   0.27955   0.00000  Uiso   1.00
C7     C     0.19277   0.02470   0.27955   0.00000  Uiso   1.00
C8     C     0.14056   0.30864   0.22045   0.00000  Uiso   1.00
C9     C     0.02135   0.12445   0.25287   0.00000  Uiso   1.00
C10    C     0.31199   0.20888   0.24713   0.00000  Uiso   1.00
C11    C     0.31198   0.12445   0.24713   0.00000  Uiso   1.00
C12    C     0.02135   0.20888   0.25288   0.00000  Uiso   1.00
C13    C     0.17705   0.20815   0.04866   0.00000  Uiso   1.00
C14    C     0.15629   0.12518   0.45134   0.00000  Uiso   1.00
C15    C     0.15627   0.20815   0.45133   0.00000  Uiso   1.00
C16    C     0.17706   0.12518   0.04867   0.00000  Uiso   1.00
C17    C     0.18169   0.20821   0.09476   0.00000  Uiso   1.00
C18    C     0.15164   0.12512   0.40524   0.00000  Uiso   1.00
C19    C     0.15163   0.20821   0.40523   0.00000  Uiso   1.00
C20    C     0.18171   0.12513   0.09477   0.00000  Uiso   1.00
C21    C     0.17792   0.16667   0.11818   0.00000  Uiso   1.00
C22    C     0.15542   0.16666   0.38182   0.00000  Uiso   1.00
C23    C     0.17090   0.16667   0.02472   0.00000  Uiso   1.00
C24    C     0.16243   0.16667   0.47528   0.00000  Uiso   1.00
C25    C     0.29039   0.16667   0.24685   0.00000  Uiso   1.00
C26    C     0.04294   0.16667   0.25315   0.00000  Uiso   1.00
Cu27   Cu    0.16667   0.21355   0.25000   0.00000  Uiso   1.00
Cu28   Cu    0.16667   0.11978   0.25000   0.00000  Uiso   1.00
H29    H     0.18034   0.24086   0.03245   0.00000  Uiso   1.00
H30    H     0.15299   0.09247   0.46755   0.00000  Uiso   1.00
H31    H     0.15296   0.24085   0.46754   0.00000  Uiso   1.00
H32    H     0.18037   0.09248   0.03246   0.00000  Uiso   1.00
N33    N     0.16667   0.28402   0.25000   0.00000  Uiso   1.00
N34    N     0.16667   0.04931   0.25000   0.00000  Uiso   1.00
O35    O     0.10655   0.20625   0.24999   0.00000  Uiso   1.00
O36    O     0.22679   0.12709   0.25001   0.00000  Uiso   1.00
O37    O     0.22679   0.20625   0.25000   0.00000  Uiso   1.00
O38    O     0.10655   0.12709   0.24999   0.00000  Uiso   1.00
O39    O     0.16666   0.20626   0.18573   0.00000  Uiso   1.00
O40    O     0.16667   0.12707   0.31427   0.00000  Uiso   1.00
O41    O     0.16667   0.20626   0.31427   0.00000  Uiso   1.00
O42    O     0.16666   0.12707   0.18573   0.00000  Uiso   1.00
I43    I     0.09891   0.05957   0.17268   0.00000  Uiso   1.00
I44    I     0.23442   0.27377   0.32732   0.00000  Uiso   1.00
I45    I     0.23443   0.05956   0.32732   0.00000  Uiso   1.00
I46    I     0.09891   0.27377   0.17268   0.00000  Uiso   1.00
I47    I     0.20603   0.26953   0.12474   0.00000  Uiso   1.00
I48    I     0.12731   0.06380   0.37526   0.00000  Uiso   1.00
I49    I     0.12727   0.26951   0.37525   0.00000  Uiso   1.00
I50    I     0.20606   0.06382   0.12475   0.00000  Uiso   1.00
N51    N     0.04263   0.08148   0.26092   0.00000  Uiso   1.00
H52    H     0.03393   0.05827   0.23542   0.00000  Uiso   1.00
H53    H     0.03453   0.06763   0.29073   0.00000  Uiso   1.00
N54    N     0.29070   0.25185   0.23908   0.00000  Uiso   1.00
H55    H     0.29941   0.27507   0.26458   0.00000  Uiso   1.00
H56    H     0.29880   0.26571   0.20927   0.00000  Uiso   1.00
N57    N     0.29070   0.08148   0.23906   0.00000  Uiso   1.00
H58    H     0.29941   0.05826   0.26456   0.00000  Uiso   1.00
H59    H     0.29880   0.06764   0.20925   0.00000  Uiso   1.00
N60    N     0.04263   0.25185   0.26094   0.00000  Uiso   1.00
H61    H     0.03393   0.27507   0.23544   0.00000  Uiso   1.00
H62    H     0.03453   0.26570   0.29075   0.00000  Uiso   1.00
C63    C     0.42095   0.16667   0.25169   0.00000  Uiso   1.00
C64    C     0.57905   0.16667   0.24831   0.00000  Uiso   1.00
C65    C     0.50434   0.16667   0.16575   0.00000  Uiso   1.00
C66    C     0.49566   0.16667   0.33425   0.00000  Uiso   1.00
C67    C     0.47390   0.02470   0.22045   0.00000  Uiso   1.00
C68    C     0.52610   0.30863   0.27955   0.00000  Uiso   1.00
C69    C     0.52610   0.02470   0.27955   0.00000  Uiso   1.00
C70    C     0.47390   0.30864   0.22045   0.00000  Uiso   1.00
C71    C     0.35468   0.12445   0.25287   0.00000  Uiso   1.00
C72    C     0.64532   0.20888   0.24713   0.00000  Uiso   1.00
C73    C     0.64532   0.12445   0.24713   0.00000  Uiso   1.00
C74    C     0.35468   0.20888   0.25288   0.00000  Uiso   1.00
C75    C     0.51038   0.20815   0.04866   0.00000  Uiso   1.00
C76    C     0.48962   0.12518   0.45134   0.00000  Uiso   1.00
C77    C     0.48961   0.20815   0.45133   0.00000  Uiso   1.00
C78    C     0.51039   0.12518   0.04867   0.00000  Uiso   1.00
C79    C     0.51502   0.20821   0.09476   0.00000  Uiso   1.00
C80    C     0.48497   0.12512   0.40524   0.00000  Uiso   1.00
C81    C     0.48496   0.20821   0.40523   0.00000  Uiso   1.00
C82    C     0.51504   0.12513   0.09477   0.00000  Uiso   1.00
C83    C     0.51125   0.16667   0.11818   0.00000  Uiso   1.00
C84    C     0.48875   0.16666   0.38182   0.00000  Uiso   1.00
C85    C     0.50423   0.16667   0.02472   0.00000  Uiso   1.00
C86    C     0.49577   0.16667   0.47528   0.00000  Uiso   1.00
C87    C     0.62372   0.16667   0.24685   0.00000  Uiso   1.00
C88    C     0.37628   0.16667   0.25315   0.00000  Uiso   1.00
Cu89   Cu    0.50000   0.21355   0.25000   0.00000  Uiso   1.00
Cu90   Cu    0.50000   0.11978   0.25000   0.00000  Uiso   1.00
H91    H     0.51368   0.24086   0.03245   0.00000  Uiso   1.00
H92    H     0.48632   0.09247   0.46755   0.00000  Uiso   1.00
H93    H     0.48630   0.24085   0.46754   0.00000  Uiso   1.00
H94    H     0.51370   0.09248   0.03246   0.00000  Uiso   1.00
N95    N     0.50000   0.28402   0.25000   0.00000  Uiso   1.00
N96    N     0.50000   0.04931   0.25000   0.00000  Uiso   1.00
O97    O     0.43988   0.20625   0.24999   0.00000  Uiso   1.00
O98    O     0.56012   0.12709   0.25001   0.00000  Uiso   1.00
O99    O     0.56012   0.20625   0.25000   0.00000  Uiso   1.00
O100   O     0.43988   0.12709   0.24999   0.00000  Uiso   1.00
O101   O     0.50000   0.20626   0.18573   0.00000  Uiso   1.00
O102   O     0.50000   0.12707   0.31427   0.00000  Uiso   1.00
O103   O     0.50000   0.20626   0.31427   0.00000  Uiso   1.00
O104   O     0.50000   0.12707   0.18573   0.00000  Uiso   1.00
I105   I     0.43225   0.05957   0.17268   0.00000  Uiso   1.00
I106   I     0.56775   0.27377   0.32732   0.00000  Uiso   1.00
I107   I     0.56776   0.05956   0.32732   0.00000  Uiso   1.00
I108   I     0.43224   0.27377   0.17268   0.00000  Uiso   1.00
I109   I     0.53936   0.26953   0.12474   0.00000  Uiso   1.00
I110   I     0.46064   0.06380   0.37526   0.00000  Uiso   1.00
I111   I     0.46060   0.26951   0.37525   0.00000  Uiso   1.00
I112   I     0.53940   0.06382   0.12475   0.00000  Uiso   1.00
N113   N     0.37597   0.08148   0.26092   0.00000  Uiso   1.00
H114   H     0.36726   0.05827   0.23542   0.00000  Uiso   1.00
H115   H     0.36787   0.06763   0.29073   0.00000  Uiso   1.00
N116   N     0.62403   0.25185   0.23908   0.00000  Uiso   1.00
H117   H     0.63274   0.27507   0.26458   0.00000  Uiso   1.00
H118   H     0.63213   0.26571   0.20927   0.00000  Uiso   1.00
N119   N     0.62403   0.08148   0.23906   0.00000  Uiso   1.00
H120   H     0.63274   0.05826   0.26456   0.00000  Uiso   1.00
H121   H     0.63213   0.06764   0.20925   0.00000  Uiso   1.00
N122   N     0.37597   0.25185   0.26094   0.00000  Uiso   1.00
H123   H     0.36726   0.27507   0.23544   0.00000  Uiso   1.00
H124   H     0.36787   0.26570   0.29075   0.00000  Uiso   1.00
C125   C     0.75429   0.16667   0.25169   0.00000  Uiso   1.00
C126   C     0.91238   0.16667   0.24831   0.00000  Uiso   1.00
C127   C     0.83767   0.16667   0.16575   0.00000  Uiso   1.00
C128   C     0.82900   0.16667   0.33425   0.00000  Uiso   1.00
C129   C     0.80723   0.02470   0.22045   0.00000  Uiso   1.00
C130   C     0.85944   0.30863   0.27955   0.00000  Uiso   1.00
C131   C     0.85944   0.02470   0.27955   0.00000  Uiso   1.00
C132   C     0.80723   0.30864   0.22045   0.00000  Uiso   1.00
C133   C     0.68801   0.12445   0.25287   0.00000  Uiso   1.00
C134   C     0.97865   0.20888   0.24713   0.00000  Uiso   1.00
C135   C     0.97865   0.12445   0.24713   0.00000  Uiso   1.00
C136   C     0.68802   0.20888   0.25288   0.00000  Uiso   1.00
C137   C     0.84371   0.20815   0.04866   0.00000  Uiso   1.00
C138   C     0.82295   0.12518   0.45134   0.00000  Uiso   1.00
C139   C     0.82294   0.20815   0.45133   0.00000  Uiso   1.00
C140   C     0.84373   0.12518   0.04867   0.00000  Uiso   1.00
C141   C     0.84836   0.20821   0.09476   0.00000  Uiso   1.00
C142   C     0.81831   0.12512   0.40524   0.00000  Uiso   1.00
C143   C     0.81829   0.20821   0.40523   0.00000  Uiso   1.00
C144   C     0.84837   0.12513   0.09477   0.00000  Uiso   1.00
C145   C     0.84458   0.16667   0.11818   0.00000  Uiso   1.00
C146   C     0.82208   0.16666   0.38182   0.00000  Uiso   1.00
C147   C     0.83757   0.16667   0.02472   0.00000  Uiso   1.00
C148   C     0.82910   0.16667   0.47528   0.00000  Uiso   1.00
C149   C     0.95706   0.16667   0.24685   0.00000  Uiso   1.00
C150   C     0.70961   0.16667   0.25315   0.00000  Uiso   1.00
Cu151  Cu    0.83333   0.21355   0.25000   0.00000  Uiso   1.00
Cu152  Cu    0.83333   0.11978   0.25000   0.00000  Uiso   1.00
H153   H     0.84701   0.24086   0.03245   0.00000  Uiso   1.00
H154   H     0.81966   0.09247   0.46755   0.00000  Uiso   1.00
H155   H     0.81963   0.24085   0.46754   0.00000  Uiso   1.00
H156   H     0.84703   0.09248   0.03246   0.00000  Uiso   1.00
N157   N     0.83333   0.28402   0.25000   0.00000  Uiso   1.00
N158   N     0.83333   0.04931   0.25000   0.00000  Uiso   1.00
O159   O     0.77321   0.20625   0.24999   0.00000  Uiso   1.00
O160   O     0.89345   0.12709   0.25001   0.00000  Uiso   1.00
O161   O     0.89345   0.20625   0.25000   0.00000  Uiso   1.00
O162   O     0.77321   0.12709   0.24999   0.00000  Uiso   1.00
O163   O     0.83333   0.20626   0.18573   0.00000  Uiso   1.00
O164   O     0.83334   0.12707   0.31427   0.00000  Uiso   1.00
O165   O     0.83334   0.20626   0.31427   0.00000  Uiso   1.00
O166   O     0.83333   0.12707   0.18573   0.00000  Uiso   1.00
I167   I     0.76558   0.05957   0.17268   0.00000  Uiso   1.00
I168   I     0.90109   0.27377   0.32732   0.00000  Uiso   1.00
I169   I     0.90109   0.05956   0.32732   0.00000  Uiso   1.00
I170   I     0.76557   0.27377   0.17268   0.00000  Uiso   1.00
I171   I     0.87269   0.26953   0.12474   0.00000  Uiso   1.00
I172   I     0.79397   0.06380   0.37526   0.00000  Uiso   1.00
I173   I     0.79394   0.26951   0.37525   0.00000  Uiso   1.00
I174   I     0.87273   0.06382   0.12475   0.00000  Uiso   1.00
N175   N     0.70930   0.08148   0.26092   0.00000  Uiso   1.00
H176   H     0.70059   0.05827   0.23542   0.00000  Uiso   1.00
H177   H     0.70120   0.06763   0.29073   0.00000  Uiso   1.00
N178   N     0.95737   0.25185   0.23908   0.00000  Uiso   1.00
H179   H     0.96607   0.27507   0.26458   0.00000  Uiso   1.00
H180   H     0.96547   0.26571   0.20927   0.00000  Uiso   1.00
N181   N     0.95737   0.08148   0.23906   0.00000  Uiso   1.00
H182   H     0.96607   0.05826   0.26456   0.00000  Uiso   1.00
H183   H     0.96547   0.06764   0.20925   0.00000  Uiso   1.00
N184   N     0.70930   0.25185   0.26094   0.00000  Uiso   1.00
H185   H     0.70060   0.27507   0.23544   0.00000  Uiso   1.00
H186   H     0.70120   0.26570   0.29075   0.00000  Uiso   1.00
C187   C     0.08762   0.50000   0.25169   0.00000  Uiso   1.00
C188   C     0.24571   0.50000   0.24831   0.00000  Uiso   1.00
C189   C     0.17100   0.50000   0.16575   0.00000  Uiso   1.00
C190   C     0.16233   0.50000   0.33425   0.00000  Uiso   1.00
C191   C     0.14056   0.35803   0.22045   0.00000  Uiso   1.00
C192   C     0.19277   0.64197   0.27955   0.00000  Uiso   1.00
C193   C     0.19277   0.35803   0.27955   0.00000  Uiso   1.00
C194   C     0.14056   0.64197   0.22045   0.00000  Uiso   1.00
C195   C     0.02135   0.45778   0.25287   0.00000  Uiso   1.00
C196   C     0.31199   0.54221   0.24713   0.00000  Uiso   1.00
C197   C     0.31198   0.45779   0.24713   0.00000  Uiso   1.00
C198   C     0.02135   0.54221   0.25288   0.00000  Uiso   1.00
C199   C     0.17705   0.54149   0.04866   0.00000  Uiso   1.00
C200   C     0.15629   0.45851   0.45134   0.00000  Uiso   1.00
C201   C     0.15627   0.54148   0.45133   0.00000  Uiso   1.00
C202   C     0.17706   0.45852   0.04867   0.00000  Uiso   1.00
C203   C     0.18169   0.54155   0.09476   0.00000  Uiso   1.00
C204   C     0.15164   0.45845   0.40524   0.00000  Uiso   1.00
C205   C     0.15163   0.54154   0.40523   0.00000  Uiso   1.00
C206   C     0.18171   0.45846   0.09477   0.00000  Uiso   1.00
C207   C     0.17792   0.50000   0.11818   0.00000  Uiso   1.00
C208   C     0.15542   0.50000   0.38182   0.00000  Uiso   1.00
C209   C     0.17090   0.50000   0.02472   0.00000  Uiso   1.00
C210   C     0.16243   0.50000   0.47528   0.00000  Uiso   1.00
C211   C     0.29039   0.50000   0.24685   0.00000  Uiso   1.00
C212   C     0.04294   0.50000   0.25315   0.00000  Uiso   1.00
Cu213  Cu    0.16667   0.54689   0.25000   0.00000  Uiso   1.00
Cu214  Cu    0.16667   0.45311   0.25000   0.00000  Uiso   1.00
H215   H     0.18034   0.57419   0.03245   0.00000  Uiso   1.00
H216   H     0.15299   0.42581   0.46755   0.00000  Uiso   1.00
H217   H     0.15296   0.57419   0.46754   0.00000  Uiso   1.00
H218   H     0.18037   0.42581   0.03246   0.00000  Uiso   1.00
N219   N     0.16667   0.61736   0.25000   0.00000  Uiso   1.00
N220   N     0.16667   0.38264   0.25000   0.00000  Uiso   1.00
O221   O     0.10655   0.53958   0.24999   0.00000  Uiso   1.00
O222   O     0.22679   0.46042   0.25001   0.00000  Uiso   1.00
O223   O     0.22679   0.53958   0.25000   0.00000  Uiso   1.00
O224   O     0.10655   0.46042   0.24999   0.00000  Uiso   1.00
O225   O     0.16666   0.53959   0.18573   0.00000  Uiso   1.00
O226   O     0.16667   0.46041   0.31427   0.00000  Uiso   1.00
O227   O     0.16667   0.53959   0.31427   0.00000  Uiso   1.00
O228   O     0.16666   0.46041   0.18573   0.00000  Uiso   1.00
I229   I     0.09891   0.39290   0.17268   0.00000  Uiso   1.00
I230   I     0.23442   0.60710   0.32732   0.00000  Uiso   1.00
I231   I     0.23443   0.39290   0.32732   0.00000  Uiso   1.00
I232   I     0.09891   0.60710   0.17268   0.00000  Uiso   1.00
I233   I     0.20603   0.60287   0.12474   0.00000  Uiso   1.00
I234   I     0.12731   0.39713   0.37526   0.00000  Uiso   1.00
I235   I     0.12727   0.60285   0.37525   0.00000  Uiso   1.00
I236   I     0.20606   0.39715   0.12475   0.00000  Uiso   1.00
N237   N     0.04263   0.41481   0.26092   0.00000  Uiso   1.00
H238   H     0.03393   0.39160   0.23542   0.00000  Uiso   1.00
H239   H     0.03453   0.40096   0.29073   0.00000  Uiso   1.00
N240   N     0.29070   0.58518   0.23908   0.00000  Uiso   1.00
H241   H     0.29941   0.60840   0.26458   0.00000  Uiso   1.00
H242   H     0.29880   0.59904   0.20927   0.00000  Uiso   1.00
N243   N     0.29070   0.41482   0.23906   0.00000  Uiso   1.00
H244   H     0.29941   0.39160   0.26456   0.00000  Uiso   1.00
H245   H     0.29880   0.40097   0.20925   0.00000  Uiso   1.00
N246   N     0.04263   0.58518   0.26094   0.00000  Uiso   1.00
H247   H     0.03393   0.60840   0.23544   0.00000  Uiso   1.00
H248   H     0.03453   0.59903   0.29075   0.00000  Uiso   1.00
C249   C     0.42095   0.50000   0.25169   0.00000  Uiso   1.00
C250   C     0.57905   0.50000   0.24831   0.00000  Uiso   1.00
C251   C     0.50434   0.50000   0.16575   0.00000  Uiso   1.00
C252   C     0.49566   0.50000   0.33425   0.00000  Uiso   1.00
C253   C     0.47390   0.35803   0.22045   0.00000  Uiso   1.00
C254   C     0.52610   0.64197   0.27955   0.00000  Uiso   1.00
C255   C     0.52610   0.35803   0.27955   0.00000  Uiso   1.00
C256   C     0.47390   0.64197   0.22045   0.00000  Uiso   1.00
C257   C     0.35468   0.45778   0.25287   0.00000  Uiso   1.00
C258   C     0.64532   0.54221   0.24713   0.00000  Uiso   1.00
C259   C     0.64532   0.45779   0.24713   0.00000  Uiso   1.00
C260   C     0.35468   0.54221   0.25288   0.00000  Uiso   1.00
C261   C     0.51038   0.54149   0.04866   0.00000  Uiso   1.00
C262   C     0.48962   0.45851   0.45134   0.00000  Uiso   1.00
C263   C     0.48961   0.54148   0.45133   0.00000  Uiso   1.00
C264   C     0.51039   0.45852   0.04867   0.00000  Uiso   1.00
C265   C     0.51502   0.54155   0.09476   0.00000  Uiso   1.00
C266   C     0.48497   0.45845   0.40524   0.00000  Uiso   1.00
C267   C     0.48496   0.54154   0.40523   0.00000  Uiso   1.00
C268   C     0.51504   0.45846   0.09477   0.00000  Uiso   1.00
C269   C     0.51125   0.50000   0.11818   0.00000  Uiso   1.00
C270   C     0.48875   0.50000   0.38182   0.00000  Uiso   1.00
C271   C     0.50423   0.50000   0.02472   0.00000  Uiso   1.00
C272   C     0.49577   0.50000   0.47528   0.00000  Uiso   1.00
C273   C     0.62372   0.50000   0.24685   0.00000  Uiso   1.00
C274   C     0.37628   0.50000   0.25315   0.00000  Uiso   1.00
Cu275  Cu    0.50000   0.54689   0.25000   0.00000  Uiso   1.00
Cu276  Cu    0.50000   0.45311   0.25000   0.00000  Uiso   1.00
H277   H     0.51368   0.57419   0.03245   0.00000  Uiso   1.00
H278   H     0.48632   0.42581   0.46755   0.00000  Uiso   1.00
H279   H     0.48630   0.57419   0.46754   0.00000  Uiso   1.00
H280   H     0.51370   0.42581   0.03246   0.00000  Uiso   1.00
N281   N     0.50000   0.61736   0.25000   0.00000  Uiso   1.00
N282   N     0.50000   0.38264   0.25000   0.00000  Uiso   1.00
O283   O     0.43988   0.53958   0.24999   0.00000  Uiso   1.00
O284   O     0.56012   0.46042   0.25001   0.00000  Uiso   1.00
O285   O     0.56012   0.53958   0.25000   0.00000  Uiso   1.00
O286   O     0.43988   0.46042   0.24999   0.00000  Uiso   1.00
O287   O     0.50000   0.53959   0.18573   0.00000  Uiso   1.00
O288   O     0.50000   0.46041   0.31427   0.00000  Uiso   1.00
O289   O     0.50000   0.53959   0.31427   0.00000  Uiso   1.00
O290   O     0.50000   0.46041   0.18573   0.00000  Uiso   1.00
I291   I     0.43225   0.39290   0.17268   0.00000  Uiso   1.00
I292   I     0.56775   0.60710   0.32732   0.00000  Uiso   1.00
I293   I     0.56776   0.39290   0.32732   0.00000  Uiso   1.00
I294   I     0.43224   0.60710   0.17268   0.00000  Uiso   1.00
I295   I     0.53936   0.60287   0.12474   0.00000  Uiso   1.00
I296   I     0.46064   0.39713   0.37526   0.00000  Uiso   1.00
I297   I     0.46060   0.60285   0.37525   0.00000  Uiso   1.00
I298   I     0.53940   0.39715   0.12475   0.00000  Uiso   1.00
N299   N     0.37597   0.41481   0.26092   0.00000  Uiso   1.00
H300   H     0.36726   0.39160   0.23542   0.00000  Uiso   1.00
H301   H     0.36787   0.40096   0.29073   0.00000  Uiso   1.00
N302   N     0.62403   0.58518   0.23908   0.00000  Uiso   1.00
H303   H     0.63274   0.60840   0.26458   0.00000  Uiso   1.00
H304   H     0.63213   0.59904   0.20927   0.00000  Uiso   1.00
N305   N     0.62403   0.41482   0.23906   0.00000  Uiso   1.00
H306   H     0.63274   0.39160   0.26456   0.00000  Uiso   1.00
H307   H     0.63213   0.40097   0.20925   0.00000  Uiso   1.00
N308   N     0.37597   0.58518   0.26094   0.00000  Uiso   1.00
H309   H     0.36726   0.60840   0.23544   0.00000  Uiso   1.00
H310   H     0.36787   0.59903   0.29075   0.00000  Uiso   1.00
C311   C     0.75429   0.50000   0.25169   0.00000  Uiso   1.00
C312   C     0.91238   0.50000   0.24831   0.00000  Uiso   1.00
C313   C     0.83767   0.50000   0.16575   0.00000  Uiso   1.00
C314   C     0.82900   0.50000   0.33425   0.00000  Uiso   1.00
C315   C     0.80723   0.35803   0.22045   0.00000  Uiso   1.00
C316   C     0.85944   0.64197   0.27955   0.00000  Uiso   1.00
C317   C     0.85944   0.35803   0.27955   0.00000  Uiso   1.00
C318   C     0.80723   0.64197   0.22045   0.00000  Uiso   1.00
C319   C     0.68801   0.45778   0.25287   0.00000  Uiso   1.00
C320   C     0.97865   0.54221   0.24713   0.00000  Uiso   1.00
C321   C     0.97865   0.45779   0.24713   0.00000  Uiso   1.00
C322   C     0.68802   0.54221   0.25288   0.00000  Uiso   1.00
C323   C     0.84371   0.54149   0.04866   0.00000  Uiso   1.00
C324   C     0.82295   0.45851   0.45134   0.00000  Uiso   1.00
C325   C     0.82294   0.54148   0.45133   0.00000  Uiso   1.00
C326   C     0.84373   0.45852   0.04867   0.00000  Uiso   1.00
C327   C     0.84836   0.54155   0.09476   0.00000  Uiso   1.00
C328   C     0.81831   0.45845   0.40524   0.00000  Uiso   1.00
C329   C     0.81829   0.54154   0.40523   0.00000  Uiso   1.00
C330   C     0.84837   0.45846   0.09477   0.00000  Uiso   1.00
C331   C     0.84458   0.50000   0.11818   0.00000  Uiso   1.00
C332   C     0.82208   0.50000   0.38182   0.00000  Uiso   1.00
C333   C     0.83757   0.50000   0.02472   0.00000  Uiso   1.00
C334   C     0.82910   0.50000   0.47528   0.00000  Uiso   1.00
C335   C     0.95706   0.50000   0.24685   0.00000  Uiso   1.00
C336   C     0.70961   0.50000   0.25315   0.00000  Uiso   1.00
Cu337  Cu    0.83333   0.54689   0.25000   0.00000  Uiso   1.00
Cu338  Cu    0.83333   0.45311   0.25000   0.00000  Uiso   1.00
H339   H     0.84701   0.57419   0.03245   0.00000  Uiso   1.00
H340   H     0.81966   0.42581   0.46755   0.00000  Uiso   1.00
H341   H     0.81963   0.57419   0.46754   0.00000  Uiso   1.00
H342   H     0.84703   0.42581   0.03246   0.00000  Uiso   1.00
N343   N     0.83333   0.61736   0.25000   0.00000  Uiso   1.00
N344   N     0.83333   0.38264   0.25000   0.00000  Uiso   1.00
O345   O     0.77321   0.53958   0.24999   0.00000  Uiso   1.00
O346   O     0.89345   0.46042   0.25001   0.00000  Uiso   1.00
O347   O     0.89345   0.53958   0.25000   0.00000  Uiso   1.00
O348   O     0.77321   0.46042   0.24999   0.00000  Uiso   1.00
O349   O     0.83333   0.53959   0.18573   0.00000  Uiso   1.00
O350   O     0.83334   0.46041   0.31427   0.00000  Uiso   1.00
O351   O     0.83334   0.53959   0.31427   0.00000  Uiso   1.00
O352   O     0.83333   0.46041   0.18573   0.00000  Uiso   1.00
I353   I     0.76558   0.39290   0.17268   0.00000  Uiso   1.00
I354   I     0.90109   0.60710   0.32732   0.00000  Uiso   1.00
I355   I     0.90109   0.39290   0.32732   0.00000  Uiso   1.00
I356   I     0.76557   0.60710   0.17268   0.00000  Uiso   1.00
I357   I     0.87269   0.60287   0.12474   0.00000  Uiso   1.00
I358   I     0.79397   0.39713   0.37526   0.00000  Uiso   1.00
I359   I     0.79394   0.60285   0.37525   0.00000  Uiso   1.00
I360   I     0.87273   0.39715   0.12475   0.00000  Uiso   1.00
N361   N     0.70930   0.41481   0.26092   0.00000  Uiso   1.00
H362   H     0.70059   0.39160   0.23542   0.00000  Uiso   1.00
H363   H     0.70120   0.40096   0.29073   0.00000  Uiso   1.00
N364   N     0.95737   0.58518   0.23908   0.00000  Uiso   1.00
H365   H     0.96607   0.60840   0.26458   0.00000  Uiso   1.00
H366   H     0.96547   0.59904   0.20927   0.00000  Uiso   1.00
N367   N     0.95737   0.41482   0.23906   0.00000  Uiso   1.00
H368   H     0.96607   0.39160   0.26456   0.00000  Uiso   1.00
H369   H     0.96547   0.40097   0.20925   0.00000  Uiso   1.00
N370   N     0.70930   0.58518   0.26094   0.00000  Uiso   1.00
H371   H     0.70060   0.60840   0.23544   0.00000  Uiso   1.00
H372   H     0.70120   0.59903   0.29075   0.00000  Uiso   1.00
C373   C     0.08762   0.83333   0.25169   0.00000  Uiso   1.00
C374   C     0.24571   0.83333   0.24831   0.00000  Uiso   1.00
C375   C     0.17100   0.83333   0.16575   0.00000  Uiso   1.00
C376   C     0.16233   0.83333   0.33425   0.00000  Uiso   1.00
C377   C     0.14056   0.69137   0.22045   0.00000  Uiso   1.00
C378   C     0.19277   0.97530   0.27955   0.00000  Uiso   1.00
C379   C     0.19277   0.69136   0.27955   0.00000  Uiso   1.00
C380   C     0.14056   0.97530   0.22045   0.00000  Uiso   1.00
C381   C     0.02135   0.79112   0.25287   0.00000  Uiso   1.00
C382   C     0.31199   0.87555   0.24713   0.00000  Uiso   1.00
C383   C     0.31198   0.79112   0.24713   0.00000  Uiso   1.00
C384   C     0.02135   0.87555   0.25288   0.00000  Uiso   1.00
C385   C     0.17705   0.87482   0.04866   0.00000  Uiso   1.00
C386   C     0.15629   0.79185   0.45134   0.00000  Uiso   1.00
C387   C     0.15627   0.87482   0.45133   0.00000  Uiso   1.00
C388   C     0.17706   0.79185   0.04867   0.00000  Uiso   1.00
C389   C     0.18169   0.87488   0.09476   0.00000  Uiso   1.00
C390   C     0.15164   0.79179   0.40524   0.00000  Uiso   1.00
C391   C     0.15163   0.87487   0.40523   0.00000  Uiso   1.00
C392   C     0.18171   0.79179   0.09477   0.00000  Uiso   1.00
C393   C     0.17792   0.83334   0.11818   0.00000  Uiso   1.00
C394   C     0.15542   0.83333   0.38182   0.00000  Uiso   1.00
C395   C     0.17090   0.83333   0.02472   0.00000  Uiso   1.00
C396   C     0.16243   0.83333   0.47528   0.00000  Uiso   1.00
C397   C     0.29039   0.83333   0.24685   0.00000  Uiso   1.00
C398   C     0.04294   0.83333   0.25315   0.00000  Uiso   1.00
Cu399  Cu    0.16667   0.88022   0.25000   0.00000  Uiso   1.00
Cu400  Cu    0.16667   0.78645   0.25000   0.00000  Uiso   1.00
H401   H     0.18034   0.90753   0.03245   0.00000  Uiso   1.00
H402   H     0.15299   0.75914   0.46755   0.00000  Uiso   1.00
H403   H     0.15296   0.90752   0.46754   0.00000  Uiso   1.00
H404   H     0.18037   0.75915   0.03246   0.00000  Uiso   1.00
N405   N     0.16667   0.95069   0.25000   0.00000  Uiso   1.00
N406   N     0.16667   0.71598   0.25000   0.00000  Uiso   1.00
O407   O     0.10655   0.87291   0.24999   0.00000  Uiso   1.00
O408   O     0.22679   0.79375   0.25001   0.00000  Uiso   1.00
O409   O     0.22679   0.87291   0.25000   0.00000  Uiso   1.00
O410   O     0.10655   0.79375   0.24999   0.00000  Uiso   1.00
O411   O     0.16666   0.87293   0.18573   0.00000  Uiso   1.00
O412   O     0.16667   0.79374   0.31427   0.00000  Uiso   1.00
O413   O     0.16667   0.87293   0.31427   0.00000  Uiso   1.00
O414   O     0.16666   0.79374   0.18573   0.00000  Uiso   1.00
I415   I     0.09891   0.72623   0.17268   0.00000  Uiso   1.00
I416   I     0.23442   0.94043   0.32732   0.00000  Uiso   1.00
I417   I     0.23443   0.72623   0.32732   0.00000  Uiso   1.00
I418   I     0.09891   0.94044   0.17268   0.00000  Uiso   1.00
I419   I     0.20603   0.93620   0.12474   0.00000  Uiso   1.00
I420   I     0.12731   0.73047   0.37526   0.00000  Uiso   1.00
I421   I     0.12727   0.93618   0.37525   0.00000  Uiso   1.00
I422   I     0.20606   0.73049   0.12475   0.00000  Uiso   1.00
N423   N     0.04263   0.74815   0.26092   0.00000  Uiso   1.00
H424   H     0.03393   0.72493   0.23542   0.00000  Uiso   1.00
H425   H     0.03453   0.73429   0.29073   0.00000  Uiso   1.00
N426   N     0.29070   0.91852   0.23908   0.00000  Uiso   1.00
H427   H     0.29941   0.94173   0.26458   0.00000  Uiso   1.00
H428   H     0.29880   0.93237   0.20927   0.00000  Uiso   1.00
N429   N     0.29070   0.74815   0.23906   0.00000  Uiso   1.00
H430   H     0.29941   0.72493   0.26456   0.00000  Uiso   1.00
H431   H     0.29880   0.73430   0.20925   0.00000  Uiso   1.00
N432   N     0.04263   0.91852   0.26094   0.00000  Uiso   1.00
H433   H     0.03393   0.94174   0.23544   0.00000  Uiso   1.00
H434   H     0.03453   0.93236   0.29075   0.00000  Uiso   1.00
C435   C     0.42095   0.83333   0.25169   0.00000  Uiso   1.00
C436   C     0.57905   0.83333   0.24831   0.00000  Uiso   1.00
C437   C     0.50434   0.83333   0.16575   0.00000  Uiso   1.00
C438   C     0.49566   0.83333   0.33425   0.00000  Uiso   1.00
C439   C     0.47390   0.69137   0.22045   0.00000  Uiso   1.00
C440   C     0.52610   0.97530   0.27955   0.00000  Uiso   1.00
C441   C     0.52610   0.69136   0.27955   0.00000  Uiso   1.00
C442   C     0.47390   0.97530   0.22045   0.00000  Uiso   1.00
C443   C     0.35468   0.79112   0.25287   0.00000  Uiso   1.00
C444   C     0.64532   0.87555   0.24713   0.00000  Uiso   1.00
C445   C     0.64532   0.79112   0.24713   0.00000  Uiso   1.00
C446   C     0.35468   0.87555   0.25288   0.00000  Uiso   1.00
C447   C     0.51038   0.87482   0.04866   0.00000  Uiso   1.00
C448   C     0.48962   0.79185   0.45134   0.00000  Uiso   1.00
C449   C     0.48961   0.87482   0.45133   0.00000  Uiso   1.00
C450   C     0.51039   0.79185   0.04867   0.00000  Uiso   1.00
C451   C     0.51502   0.87488   0.09476   0.00000  Uiso   1.00
C452   C     0.48497   0.79179   0.40524   0.00000  Uiso   1.00
C453   C     0.48496   0.87487   0.40523   0.00000  Uiso   1.00
C454   C     0.51504   0.79179   0.09477   0.00000  Uiso   1.00
C455   C     0.51125   0.83334   0.11818   0.00000  Uiso   1.00
C456   C     0.48875   0.83333   0.38182   0.00000  Uiso   1.00
C457   C     0.50423   0.83333   0.02472   0.00000  Uiso   1.00
C458   C     0.49577   0.83333   0.47528   0.00000  Uiso   1.00
C459   C     0.62372   0.83333   0.24685   0.00000  Uiso   1.00
C460   C     0.37628   0.83333   0.25315   0.00000  Uiso   1.00
Cu461  Cu    0.50000   0.88022   0.25000   0.00000  Uiso   1.00
Cu462  Cu    0.50000   0.78645   0.25000   0.00000  Uiso   1.00
H463   H     0.51368   0.90753   0.03245   0.00000  Uiso   1.00
H464   H     0.48632   0.75914   0.46755   0.00000  Uiso   1.00
H465   H     0.48630   0.90752   0.46754   0.00000  Uiso   1.00
H466   H     0.51370   0.75915   0.03246   0.00000  Uiso   1.00
N467   N     0.50000   0.95069   0.25000   0.00000  Uiso   1.00
N468   N     0.50000   0.71598   0.25000   0.00000  Uiso   1.00
O469   O     0.43988   0.87291   0.24999   0.00000  Uiso   1.00
O470   O     0.56012   0.79375   0.25001   0.00000  Uiso   1.00
O471   O     0.56012   0.87291   0.25000   0.00000  Uiso   1.00
O472   O     0.43988   0.79375   0.24999   0.00000  Uiso   1.00
O473   O     0.50000   0.87293   0.18573   0.00000  Uiso   1.00
O474   O     0.50000   0.79374   0.31427   0.00000  Uiso   1.00
O475   O     0.50000   0.87293   0.31427   0.00000  Uiso   1.00
O476   O     0.50000   0.79374   0.18573   0.00000  Uiso   1.00
I477   I     0.43225   0.72623   0.17268   0.00000  Uiso   1.00
I478   I     0.56775   0.94043   0.32732   0.00000  Uiso   1.00
I479   I     0.56776   0.72623   0.32732   0.00000  Uiso   1.00
I480   I     0.43224   0.94044   0.17268   0.00000  Uiso   1.00
I481   I     0.53936   0.93620   0.12474   0.00000  Uiso   1.00
I482   I     0.46064   0.73047   0.37526   0.00000  Uiso   1.00
I483   I     0.46060   0.93618   0.37525   0.00000  Uiso   1.00
I484   I     0.53940   0.73049   0.12475   0.00000  Uiso   1.00
N485   N     0.37597   0.74815   0.26092   0.00000  Uiso   1.00
H486   H     0.36726   0.72493   0.23542   0.00000  Uiso   1.00
H487   H     0.36787   0.73429   0.29073   0.00000  Uiso   1.00
N488   N     0.62403   0.91852   0.23908   0.00000  Uiso   1.00
H489   H     0.63274   0.94173   0.26458   0.00000  Uiso   1.00
H490   H     0.63213   0.93237   0.20927   0.00000  Uiso   1.00
N491   N     0.62403   0.74815   0.23906   0.00000  Uiso   1.00
H492   H     0.63274   0.72493   0.26456   0.00000  Uiso   1.00
H493   H     0.63213   0.73430   0.20925   0.00000  Uiso   1.00
N494   N     0.37597   0.91852   0.26094   0.00000  Uiso   1.00
H495   H     0.36726   0.94174   0.23544   0.00000  Uiso   1.00
H496   H     0.36787   0.93236   0.29075   0.00000  Uiso   1.00
C497   C     0.75429   0.83333   0.25169   0.00000  Uiso   1.00
C498   C     0.91238   0.83333   0.24831   0.00000  Uiso   1.00
C499   C     0.83767   0.83333   0.16575   0.00000  Uiso   1.00
C500   C     0.82900   0.83333   0.33425   0.00000  Uiso   1.00
C501   C     0.80723   0.69137   0.22045   0.00000  Uiso   1.00
C502   C     0.85944   0.97530   0.27955   0.00000  Uiso   1.00
C503   C     0.85944   0.69136   0.27955   0.00000  Uiso   1.00
C504   C     0.80723   0.97530   0.22045   0.00000  Uiso   1.00
C505   C     0.68801   0.79112   0.25287   0.00000  Uiso   1.00
C506   C     0.97865   0.87555   0.24713   0.00000  Uiso   1.00
C507   C     0.97865   0.79112   0.24713   0.00000  Uiso   1.00
C508   C     0.68802   0.87555   0.25288   0.00000  Uiso   1.00
C509   C     0.84371   0.87482   0.04866   0.00000  Uiso   1.00
C510   C     0.82295   0.79185   0.45134   0.00000  Uiso   1.00
C511   C     0.82294   0.87482   0.45133   0.00000  Uiso   1.00
C512   C     0.84373   0.79185   0.04867   0.00000  Uiso   1.00
C513   C     0.84836   0.87488   0.09476   0.00000  Uiso   1.00
C514   C     0.81831   0.79179   0.40524   0.00000  Uiso   1.00
C515   C     0.81829   0.87487   0.40523   0.00000  Uiso   1.00
C516   C     0.84837   0.79179   0.09477   0.00000  Uiso   1.00
C517   C     0.84458   0.83334   0.11818   0.00000  Uiso   1.00
C518   C     0.82208   0.83333   0.38182   0.00000  Uiso   1.00
C519   C     0.83757   0.83333   0.02472   0.00000  Uiso   1.00
C520   C     0.82910   0.83333   0.47528   0.00000  Uiso   1.00
C521   C     0.95706   0.83333   0.24685   0.00000  Uiso   1.00
C522   C     0.70961   0.83333   0.25315   0.00000  Uiso   1.00
Cu523  Cu    0.83333   0.88022   0.25000   0.00000  Uiso   1.00
Cu524  Cu    0.83333   0.78645   0.25000   0.00000  Uiso   1.00
H525   H     0.84701   0.90753   0.03245   0.00000  Uiso   1.00
H526   H     0.81966   0.75914   0.46755   0.00000  Uiso   1.00
H527   H     0.81963   0.90752   0.46754   0.00000  Uiso   1.00
H528   H     0.84703   0.75915   0.03246   0.00000  Uiso   1.00
N529   N     0.83333   0.95069   0.25000   0.00000  Uiso   1.00
N530   N     0.83333   0.71598   0.25000   0.00000  Uiso   1.00
O531   O     0.77321   0.87291   0.24999   0.00000  Uiso   1.00
O532   O     0.89345   0.79375   0.25001   0.00000  Uiso   1.00
O533   O     0.89345   0.87291   0.25000   0.00000  Uiso   1.00
O534   O     0.77321   0.79375   0.24999   0.00000  Uiso   1.00
O535   O     0.83333   0.87293   0.18573   0.00000  Uiso   1.00
O536   O     0.83334   0.79374   0.31427   0.00000  Uiso   1.00
O537   O     0.83334   0.87293   0.31427   0.00000  Uiso   1.00
O538   O     0.83333   0.79374   0.18573   0.00000  Uiso   1.00
I539   I     0.76558   0.72623   0.17268   0.00000  Uiso   1.00
I540   I     0.90109   0.94043   0.32732   0.00000  Uiso   1.00
I541   I     0.90109   0.72623   0.32732   0.00000  Uiso   1.00
I542   I     0.76557   0.94044   0.17268   0.00000  Uiso   1.00
I543   I     0.87269   0.93620   0.12474   0.00000  Uiso   1.00
I544   I     0.79397   0.73047   0.37526   0.00000  Uiso   1.00
I545   I     0.79394   0.93618   0.37525   0.00000  Uiso   1.00
I546   I     0.87273   0.73049   0.12475   0.00000  Uiso   1.00
N547   N     0.70930   0.74815   0.26092   0.00000  Uiso   1.00
H548   H     0.70059   0.72493   0.23542   0.00000  Uiso   1.00
H549   H     0.70120   0.73429   0.29073   0.00000  Uiso   1.00
N550   N     0.95737   0.91852   0.23908   0.00000  Uiso   1.00
H551   H     0.96607   0.94173   0.26458   0.00000  Uiso   1.00
H552   H     0.96547   0.93237   0.20927   0.00000  Uiso   1.00
N553   N     0.95737   0.74815   0.23906   0.00000  Uiso   1.00
H554   H     0.96607   0.72493   0.26456   0.00000  Uiso   1.00
H555   H     0.96547   0.73430   0.20925   0.00000  Uiso   1.00
N556   N     0.70930   0.91852   0.26094   0.00000  Uiso   1.00
H557   H     0.70060   0.94174   0.23544   0.00000  Uiso   1.00
H558   H     0.70120   0.93236   0.29075   0.00000  Uiso   1.00
C559   C     0.08762   0.16667   0.75169   0.00000  Uiso   1.00
C560   C     0.24571   0.16667   0.74831   0.00000  Uiso   1.00
C561   C     0.17100   0.16667   0.66575   0.00000  Uiso   1.00
C562   C     0.16233   0.16667   0.83425   0.00000  Uiso   1.00
C563   C     0.14056   0.02470   0.72045   0.00000  Uiso   1.00
C564   C     0.19277   0.30863   0.77955   0.00000  Uiso   1.00
C565   C     0.19277   0.02470   0.77955   0.00000  Uiso   1.00
C566   C     0.14056   0.30864   0.72045   0.00000  Uiso   1.00
C567   C     0.02135   0.12445   0.75287   0.00000  Uiso   1.00
C568   C     0.31199   0.20888   0.74713   0.00000  Uiso   1.00
C569   C     0.31198   0.12445   0.74713   0.00000  Uiso   1.00
C570   C     0.02135   0.20888   0.75288   0.00000  Uiso   1.00
C571   C     0.17705   0.20815   0.54866   0.00000  Uiso   1.00
C572   C     0.15629   0.12518   0.95134   0.00000  Uiso   1.00
C573   C     0.15627   0.20815   0.95133   0.00000  Uiso   1.00
C574   C     0.17706   0.12518   0.54867   0.00000  Uiso   1.00
C575   C     0.18169   0.20821   0.59476   0.00000  Uiso   1.00
C576   C     0.15164   0.12512   0.90524   0.00000  Uiso   1.00
C577   C     0.15163   0.20821   0.90523   0.00000  Uiso   1.00
C578   C     0.18171   0.12513   0.59477   0.00000  Uiso   1.00
C579   C     0.17792   0.16667   0.61818   0.00000  Uiso   1.00
C580   C     0.15542   0.16666   0.88182   0.00000  Uiso   1.00
C581   C     0.17090   0.16667   0.52472   0.00000  Uiso   1.00
C582   C     0.16243   0.16667   0.97528   0.00000  Uiso   1.00
C583   C     0.29039   0.16667   0.74685   0.00000  Uiso   1.00
C584   C     0.04294   0.16667   0.75315   0.00000  Uiso   1.00
Cu585  Cu    0.16667   0.21355   0.75000   0.00000  Uiso   1.00
Cu586  Cu    0.16667   0.11978   0.75000   0.00000  Uiso   1.00
H587   H     0.18034   0.24086   0.53245   0.00000  Uiso   1.00
H588   H     0.15299   0.09247   0.96755   0.00000  Uiso   1.00
H589   H     0.15296   0.24085   0.96754   0.00000  Uiso   1.00
H590   H     0.18037   0.09248   0.53246   0.00000  Uiso   1.00
N591   N     0.16667   0.28402   0.75000   0.00000  Uiso   1.00
N592   N     0.16667   0.04931   0.75000   0.00000  Uiso   1.00
O593   O     0.10655   0.20625   0.74999   0.00000  Uiso   1.00
O594   O     0.22679   0.12709   0.75001   0.00000  Uiso   1.00
O595   O     0.22679   0.20625   0.75000   0.00000  Uiso   1.00
O596   O     0.10655   0.12709   0.74999   0.00000  Uiso   1.00
O597   O     0.16666   0.20626   0.68573   0.00000  Uiso   1.00
O598   O     0.16667   0.12707   0.81427   0.00000  Uiso   1.00
O599   O     0.16667   0.20626   0.81427   0.00000  Uiso   1.00
O600   O     0.16666   0.12707   0.68573   0.00000  Uiso   1.00
I601   I     0.09891   0.05957   0.67268   0.00000  Uiso   1.00
I602   I     0.23442   0.27377   0.82732   0.00000  Uiso   1.00
I603   I     0.23443   0.05956   0.82732   0.00000  Uiso   1.00
I604   I     0.09891   0.27377   0.67268   0.00000  Uiso   1.00
I605   I     0.20603   0.26953   0.62474   0.00000  Uiso   1.00
I606   I     0.12731   0.06380   0.87526   0.00000  Uiso   1.00
I607   I     0.12727   0.26951   0.87525   0.00000  Uiso   1.00
I608   I     0.20606   0.06382   0.62475   0.00000  Uiso   1.00
N609   N     0.04263   0.08148   0.76092   0.00000  Uiso   1.00
H610   H     0.03393   0.05827   0.73542   0.00000  Uiso   1.00
H611   H     0.03453   0.06763   0.79073   0.00000  Uiso   1.00
N612   N     0.29070   0.25185   0.73908   0.00000  Uiso   1.00
H613   H     0.29941   0.27507   0.76458   0.00000  Uiso   1.00
H614   H     0.29880   0.26571   0.70927   0.00000  Uiso   1.00
N615   N     0.29070   0.08148   0.73906   0.00000  Uiso   1.00
H616   H     0.29941   0.05826   0.76456   0.00000  Uiso   1.00
H617   H     0.29880   0.06764   0.70925   0.00000  Uiso   1.00
N618   N     0.04263   0.25185   0.76094   0.00000  Uiso   1.00
H619   H     0.03393   0.27507   0.73544   0.00000  Uiso   1.00
H620   H     0.03453   0.26570   0.79075   0.00000  Uiso   1.00
C621   C     0.42095   0.16667   0.75169   0.00000  Uiso   1.00
C622   C     0.57905   0.16667   0.74831   0.00000  Uiso   1.00
C623   C     0.50434   0.16667   0.66575   0.00000  Uiso   1.00
C624   C     0.49566   0.16667   0.83425   0.00000  Uiso   1.00
C625   C     0.47390   0.02470   0.72045   0.00000  Uiso   1.00
C626   C     0.52610   0.30863   0.77955   0.00000  Uiso   1.00
C627   C     0.52610   0.02470   0.77955   0.00000  Uiso   1.00
C628   C     0.47390   0.30864   0.72045   0.00000  Uiso   1.00
C629   C     0.35468   0.12445   0.75287   0.00000  Uiso   1.00
C630   C     0.64532   0.20888   0.74713   0.00000  Uiso   1.00
C631   C     0.64532   0.12445   0.74713   0.00000  Uiso   1.00
C632   C     0.35468   0.20888   0.75288   0.00000  Uiso   1.00
C633   C     0.51038   0.20815   0.54866   0.00000  Uiso   1.00
C634   C     0.48962   0.12518   0.95134   0.00000  Uiso   1.00
C635   C     0.48961   0.20815   0.95133   0.00000  Uiso   1.00
C636   C     0.51039   0.12518   0.54867   0.00000  Uiso   1.00
C637   C     0.51502   0.20821   0.59476   0.00000  Uiso   1.00
C638   C     0.48497   0.12512   0.90524   0.00000  Uiso   1.00
C639   C     0.48496   0.20821   0.90523   0.00000  Uiso   1.00
C640   C     0.51504   0.12513   0.59477   0.00000  Uiso   1.00
C641   C     0.51125   0.16667   0.61818   0.00000  Uiso   1.00
C642   C     0.48875   0.16666   0.88182   0.00000  Uiso   1.00
C643   C     0.50423   0.16667   0.52472   0.00000  Uiso   1.00
C644   C     0.49577   0.16667   0.97528   0.00000  Uiso   1.00
C645   C     0.62372   0.16667   0.74685   0.00000  Uiso   1.00
C646   C     0.37628   0.16667   0.75315   0.00000  Uiso   1.00
Cu647  Cu    0.50000   0.21355   0.75000   0.00000  Uiso   1.00
Cu648  Cu    0.50000   0.11978   0.75000   0.00000  Uiso   1.00
H649   H     0.51368   0.24086   0.53245   0.00000  Uiso   1.00
H650   H     0.48632   0.09247   0.96755   0.00000  Uiso   1.00
H651   H     0.48630   0.24085   0.96754   0.00000  Uiso   1.00
H652   H     0.51370   0.09248   0.53246   0.00000  Uiso   1.00
N653   N     0.50000   0.28402   0.75000   0.00000  Uiso   1.00
N654   N     0.50000   0.04931   0.75000   0.00000  Uiso   1.00
O655   O     0.43988   0.20625   0.74999   0.00000  Uiso   1.00
O656   O     0.56012   0.12709   0.75001   0.00000  Uiso   1.00
O657   O     0.56012   0.20625   0.75000   0.00000  Uiso   1.00
O658   O     0.43988   0.12709   0.74999   0.00000  Uiso   1.00
O659   O     0.50000   0.20626   0.68573   0.00000  Uiso   1.00
O660   O     0.50000   0.12707   0.81427   0.00000  Uiso   1.00
O661   O     0.50000   0.20626   0.81427   0.00000  Uiso   1.00
O662   O     0.50000   0.12707   0.68573   0.00000  Uiso   1.00
I663   I     0.43225   0.05957   0.67268   0.00000  Uiso   1.00
I664   I     0.56775   0.27377   0.82732   0.00000  Uiso   1.00
I665   I     0.56776   0.05956   0.82732   0.00000  Uiso   1.00
I666   I     0.43224   0.27377   0.67268   0.00000  Uiso   1.00
I667   I     0.53936   0.26953   0.62474   0.00000  Uiso   1.00
I668   I     0.46064   0.06380   0.87526   0.00000  Uiso   1.00
I669   I     0.46060   0.26951   0.87525   0.00000  Uiso   1.00
I670   I     0.53940   0.06382   0.62475   0.00000  Uiso   1.00
N671   N     0.37597   0.08148   0.76092   0.00000  Uiso   1.00
H672   H     0.36726   0.05827   0.73542   0.00000  Uiso   1.00
H673   H     0.36787   0.06763   0.79073   0.00000  Uiso   1.00
N674   N     0.62403   0.25185   0.73908   0.00000  Uiso   1.00
H675   H     0.63274   0.27507   0.76458   0.00000  Uiso   1.00
H676   H     0.63213   0.26571   0.70927   0.00000  Uiso   1.00
N677   N     0.62403   0.08148   0.73906   0.00000  Uiso   1.00
H678   H     0.63274   0.05826   0.76456   0.00000  Uiso   1.00
H679   H     0.63213   0.06764   0.70925   0.00000  Uiso   1.00
N680   N     0.37597   0.25185   0.76094   0.00000  Uiso   1.00
H681   H     0.36726   0.27507   0.73544   0.00000  Uiso   1.00
H682   H     0.36787   0.26570   0.79075   0.00000  Uiso   1.00
C683   C     0.75429   0.16667   0.75169   0.00000  Uiso   1.00
C684   C     0.91238   0.16667   0.74831   0.00000  Uiso   1.00
C685   C     0.83767   0.16667   0.66575   0.00000  Uiso   1.00
C686   C     0.82900   0.16667   0.83425   0.00000  Uiso   1.00
C687   C     0.80723   0.02470   0.72045   0.00000  Uiso   1.00
C688   C     0.85944   0.30863   0.77955   0.00000  Uiso   1.00
C689   C     0.85944   0.02470   0.77955   0.00000  Uiso   1.00
C690   C     0.80723   0.30864   0.72045   0.00000  Uiso   1.00
C691   C     0.68801   0.12445   0.75287   0.00000  Uiso   1.00
C692   C     0.97865   0.20888   0.74713   0.00000  Uiso   1.00
C693   C     0.97865   0.12445   0.74713   0.00000  Uiso   1.00
C694   C     0.68802   0.20888   0.75288   0.00000  Uiso   1.00
C695   C     0.84371   0.20815   0.54866   0.00000  Uiso   1.00
C696   C     0.82295   0.12518   0.95134   0.00000  Uiso   1.00
C697   C     0.82294   0.20815   0.95133   0.00000  Uiso   1.00
C698   C     0.84373   0.12518   0.54867   0.00000  Uiso   1.00
C699   C     0.84836   0.20821   0.59476   0.00000  Uiso   1.00
C700   C     0.81831   0.12512   0.90524   0.00000  Uiso   1.00
C701   C     0.81829   0.20821   0.90523   0.00000  Uiso   1.00
C702   C     0.84837   0.12513   0.59477   0.00000  Uiso   1.00
C703   C     0.84458   0.16667   0.61818   0.00000  Uiso   1.00
C704   C     0.82208   0.16666   0.88182   0.00000  Uiso   1.00
C705   C     0.83757   0.16667   0.52472   0.00000  Uiso   1.00
C706   C     0.82910   0.16667   0.97528   0.00000  Uiso   1.00
C707   C     0.95706   0.16667   0.74685   0.00000  Uiso   1.00
C708   C     0.70961   0.16667   0.75315   0.00000  Uiso   1.00
Cu709  Cu    0.83333   0.21355   0.75000   0.00000  Uiso   1.00
Cu710  Cu    0.83333   0.11978   0.75000   0.00000  Uiso   1.00
H711   H     0.84701   0.24086   0.53245   0.00000  Uiso   1.00
H712   H     0.81966   0.09247   0.96755   0.00000  Uiso   1.00
H713   H     0.81963   0.24085   0.96754   0.00000  Uiso   1.00
H714   H     0.84703   0.09248   0.53246   0.00000  Uiso   1.00
N715   N     0.83333   0.28402   0.75000   0.00000  Uiso   1.00
N716   N     0.83333   0.04931   0.75000   0.00000  Uiso   1.00
O717   O     0.77321   0.20625   0.74999   0.00000  Uiso   1.00
O718   O     0.89345   0.12709   0.75001   0.00000  Uiso   1.00
O719   O     0.89345   0.20625   0.75000   0.00000  Uiso   1.00
O720   O     0.77321   0.12709   0.74999   0.00000  Uiso   1.00
O721   O     0.83333   0.20626   0.68573   0.00000  Uiso   1.00
O722   O     0.83334   0.12707   0.81427   0.00000  Uiso   1.00
O723   O     0.83334   0.20626   0.81427   0.00000  Uiso   1.00
O724   O     0.83333   0.12707   0.68573   0.00000  Uiso   1.00
I725   I     0.76558   0.05957   0.67268   0.00000  Uiso   1.00
I726   I     0.90109   0.27377   0.82732   0.00000  Uiso   1.00
I727   I     0.90109   0.05956   0.82732   0.00000  Uiso   1.00
I728   I     0.76557   0.27377   0.67268   0.00000  Uiso   1.00
I729   I     0.87269   0.26953   0.62474   0.00000  Uiso   1.00
I730   I     0.79397   0.06380   0.87526   0.00000  Uiso   1.00
I731   I     0.79394   0.26951   0.87525   0.00000  Uiso   1.00
I732   I     0.87273   0.06382   0.62475   0.00000  Uiso   1.00
N733   N     0.70930   0.08148   0.76092   0.00000  Uiso   1.00
H734   H     0.70059   0.05827   0.73542   0.00000  Uiso   1.00
H735   H     0.70120   0.06763   0.79073   0.00000  Uiso   1.00
N736   N     0.95737   0.25185   0.73908   0.00000  Uiso   1.00
H737   H     0.96607   0.27507   0.76458   0.00000  Uiso   1.00
H738   H     0.96547   0.26571   0.70927   0.00000  Uiso   1.00
N739   N     0.95737   0.08148   0.73906   0.00000  Uiso   1.00
H740   H     0.96607   0.05826   0.76456   0.00000  Uiso   1.00
H741   H     0.96547   0.06764   0.70925   0.00000  Uiso   1.00
N742   N     0.70930   0.25185   0.76094   0.00000  Uiso   1.00
H743   H     0.70060   0.27507   0.73544   0.00000  Uiso   1.00
H744   H     0.70120   0.26570   0.79075   0.00000  Uiso   1.00
C745   C     0.08762   0.50000   0.75169   0.00000  Uiso   1.00
C746   C     0.24571   0.50000   0.74831   0.00000  Uiso   1.00
C747   C     0.17100   0.50000   0.66575   0.00000  Uiso   1.00
C748   C     0.16233   0.50000   0.83425   0.00000  Uiso   1.00
C749   C     0.14056   0.35803   0.72045   0.00000  Uiso   1.00
C750   C     0.19277   0.64197   0.77955   0.00000  Uiso   1.00
C751   C     0.19277   0.35803   0.77955   0.00000  Uiso   1.00
C752   C     0.14056   0.64197   0.72045   0.00000  Uiso   1.00
C753   C     0.02135   0.45778   0.75287   0.00000  Uiso   1.00
C754   C     0.31199   0.54221   0.74713   0.00000  Uiso   1.00
C755   C     0.31198   0.45779   0.74713   0.00000  Uiso   1.00
C756   C     0.02135   0.54221   0.75288   0.00000  Uiso   1.00
C757   C     0.17705   0.54149   0.54866   0.00000  Uiso   1.00
C758   C     0.15629   0.45851   0.95134   0.00000  Uiso   1.00
C759   C     0.15627   0.54148   0.95133   0.00000  Uiso   1.00
C760   C     0.17706   0.45852   0.54867   0.00000  Uiso   1.00
C761   C     0.18169   0.54155   0.59476   0.00000  Uiso   1.00
C762   C     0.15164   0.45845   0.90524   0.00000  Uiso   1.00
C763   C     0.15163   0.54154   0.90523   0.00000  Uiso   1.00
C764   C     0.18171   0.45846   0.59477   0.00000  Uiso   1.00
C765   C     0.17792   0.50000   0.61818   0.00000  Uiso   1.00
C766   C     0.15542   0.50000   0.88182   0.00000  Uiso   1.00
C767   C     0.17090   0.50000   0.52472   0.00000  Uiso   1.00
C768   C     0.16243   0.50000   0.97528   0.00000  Uiso   1.00
C769   C     0.29039   0.50000   0.74685   0.00000  Uiso   1.00
C770   C     0.04294   0.50000   0.75315   0.00000  Uiso   1.00
Cu771  Cu    0.16667   0.54689   0.75000   0.00000  Uiso   1.00
Cu772  Cu    0.16667   0.45311   0.75000   0.00000  Uiso   1.00
H773   H     0.18034   0.57419   0.53245   0.00000  Uiso   1.00
H774   H     0.15299   0.42581   0.96755   0.00000  Uiso   1.00
H775   H     0.15296   0.57419   0.96754   0.00000  Uiso   1.00
H776   H     0.18037   0.42581   0.53246   0.00000  Uiso   1.00
N777   N     0.16667   0.61736   0.75000   0.00000  Uiso   1.00
N778   N     0.16667   0.38264   0.75000   0.00000  Uiso   1.00
O779   O     0.10655   0.53958   0.74999   0.00000  Uiso   1.00
O780   O     0.22679   0.46042   0.75001   0.00000  Uiso   1.00
O781   O     0.22679   0.53958   0.75000   0.00000  Uiso   1.00
O782   O     0.10655   0.46042   0.74999   0.00000  Uiso   1.00
O783   O     0.16666   0.53959   0.68573   0.00000  Uiso   1.00
O784   O     0.16667   0.46041   0.81427   0.00000  Uiso   1.00
O785   O     0.16667   0.53959   0.81427   0.00000  Uiso   1.00
O786   O     0.16666   0.46041   0.68573   0.00000  Uiso   1.00
I787   I     0.09891   0.39290   0.67268   0.00000  Uiso   1.00
I788   I     0.23442   0.60710   0.82732   0.00000  Uiso   1.00
I789   I     0.23443   0.39290   0.82732   0.00000  Uiso   1.00
I790   I     0.09891   0.60710   0.67268   0.00000  Uiso   1.00
I791   I     0.20603   0.60287   0.62474   0.00000  Uiso   1.00
I792   I     0.12731   0.39713   0.87526   0.00000  Uiso   1.00
I793   I     0.12727   0.60285   0.87525   0.00000  Uiso   1.00
I794   I     0.20606   0.39715   0.62475   0.00000  Uiso   1.00
N795   N     0.04263   0.41481   0.76092   0.00000  Uiso   1.00
H796   H     0.03393   0.39160   0.73542   0.00000  Uiso   1.00
H797   H     0.03453   0.40096   0.79073   0.00000  Uiso   1.00
N798   N     0.29070   0.58518   0.73908   0.00000  Uiso   1.00
H799   H     0.29941   0.60840   0.76458   0.00000  Uiso   1.00
H800   H     0.29880   0.59904   0.70927   0.00000  Uiso   1.00
N801   N     0.29070   0.41482   0.73906   0.00000  Uiso   1.00
H802   H     0.29941   0.39160   0.76456   0.00000  Uiso   1.00
H803   H     0.29880   0.40097   0.70925   0.00000  Uiso   1.00
N804   N     0.04263   0.58518   0.76094   0.00000  Uiso   1.00
H805   H     0.03393   0.60840   0.73544   0.00000  Uiso   1.00
H806   H     0.03453   0.59903   0.79075   0.00000  Uiso   1.00
C807   C     0.42095   0.50000   0.75169   0.00000  Uiso   1.00
C808   C     0.57905   0.50000   0.74831   0.00000  Uiso   1.00
C809   C     0.50434   0.50000   0.66575   0.00000  Uiso   1.00
C810   C     0.49566   0.50000   0.83425   0.00000  Uiso   1.00
C811   C     0.47390   0.35803   0.72045   0.00000  Uiso   1.00
C812   C     0.52610   0.64197   0.77955   0.00000  Uiso   1.00
C813   C     0.52610   0.35803   0.77955   0.00000  Uiso   1.00
C814   C     0.47390   0.64197   0.72045   0.00000  Uiso   1.00
C815   C     0.35468   0.45778   0.75287   0.00000  Uiso   1.00
C816   C     0.64532   0.54221   0.74713   0.00000  Uiso   1.00
C817   C     0.64532   0.45779   0.74713   0.00000  Uiso   1.00
C818   C     0.35468   0.54221   0.75288   0.00000  Uiso   1.00
C819   C     0.51038   0.54149   0.54866   0.00000  Uiso   1.00
C820   C     0.48962   0.45851   0.95134   0.00000  Uiso   1.00
C821   C     0.48961   0.54148   0.95133   0.00000  Uiso   1.00
C822   C     0.51039   0.45852   0.54867   0.00000  Uiso   1.00
C823   C     0.51502   0.54155   0.59476   0.00000  Uiso   1.00
C824   C     0.48497   0.45845   0.90524   0.00000  Uiso   1.00
C825   C     0.48496   0.54154   0.90523   0.00000  Uiso   1.00
C826   C     0.51504   0.45846   0.59477   0.00000  Uiso   1.00
C827   C     0.51125   0.50000   0.61818   0.00000  Uiso   1.00
C828   C     0.48875   0.50000   0.88182   0.00000  Uiso   1.00
C829   C     0.50423   0.50000   0.52472   0.00000  Uiso   1.00
C830   C     0.49577   0.50000   0.97528   0.00000  Uiso   1.00
C831   C     0.62372   0.50000   0.74685   0.00000  Uiso   1.00
C832   C     0.37628   0.50000   0.75315   0.00000  Uiso   1.00
Cu833  Cu    0.50000   0.54689   0.75000   0.00000  Uiso   1.00
Cu834  Cu    0.50000   0.45311   0.75000   0.00000  Uiso   1.00
H835   H     0.51368   0.57419   0.53245   0.00000  Uiso   1.00
H836   H     0.48632   0.42581   0.96755   0.00000  Uiso   1.00
H837   H     0.48630   0.57419   0.96754   0.00000  Uiso   1.00
H838   H     0.51370   0.42581   0.53246   0.00000  Uiso   1.00
N839   N     0.50000   0.61736   0.75000   0.00000  Uiso   1.00
N840   N     0.50000   0.38264   0.75000   0.00000  Uiso   1.00
O841   O     0.43988   0.53958   0.74999   0.00000  Uiso   1.00
O842   O     0.56012   0.46042   0.75001   0.00000  Uiso   1.00
O843   O     0.56012   0.53958   0.75000   0.00000  Uiso   1.00
O844   O     0.43988   0.46042   0.74999   0.00000  Uiso   1.00
O845   O     0.50000   0.53959   0.68573   0.00000  Uiso   1.00
O846   O     0.50000   0.46041   0.81427   0.00000  Uiso   1.00
O847   O     0.50000   0.53959   0.81427   0.00000  Uiso   1.00
O848   O     0.50000   0.46041   0.68573   0.00000  Uiso   1.00
I849   I     0.43225   0.39290   0.67268   0.00000  Uiso   1.00
I850   I     0.56775   0.60710   0.82732   0.00000  Uiso   1.00
I851   I     0.56776   0.39290   0.82732   0.00000  Uiso   1.00
I852   I     0.43224   0.60710   0.67268   0.00000  Uiso   1.00
I853   I     0.53936   0.60287   0.62474   0.00000  Uiso   1.00
I854   I     0.46064   0.39713   0.87526   0.00000  Uiso   1.00
I855   I     0.46060   0.60285   0.87525   0.00000  Uiso   1.00
I856   I     0.53940   0.39715   0.62475   0.00000  Uiso   1.00
N857   N     0.37597   0.41481   0.76092   0.00000  Uiso   1.00
H858   H     0.36726   0.39160   0.73542   0.00000  Uiso   1.00
H859   H     0.36787   0.40096   0.79073   0.00000  Uiso   1.00
N860   N     0.62403   0.58518   0.73908   0.00000  Uiso   1.00
H861   H     0.63274   0.60840   0.76458   0.00000  Uiso   1.00
H862   H     0.63213   0.59904   0.70927   0.00000  Uiso   1.00
N863   N     0.62403   0.41482   0.73906   0.00000  Uiso   1.00
H864   H     0.63274   0.39160   0.76456   0.00000  Uiso   1.00
H865   H     0.63213   0.40097   0.70925   0.00000  Uiso   1.00
N866   N     0.37597   0.58518   0.76094   0.00000  Uiso   1.00
H867   H     0.36726   0.60840   0.73544   0.00000  Uiso   1.00
H868   H     0.36787   0.59903   0.79075   0.00000  Uiso   1.00
C869   C     0.75429   0.50000   0.75169   0.00000  Uiso   1.00
C870   C     0.91238   0.50000   0.74831   0.00000  Uiso   1.00
C871   C     0.83767   0.50000   0.66575   0.00000  Uiso   1.00
C872   C     0.82900   0.50000   0.83425   0.00000  Uiso   1.00
C873   C     0.80723   0.35803   0.72045   0.00000  Uiso   1.00
C874   C     0.85944   0.64197   0.77955   0.00000  Uiso   1.00
C875   C     0.85944   0.35803   0.77955   0.00000  Uiso   1.00
C876   C     0.80723   0.64197   0.72045   0.00000  Uiso   1.00
C877   C     0.68801   0.45778   0.75287   0.00000  Uiso   1.00
C878   C     0.97865   0.54221   0.74713   0.00000  Uiso   1.00
C879   C     0.97865   0.45779   0.74713   0.00000  Uiso   1.00
C880   C     0.68802   0.54221   0.75288   0.00000  Uiso   1.00
C881   C     0.84371   0.54149   0.54866   0.00000  Uiso   1.00
C882   C     0.82295   0.45851   0.95134   0.00000  Uiso   1.00
C883   C     0.82294   0.54148   0.95133   0.00000  Uiso   1.00
C884   C     0.84373   0.45852   0.54867   0.00000  Uiso   1.00
C885   C     0.84836   0.54155   0.59476   0.00000  Uiso   1.00
C886   C     0.81831   0.45845   0.90524   0.00000  Uiso   1.00
C887   C     0.81829   0.54154   0.90523   0.00000  Uiso   1.00
C888   C     0.84837   0.45846   0.59477   0.00000  Uiso   1.00
C889   C     0.84458   0.50000   0.61818   0.00000  Uiso   1.00
C890   C     0.82208   0.50000   0.88182   0.00000  Uiso   1.00
C891   C     0.83757   0.50000   0.52472   0.00000  Uiso   1.00
C892   C     0.82910   0.50000   0.97528   0.00000  Uiso   1.00
C893   C     0.95706   0.50000   0.74685   0.00000  Uiso   1.00
C894   C     0.70961   0.50000   0.75315   0.00000  Uiso   1.00
Cu895  Cu    0.83333   0.54689   0.75000   0.00000  Uiso   1.00
Cu896  Cu    0.83333   0.45311   0.75000   0.00000  Uiso   1.00
H897   H     0.84701   0.57419   0.53245   0.00000  Uiso   1.00
H898   H     0.81966   0.42581   0.96755   0.00000  Uiso   1.00
H899   H     0.81963   0.57419   0.96754   0.00000  Uiso   1.00
H900   H     0.84703   0.42581   0.53246   0.00000  Uiso   1.00
N901   N     0.83333   0.61736   0.75000   0.00000  Uiso   1.00
N902   N     0.83333   0.38264   0.75000   0.00000  Uiso   1.00
O903   O     0.77321   0.53958   0.74999   0.00000  Uiso   1.00
O904   O     0.89345   0.46042   0.75001   0.00000  Uiso   1.00
O905   O     0.89345   0.53958   0.75000   0.00000  Uiso   1.00
O906   O     0.77321   0.46042   0.74999   0.00000  Uiso   1.00
O907   O     0.83333   0.53959   0.68573   0.00000  Uiso   1.00
O908   O     0.83334   0.46041   0.81427   0.00000  Uiso   1.00
O909   O     0.83334   0.53959   0.81427   0.00000  Uiso   1.00
O910   O     0.83333   0.46041   0.68573   0.00000  Uiso   1.00
I911   I     0.76558   0.39290   0.67268   0.00000  Uiso   1.00
I912   I     0.90109   0.60710   0.82732   0.00000  Uiso   1.00
I913   I     0.90109   0.39290   0.82732   0.00000  Uiso   1.00
I914   I     0.76557   0.60710   0.67268   0.00000  Uiso   1.00
I915   I     0.87269   0.60287   0.62474   0.00000  Uiso   1.00
I916   I     0.79397   0.39713   0.87526   0.00000  Uiso   1.00
I917   I     0.79394   0.60285   0.87525   0.00000  Uiso   1.00
I918   I     0.87273   0.39715   0.62475   0.00000  Uiso   1.00
N919   N     0.70930   0.41481   0.76092   0.00000  Uiso   1.00
H920   H     0.70059   0.39160   0.73542   0.00000  Uiso   1.00
H921   H     0.70120   0.40096   0.79073   0.00000  Uiso   1.00
N922   N     0.95737   0.58518   0.73908   0.00000  Uiso   1.00
H923   H     0.96607   0.60840   0.76458   0.00000  Uiso   1.00
H924   H     0.96547   0.59904   0.70927   0.00000  Uiso   1.00
N925   N     0.95737   0.41482   0.73906   0.00000  Uiso   1.00
H926   H     0.96607   0.39160   0.76456   0.00000  Uiso   1.00
H927   H     0.96547   0.40097   0.70925   0.00000  Uiso   1.00
N928   N     0.70930   0.58518   0.76094   0.00000  Uiso   1.00
H929   H     0.70060   0.60840   0.73544   0.00000  Uiso   1.00
H930   H     0.70120   0.59903   0.79075   0.00000  Uiso   1.00
C931   C     0.08762   0.83333   0.75169   0.00000  Uiso   1.00
C932   C     0.24571   0.83333   0.74831   0.00000  Uiso   1.00
C933   C     0.17100   0.83333   0.66575   0.00000  Uiso   1.00
C934   C     0.16233   0.83333   0.83425   0.00000  Uiso   1.00
C935   C     0.14056   0.69137   0.72045   0.00000  Uiso   1.00
C936   C     0.19277   0.97530   0.77955   0.00000  Uiso   1.00
C937   C     0.19277   0.69136   0.77955   0.00000  Uiso   1.00
C938   C     0.14056   0.97530   0.72045   0.00000  Uiso   1.00
C939   C     0.02135   0.79112   0.75287   0.00000  Uiso   1.00
C940   C     0.31199   0.87555   0.74713   0.00000  Uiso   1.00
C941   C     0.31198   0.79112   0.74713   0.00000  Uiso   1.00
C942   C     0.02135   0.87555   0.75288   0.00000  Uiso   1.00
C943   C     0.17705   0.87482   0.54866   0.00000  Uiso   1.00
C944   C     0.15629   0.79185   0.95134   0.00000  Uiso   1.00
C945   C     0.15627   0.87482   0.95133   0.00000  Uiso   1.00
C946   C     0.17706   0.79185   0.54867   0.00000  Uiso   1.00
C947   C     0.18169   0.87488   0.59476   0.00000  Uiso   1.00
C948   C     0.15164   0.79179   0.90524   0.00000  Uiso   1.00
C949   C     0.15163   0.87487   0.90523   0.00000  Uiso   1.00
C950   C     0.18171   0.79179   0.59477   0.00000  Uiso   1.00
C951   C     0.17792   0.83334   0.61818   0.00000  Uiso   1.00
C952   C     0.15542   0.83333   0.88182   0.00000  Uiso   1.00
C953   C     0.17090   0.83333   0.52472   0.00000  Uiso   1.00
C954   C     0.16243   0.83333   0.97528   0.00000  Uiso   1.00
C955   C     0.29039   0.83333   0.74685   0.00000  Uiso   1.00
C956   C     0.04294   0.83333   0.75315   0.00000  Uiso   1.00
Cu957  Cu    0.16667   0.88022   0.75000   0.00000  Uiso   1.00
Cu958  Cu    0.16667   0.78645   0.75000   0.00000  Uiso   1.00
H959   H     0.18034   0.90753   0.53245   0.00000  Uiso   1.00
H960   H     0.15299   0.75914   0.96755   0.00000  Uiso   1.00
H961   H     0.15296   0.90752   0.96754   0.00000  Uiso   1.00
H962   H     0.18037   0.75915   0.53246   0.00000  Uiso   1.00
N963   N     0.16667   0.95069   0.75000   0.00000  Uiso   1.00
N964   N     0.16667   0.71598   0.75000   0.00000  Uiso   1.00
O965   O     0.10655   0.87291   0.74999   0.00000  Uiso   1.00
O966   O     0.22679   0.79375   0.75001   0.00000  Uiso   1.00
O967   O     0.22679   0.87291   0.75000   0.00000  Uiso   1.00
O968   O     0.10655   0.79375   0.74999   0.00000  Uiso   1.00
O969   O     0.16666   0.87293   0.68573   0.00000  Uiso   1.00
O970   O     0.16667   0.79374   0.81427   0.00000  Uiso   1.00
O971   O     0.16667   0.87293   0.81427   0.00000  Uiso   1.00
O972   O     0.16666   0.79374   0.68573   0.00000  Uiso   1.00
I973   I     0.09891   0.72623   0.67268   0.00000  Uiso   1.00
I974   I     0.23442   0.94043   0.82732   0.00000  Uiso   1.00
I975   I     0.23443   0.72623   0.82732   0.00000  Uiso   1.00
I976   I     0.09891   0.94044   0.67268   0.00000  Uiso   1.00
I977   I     0.20603   0.93620   0.62474   0.00000  Uiso   1.00
I978   I     0.12731   0.73047   0.87526   0.00000  Uiso   1.00
I979   I     0.12727   0.93618   0.87525   0.00000  Uiso   1.00
I980   I     0.20606   0.73049   0.62475   0.00000  Uiso   1.00
N981   N     0.04263   0.74815   0.76092   0.00000  Uiso   1.00
H982   H     0.03393   0.72493   0.73542   0.00000  Uiso   1.00
H983   H     0.03453   0.73429   0.79073   0.00000  Uiso   1.00
N984   N     0.29070   0.91852   0.73908   0.00000  Uiso   1.00
H985   H     0.29941   0.94173   0.76458   0.00000  Uiso   1.00
H986   H     0.29880   0.93237   0.70927   0.00000  Uiso   1.00
N987   N     0.29070   0.74815   0.73906   0.00000  Uiso   1.00
H988   H     0.29941   0.72493   0.76456   0.00000  Uiso   1.00
H989   H     0.29880   0.73430   0.70925   0.00000  Uiso   1.00
N990   N     0.04263   0.91852   0.76094   0.00000  Uiso   1.00
H991   H     0.03393   0.94174   0.73544   0.00000  Uiso   1.00
H992   H     0.03453   0.93236   0.79075   0.00000  Uiso   1.00
C993   C     0.42095   0.83333   0.75169   0.00000  Uiso   1.00
C994   C     0.57905   0.83333   0.74831   0.00000  Uiso   1.00
C995   C     0.50434   0.83333   0.66575   0.00000  Uiso   1.00
C996   C     0.49566   0.83333   0.83425   0.00000  Uiso   1.00
C997   C     0.47390   0.69137   0.72045   0.00000  Uiso   1.00
C998   C     0.52610   0.97530   0.77955   0.00000  Uiso   1.00
C999   C     0.52610   0.69136   0.77955   0.00000  Uiso   1.00
C1000  C     0.47390   0.97530   0.72045   0.00000  Uiso   1.00
C1001  C     0.35468   0.79112   0.75287   0.00000  Uiso   1.00
C1002  C     0.64532   0.87555   0.74713   0.00000  Uiso   1.00
C1003  C     0.64532   0.79112   0.74713   0.00000  Uiso   1.00
C1004  C     0.35468   0.87555   0.75288   0.00000  Uiso   1.00
C1005  C     0.51038   0.87482   0.54866   0.00000  Uiso   1.00
C1006  C     0.48962   0.79185   0.95134   0.00000  Uiso   1.00
C1007  C     0.48961   0.87482   0.95133   0.00000  Uiso   1.00
C1008  C     0.51039   0.79185   0.54867   0.00000  Uiso   1.00
C1009  C     0.51502   0.87488   0.59476   0.00000  Uiso   1.00
C1010  C     0.48497   0.79179   0.90524   0.00000  Uiso   1.00
C1011  C     0.48496   0.87487   0.90523   0.00000  Uiso   1.00
C1012  C     0.51504   0.79179   0.59477   0.00000  Uiso   1.00
C1013  C     0.51125   0.83334   0.61818   0.00000  Uiso   1.00
C1014  C     0.48875   0.83333   0.88182   0.00000  Uiso   1.00
C1015  C     0.50423   0.83333   0.52472   0.00000  Uiso   1.00
C1016  C     0.49577   0.83333   0.97528   0.00000  Uiso   1.00
C1017  C     0.62372   0.83333   0.74685   0.00000  Uiso   1.00
C1018  C     0.37628   0.83333   0.75315   0.00000  Uiso   1.00
Cu1019 Cu    0.50000   0.88022   0.75000   0.00000  Uiso   1.00
Cu1020 Cu    0.50000   0.78645   0.75000   0.00000  Uiso   1.00
H1021  H     0.51368   0.90753   0.53245   0.00000  Uiso   1.00
H1022  H     0.48632   0.75914   0.96755   0.00000  Uiso   1.00
H1023  H     0.48630   0.90752   0.96754   0.00000  Uiso   1.00
H1024  H     0.51370   0.75915   0.53246   0.00000  Uiso   1.00
N1025  N     0.50000   0.95069   0.75000   0.00000  Uiso   1.00
N1026  N     0.50000   0.71598   0.75000   0.00000  Uiso   1.00
O1027  O     0.43988   0.87291   0.74999   0.00000  Uiso   1.00
O1028  O     0.56012   0.79375   0.75001   0.00000  Uiso   1.00
O1029  O     0.56012   0.87291   0.75000   0.00000  Uiso   1.00
O1030  O     0.43988   0.79375   0.74999   0.00000  Uiso   1.00
O1031  O     0.50000   0.87293   0.68573   0.00000  Uiso   1.00
O1032  O     0.50000   0.79374   0.81427   0.00000  Uiso   1.00
O1033  O     0.50000   0.87293   0.81427   0.00000  Uiso   1.00
O1034  O     0.50000   0.79374   0.68573   0.00000  Uiso   1.00
I1035  I     0.43225   0.72623   0.67268   0.00000  Uiso   1.00
I1036  I     0.56775   0.94043   0.82732   0.00000  Uiso   1.00
I1037  I     0.56776   0.72623   0.82732   0.00000  Uiso   1.00
I1038  I     0.43224   0.94044   0.67268   0.00000  Uiso   1.00
I1039  I     0.53936   0.93620   0.62474   0.00000  Uiso   1.00
I1040  I     0.46064   0.73047   0.87526   0.00000  Uiso   1.00
I1041  I     0.46060   0.93618   0.87525   0.00000  Uiso   1.00
I1042  I     0.53940   0.73049   0.62475   0.00000  Uiso   1.00
N1043  N     0.37597   0.74815   0.76092   0.00000  Uiso   1.00
H1044  H     0.36726   0.72493   0.73542   0.00000  Uiso   1.00
H1045  H     0.36787   0.73429   0.79073   0.00000  Uiso   1.00
N1046  N     0.62403   0.91852   0.73908   0.00000  Uiso   1.00
H1047  H     0.63274   0.94173   0.76458   0.00000  Uiso   1.00
H1048  H     0.63213   0.93237   0.70927   0.00000  Uiso   1.00
N1049  N     0.62403   0.74815   0.73906   0.00000  Uiso   1.00
H1050  H     0.63274   0.72493   0.76456   0.00000  Uiso   1.00
H1051  H     0.63213   0.73430   0.70925   0.00000  Uiso   1.00
N1052  N     0.37597   0.91852   0.76094   0.00000  Uiso   1.00
H1053  H     0.36726   0.94174   0.73544   0.00000  Uiso   1.00
H1054  H     0.36787   0.93236   0.79075   0.00000  Uiso   1.00
C1055  C     0.75429   0.83333   0.75169   0.00000  Uiso   1.00
C1056  C     0.91238   0.83333   0.74831   0.00000  Uiso   1.00
C1057  C     0.83767   0.83333   0.66575   0.00000  Uiso   1.00
C1058  C     0.82900   0.83333   0.83425   0.00000  Uiso   1.00
C1059  C     0.80723   0.69137   0.72045   0.00000  Uiso   1.00
C1060  C     0.85944   0.97530   0.77955   0.00000  Uiso   1.00
C1061  C     0.85944   0.69136   0.77955   0.00000  Uiso   1.00
C1062  C     0.80723   0.97530   0.72045   0.00000  Uiso   1.00
C1063  C     0.68801   0.79112   0.75287   0.00000  Uiso   1.00
C1064  C     0.97865   0.87555   0.74713   0.00000  Uiso   1.00
C1065  C     0.97865   0.79112   0.74713   0.00000  Uiso   1.00
C1066  C     0.68802   0.87555   0.75288   0.00000  Uiso   1.00
C1067  C     0.84371   0.87482   0.54866   0.00000  Uiso   1.00
C1068  C     0.82295   0.79185   0.95134   0.00000  Uiso   1.00
C1069  C     0.82294   0.87482   0.95133   0.00000  Uiso   1.00
C1070  C     0.84373   0.79185   0.54867   0.00000  Uiso   1.00
C1071  C     0.84836   0.87488   0.59476   0.00000  Uiso   1.00
C1072  C     0.81831   0.79179   0.90524   0.00000  Uiso   1.00
C1073  C     0.81829   0.87487   0.90523   0.00000  Uiso   1.00
C1074  C     0.84837   0.79179   0.59477   0.00000  Uiso   1.00
C1075  C     0.84458   0.83334   0.61818   0.00000  Uiso   1.00
C1076  C     0.82208   0.83333   0.88182   0.00000  Uiso   1.00
C1077  C     0.83757   0.83333   0.52472   0.00000  Uiso   1.00
C1078  C     0.82910   0.83333   0.97528   0.00000  Uiso   1.00
C1079  C     0.95706   0.83333   0.74685   0.00000  Uiso   1.00
C1080  C     0.70961   0.83333   0.75315   0.00000  Uiso   1.00
Cu1081 Cu    0.83333   0.88022   0.75000   0.00000  Uiso   1.00
Cu1082 Cu    0.83333   0.78645   0.75000   0.00000  Uiso   1.00
H1083  H     0.84701   0.90753   0.53245   0.00000  Uiso   1.00
H1084  H     0.81966   0.75914   0.96755   0.00000  Uiso   1.00
H1085  H     0.81963   0.90752   0.96754   0.00000  Uiso   1.00
H1086  H     0.84703   0.75915   0.53246   0.00000  Uiso   1.00
N1087  N     0.83333   0.95069   0.75000   0.00000  Uiso   1.00
N1088  N     0.83333   0.71598   0.75000   0.00000  Uiso   1.00
O1089  O     0.77321   0.87291   0.74999   0.00000  Uiso   1.00
O1090  O     0.89345   0.79375   0.75001   0.00000  Uiso   1.00
O1091  O     0.89345   0.87291   0.75000   0.00000  Uiso   1.00
O1092  O     0.77321   0.79375   0.74999   0.00000  Uiso   1.00
O1093  O     0.83333   0.87293   0.68573   0.00000  Uiso   1.00
O1094  O     0.83334   0.79374   0.81427   0.00000  Uiso   1.00
O1095  O     0.83334   0.87293   0.81427   0.00000  Uiso   1.00
O1096  O     0.83333   0.79374   0.68573   0.00000  Uiso   1.00
I1097  I     0.76558   0.72623   0.67268   0.00000  Uiso   1.00
I1098  I     0.90109   0.94043   0.82732   0.00000  Uiso   1.00
I1099  I     0.90109   0.72623   0.82732   0.00000  Uiso   1.00
I1100  I     0.76557   0.94044   0.67268   0.00000  Uiso   1.00
I1101  I     0.87269   0.93620   0.62474   0.00000  Uiso   1.00
I1102  I     0.79397   0.73047   0.87526   0.00000  Uiso   1.00
I1103  I     0.79394   0.93618   0.87525   0.00000  Uiso   1.00
I1104  I     0.87273   0.73049   0.62475   0.00000  Uiso   1.00
N1105  N     0.70930   0.74815   0.76092   0.00000  Uiso   1.00
H1106  H     0.70059   0.72493   0.73542   0.00000  Uiso   1.00
H1107  H     0.70120   0.73429   0.79073   0.00000  Uiso   1.00
N1108  N     0.95737   0.91852   0.73908   0.00000  Uiso   1.00
H1109  H     0.96607   0.94173   0.76458   0.00000  Uiso   1.00
H1110  H     0.96547   0.93237   0.70927   0.00000  Uiso   1.00
N1111  N     0.95737   0.74815   0.73906   0.00000  Uiso   1.00
H1112  H     0.96607   0.72493   0.76456   0.00000  Uiso   1.00
H1113  H     0.96547   0.73430   0.70925   0.00000  Uiso   1.00
N1114  N     0.70930   0.91852   0.76094   0.00000  Uiso   1.00
H1115  H     0.70060   0.94174   0.73544   0.00000  Uiso   1.00
H1116  H     0.70120   0.93236   0.79075   0.00000  Uiso   1.00
loop_
_geom_bond_atom_site_label_1
_geom_bond_atom_site_label_2
_geom_bond_distance
_geom_bond_site_symmetry_2
_ccdc_geom_bond_type
C1     O35     1.308   .     A
C1     O38     1.308   .     A
C1     C26     1.474   .     S
C2     O37     1.308   .     A
C2     C25     1.474   .     S
C2     O36     1.308   .     A
C3     O42     1.311   .     A
C3     O39     1.311   .     A
C3     C21     1.480   .     S
C4     C22     1.480   .     S
C4     O41     1.311   .     A
C4     O40     1.311   .     A
C5     N34     1.380   .     A
C5     I43     2.151   .     S
C5     C380    1.430   1_545 S
C6     N33     1.380   .     A
C6     I44     2.151   .     S
C6     C193    1.430   .     S
C7     I45     2.151   .     S
C7     N34     1.380   .     A
C7     C378    1.430   1_545 S
C8     I46     2.151   .     S
C8     N33     1.380   .     A
C8     C191    1.430   .     S
C9     N51     1.437   .     S
C9     C26     1.414   .     A
C9     C135    1.399   1_455 S
C10    C25     1.413   .     A
C10    N54     1.437   .     S
C10    C74     1.399   .     S
C11    C25     1.413   .     A
C11    N57     1.437   .     S
C11    C71     1.399   .     S
C12    N60     1.437   .     S
C12    C26     1.413   .     A
C12    C134    1.399   1_455 S
C13    C17     1.391   .     A
C13    C23     1.408   .     A
C13    H29     1.077   .     S
C14    C24     1.408   .     A
C14    H30     1.077   .     S
C14    C18     1.391   .     A
C15    H31     1.077   .     S
C15    C19     1.391   .     A
C15    C24     1.408   .     A
C16    H32     1.077   .     S
C16    C20     1.391   .     A
C16    C23     1.408   .     A
C17    C21     1.408   .     A
C17    I47     2.118   .     S
C18    C22     1.408   .     A
C18    I48     2.118   .     S
C19    I49     2.118   .     S
C19    C22     1.408   .     A
C20    C21     1.408   .     A
C20    I50     2.118   .     S
C23    C582    1.498   1_554 S
C24    C581    1.498   .     S
Cu27   O41     1.959   .     S
Cu27   N33     2.041   .     S
Cu27   O39     1.959   .     S
Cu27   O37     1.989   .     S
Cu27   Cu28    2.715   .     S
Cu27   O35     1.989   .     S
Cu28   O38     1.989   .     S
Cu28   O42     1.959   .     S
Cu28   O40     1.959   .     S
Cu28   N34     2.041   .     S
Cu28   O36     1.989   .     S
N51    H52     1.044   .     S
N51    H53     1.045   .     S
N54    H56     1.045   .     S
N54    H55     1.044   .     S
N57    H58     1.044   .     S
N57    H59     1.045   .     S
N60    H62     1.045   .     S
N60    H61     1.044   .     S
C63    O97     1.308   .     A
C63    O100    1.308   .     A
C63    C88     1.474   .     S
C64    O99     1.308   .     A
C64    C87     1.474   .     S
C64    O98     1.308   .     A
C65    O104    1.311   .     A
C65    O101    1.311   .     A
C65    C83     1.480   .     S
C66    C84     1.480   .     S
C66    O103    1.311   .     A
C66    O102    1.311   .     A
C67    N96     1.380   .     A
C67    I105    2.151   .     S
C67    C442    1.430   1_545 S
C68    N95     1.380   .     A
C68    I106    2.151   .     S
C68    C255    1.430   .     S
C69    I107    2.151   .     S
C69    N96     1.380   .     A
C69    C440    1.430   1_545 S
C70    I108    2.151   .     S
C70    N95     1.380   .     A
C70    C253    1.430   .     S
C71    N113    1.437   .     S
C71    C88     1.414   .     A
C72    C87     1.413   .     A
C72    N116    1.437   .     S
C72    C136    1.399   .     S
C73    C87     1.413   .     A
C73    N119    1.437   .     S
C73    C133    1.399   .     S
C74    N122    1.437   .     S
C74    C88     1.413   .     A
C75    C79     1.391   .     A
C75    C85     1.408   .     A
C75    H91     1.077   .     S
C76    C86     1.408   .     A
C76    H92     1.077   .     S
C76    C80     1.391   .     A
C77    H93     1.077   .     S
C77    C81     1.391   .     A
C77    C86     1.408   .     A
C78    H94     1.077   .     S
C78    C82     1.391   .     A
C78    C85     1.408   .     A
C79    C83     1.408   .     A
C79    I109    2.118   .     S
C80    C84     1.408   .     A
C80    I110    2.118   .     S
C81    I111    2.118   .     S
C81    C84     1.408   .     A
C82    C83     1.408   .     A
C82    I112    2.118   .     S
C85    C644    1.498   1_554 S
C86    C643    1.498   .     S
Cu89   O103    1.959   .     S
Cu89   N95     2.041   .     S
Cu89   O101    1.959   .     S
Cu89   O99     1.989   .     S
Cu89   Cu90    2.715   .     S
Cu89   O97     1.989   .     S
Cu90   O100    1.989   .     S
Cu90   O104    1.959   .     S
Cu90   O102    1.959   .     S
Cu90   N96     2.041   .     S
Cu90   O98     1.989   .     S
N113   H114    1.044   .     S
N113   H115    1.045   .     S
N116   H118    1.045   .     S
N116   H117    1.044   .     S
N119   H120    1.044   .     S
N119   H121    1.045   .     S
N122   H124    1.045   .     S
N122   H123    1.044   .     S
C125   O159    1.308   .     A
C125   O162    1.308   .     A
C125   C150    1.474   .     S
C126   O161    1.308   .     A
C126   C149    1.474   .     S
C126   O160    1.308   .     A
C127   O166    1.311   .     A
C127   O163    1.311   .     A
C127   C145    1.480   .     S
C128   C146    1.480   .     S
C128   O165    1.311   .     A
C128   O164    1.311   .     A
C129   N158    1.380   .     A
C129   I167    2.151   .     S
C129   C504    1.430   1_545 S
C130   N157    1.380   .     A
C130   I168    2.151   .     S
C130   C317    1.430   .     S
C131   I169    2.151   .     S
C131   N158    1.380   .     A
C131   C502    1.430   1_545 S
C132   I170    2.151   .     S
C132   N157    1.380   .     A
C132   C315    1.430   .     S
C133   N175    1.437   .     S
C133   C150    1.414   .     A
C134   C149    1.413   .     A
C134   N178    1.437   .     S
C134   C12     1.399   1_655 S
C135   C149    1.413   .     A
C135   N181    1.437   .     S
C135   C9      1.399   1_655 S
C136   N184    1.437   .     S
C136   C150    1.413   .     A
C137   C141    1.391   .     A
C137   C147    1.408   .     A
C137   H153    1.077   .     S
C138   C148    1.408   .     A
C138   H154    1.077   .     S
C138   C142    1.391   .     A
C139   H155    1.077   .     S
C139   C143    1.391   .     A
C139   C148    1.408   .     A
C140   H156    1.077   .     S
C140   C144    1.391   .     A
C140   C147    1.408   .     A
C141   C145    1.408   .     A
C141   I171    2.118   .     S
C142   C146    1.408   .     A
C142   I172    2.118   .     S
C143   I173    2.118   .     S
C143   C146    1.408   .     A
C144   C145    1.408   .     A
C144   I174    2.118   .     S
C147   C706    1.498   1_554 S
C148   C705    1.498   .     S
Cu151  O165    1.959   .     S
Cu151  N157    2.041   .     S
Cu151  O163    1.959   .     S
Cu151  O161    1.989   .     S
Cu151  Cu152   2.715   .     S
Cu151  O159    1.989   .     S
Cu152  O162    1.989   .     S
Cu152  O166    1.959   .     S
Cu152  O164    1.959   .     S
Cu152  N158    2.041   .     S
Cu152  O160    1.989   .     S
N175   H176    1.044   .     S
N175   H177    1.045   .     S
N178   H180    1.045   .     S
N178   H179    1.044   .     S
N181   H182    1.044   .     S
N181   H183    1.045   .     S
N184   H186    1.045   .     S
N184   H185    1.044   .     S
C187   O221    1.308   .     A
C187   O224    1.308   .     A
C187   C212    1.474   .     S
C188   O223    1.308   .     A
C188   C211    1.474   .     S
C188   O222    1.308   .     A
C189   O228    1.311   .     A
C189   O225    1.311   .     A
C189   C207    1.480   .     S
C190   C208    1.480   .     S
C190   O227    1.311   .     A
C190   O226    1.311   .     A
C191   N220    1.380   .     A
C191   I229    2.151   .     S
C192   N219    1.380   .     A
C192   I230    2.151   .     S
C192   C379    1.430   .     S
C193   I231    2.151   .     S
C193   N220    1.380   .     A
C194   I232    2.151   .     S
C194   N219    1.380   .     A
C194   C377    1.430   .     S
C195   N237    1.437   .     S
C195   C212    1.414   .     A
C195   C321    1.399   1_455 S
C196   C211    1.413   .     A
C196   N240    1.437   .     S
C196   C260    1.399   .     S
C197   C211    1.413   .     A
C197   N243    1.437   .     S
C197   C257    1.399   .     S
C198   N246    1.437   .     S
C198   C212    1.413   .     A
C198   C320    1.399   1_455 S
C199   C203    1.391   .     A
C199   C209    1.408   .     A
C199   H215    1.077   .     S
C200   C210    1.408   .     A
C200   H216    1.077   .     S
C200   C204    1.391   .     A
C201   H217    1.077   .     S
C201   C205    1.391   .     A
C201   C210    1.408   .     A
C202   H218    1.077   .     S
C202   C206    1.391   .     A
C202   C209    1.408   .     A
C203   C207    1.408   .     A
C203   I233    2.118   .     S
C204   C208    1.408   .     A
C204   I234    2.118   .     S
C205   I235    2.118   .     S
C205   C208    1.408   .     A
C206   C207    1.408   .     A
C206   I236    2.118   .     S
C209   C768    1.498   1_554 S
C210   C767    1.498   .     S
Cu213  O227    1.959   .     S
Cu213  N219    2.041   .     S
Cu213  O225    1.959   .     S
Cu213  O223    1.989   .     S
Cu213  Cu214   2.715   .     S
Cu213  O221    1.989   .     S
Cu214  O224    1.989   .     S
Cu214  O228    1.959   .     S
Cu214  O226    1.959   .     S
Cu214  N220    2.041   .     S
Cu214  O222    1.989   .     S
N237   H238    1.044   .     S
N237   H239    1.045   .     S
N240   H242    1.045   .     S
N240   H241    1.044   .     S
N243   H244    1.044   .     S
N243   H245    1.045   .     S
N246   H248    1.045   .     S
N246   H247    1.044   .     S
C249   O283    1.308   .     A
C249   O286    1.308   .     A
C249   C274    1.474   .     S
C250   O285    1.308   .     A
C250   C273    1.474   .     S
C250   O284    1.308   .     A
C251   O290    1.311   .     A
C251   O287    1.311   .     A
C251   C269    1.480   .     S
C252   C270    1.480   .     S
C252   O289    1.311   .     A
C252   O288    1.311   .     A
C253   N282    1.380   .     A
C253   I291    2.151   .     S
C254   N281    1.380   .     A
C254   I292    2.151   .     S
C254   C441    1.430   .     S
C255   I293    2.151   .     S
C255   N282    1.380   .     A
C256   I294    2.151   .     S
C256   N281    1.380   .     A
C256   C439    1.430   .     S
C257   N299    1.437   .     S
C257   C274    1.414   .     A
C258   C273    1.413   .     A
C258   N302    1.437   .     S
C258   C322    1.399   .     S
C259   C273    1.413   .     A
C259   N305    1.437   .     S
C259   C319    1.399   .     S
C260   N308    1.437   .     S
C260   C274    1.413   .     A
C261   C265    1.391   .     A
C261   C271    1.408   .     A
C261   H277    1.077   .     S
C262   C272    1.408   .     A
C262   H278    1.077   .     S
C262   C266    1.391   .     A
C263   H279    1.077   .     S
C263   C267    1.391   .     A
C263   C272    1.408   .     A
C264   H280    1.077   .     S
C264   C268    1.391   .     A
C264   C271    1.408   .     A
C265   C269    1.408   .     A
C265   I295    2.118   .     S
C266   C270    1.408   .     A
C266   I296    2.118   .     S
C267   I297    2.118   .     S
C267   C270    1.408   .     A
C268   C269    1.408   .     A
C268   I298    2.118   .     S
C271   C830    1.498   1_554 S
C272   C829    1.498   .     S
Cu275  O289    1.959   .     S
Cu275  N281    2.041   .     S
Cu275  O287    1.959   .     S
Cu275  O285    1.989   .     S
Cu275  Cu276   2.715   .     S
Cu275  O283    1.989   .     S
Cu276  O286    1.989   .     S
Cu276  O290    1.959   .     S
Cu276  O288    1.959   .     S
Cu276  N282    2.041   .     S
Cu276  O284    1.989   .     S
N299   H300    1.044   .     S
N299   H301    1.045   .     S
N302   H304    1.045   .     S
N302   H303    1.044   .     S
N305   H306    1.044   .     S
N305   H307    1.045   .     S
N308   H310    1.045   .     S
N308   H309    1.044   .     S
C311   O345    1.308   .     A
C311   O348    1.308   .     A
C311   C336    1.474   .     S
C312   O347    1.308   .     A
C312   C335    1.474   .     S
C312   O346    1.308   .     A
C313   O352    1.311   .     A
C313   O349    1.311   .     A
C313   C331    1.480   .     S
C314   C332    1.480   .     S
C314   O351    1.311   .     A
C314   O350    1.311   .     A
C315   N344    1.380   .     A
C315   I353    2.151   .     S
C316   N343    1.380   .     A
C316   I354    2.151   .     S
C316   C503    1.430   .     S
C317   I355    2.151   .     S
C317   N344    1.380   .     A
C318   I356    2.151   .     S
C318   N343    1.380   .     A
C318   C501    1.430   .     S
C319   N361    1.437   .     S
C319   C336    1.414   .     A
C320   C335    1.413   .     A
C320   N364    1.437   .     S
C320   C198    1.399   1_655 S
C321   C335    1.413   .     A
C321   N367    1.437   .     S
C321   C195    1.399   1_655 S
C322   N370    1.437   .     S
C322   C336    1.413   .     A
C323   C327    1.391   .     A
C323   C333    1.408   .     A
C323   H339    1.077   .     S
C324   C334    1.408   .     A
C324   H340    1.077   .     S
C324   C328    1.391   .     A
C325   H341    1.077   .     S
C325   C329    1.391   .     A
C325   C334    1.408   .     A
C326   H342    1.077   .     S
C326   C330    1.391   .     A
C326   C333    1.408   .     A
C327   C331    1.408   .     A
C327   I357    2.118   .     S
C328   C332    1.408   .     A
C328   I358    2.118   .     S
C329   I359    2.118   .     S
C329   C332    1.408   .     A
C330   C331    1.408   .     A
C330   I360    2.118   .     S
C333   C892    1.498   1_554 S
C334   C891    1.498   .     S
Cu337  O351    1.959   .     S
Cu337  N343    2.041   .     S
Cu337  O349    1.959   .     S
Cu337  O347    1.989   .     S
Cu337  Cu338   2.715   .     S
Cu337  O345    1.989   .     S
Cu338  O348    1.989   .     S
Cu338  O352    1.959   .     S
Cu338  O350    1.959   .     S
Cu338  N344    2.041   .     S
Cu338  O346    1.989   .     S
N361   H362    1.044   .     S
N361   H363    1.045   .     S
N364   H366    1.045   .     S
N364   H365    1.044   .     S
N367   H368    1.044   .     S
N367   H369    1.045   .     S
N370   H372    1.045   .     S
N370   H371    1.044   .     S
C373   O407    1.308   .     A
C373   O410    1.308   .     A
C373   C398    1.474   .     S
C374   O409    1.308   .     A
C374   C397    1.474   .     S
C374   O408    1.308   .     A
C375   O414    1.311   .     A
C375   O411    1.311   .     A
C375   C393    1.480   .     S
C376   C394    1.480   .     S
C376   O413    1.311   .     A
C376   O412    1.311   .     A
C377   N406    1.380   .     A
C377   I415    2.151   .     S
C378   N405    1.380   .     A
C378   I416    2.151   .     S
C378   C7      1.430   1_565 S
C379   I417    2.151   .     S
C379   N406    1.380   .     A
C380   I418    2.151   .     S
C380   N405    1.380   .     A
C380   C5      1.430   1_565 S
C381   N423    1.437   .     S
C381   C398    1.414   .     A
C381   C507    1.399   1_455 S
C382   C397    1.413   .     A
C382   N426    1.437   .     S
C382   C446    1.399   .     S
C383   C397    1.413   .     A
C383   N429    1.437   .     S
C383   C443    1.399   .     S
C384   N432    1.437   .     S
C384   C398    1.413   .     A
C384   C506    1.399   1_455 S
C385   C389    1.391   .     A
C385   C395    1.408   .     A
C385   H401    1.077   .     S
C386   C396    1.408   .     A
C386   H402    1.077   .     S
C386   C390    1.391   .     A
C387   H403    1.077   .     S
C387   C391    1.391   .     A
C387   C396    1.408   .     A
C388   H404    1.077   .     S
C388   C392    1.391   .     A
C388   C395    1.408   .     A
C389   C393    1.408   .     A
C389   I419    2.118   .     S
C390   C394    1.408   .     A
C390   I420    2.118   .     S
C391   I421    2.118   .     S
C391   C394    1.408   .     A
C392   C393    1.408   .     A
C392   I422    2.118   .     S
C395   C954    1.498   1_554 S
C396   C953    1.498   .     S
Cu399  O413    1.959   .     S
Cu399  N405    2.041   .     S
Cu399  O411    1.959   .     S
Cu399  O409    1.989   .     S
Cu399  Cu400   2.715   .     S
Cu399  O407    1.989   .     S
Cu400  O410    1.989   .     S
Cu400  O414    1.959   .     S
Cu400  O412    1.959   .     S
Cu400  N406    2.041   .     S
Cu400  O408    1.989   .     S
N423   H424    1.044   .     S
N423   H425    1.045   .     S
N426   H428    1.045   .     S
N426   H427    1.044   .     S
N429   H430    1.044   .     S
N429   H431    1.045   .     S
N432   H434    1.045   .     S
N432   H433    1.044   .     S
C435   O469    1.308   .     A
C435   O472    1.308   .     A
C435   C460    1.474   .     S
C436   O471    1.308   .     A
C436   C459    1.474   .     S
C436   O470    1.308   .     A
C437   O476    1.311   .     A
C437   O473    1.311   .     A
C437   C455    1.480   .     S
C438   C456    1.480   .     S
C438   O475    1.311   .     A
C438   O474    1.311   .     A
C439   N468    1.380   .     A
C439   I477    2.151   .     S
C440   N467    1.380   .     A
C440   I478    2.151   .     S
C440   C69     1.430   1_565 S
C441   I479    2.151   .     S
C441   N468    1.380   .     A
C442   I480    2.151   .     S
C442   N467    1.380   .     A
C442   C67     1.430   1_565 S
C443   N485    1.437   .     S
C443   C460    1.414   .     A
C444   C459    1.413   .     A
C444   N488    1.437   .     S
C444   C508    1.399   .     S
C445   C459    1.413   .     A
C445   N491    1.437   .     S
C445   C505    1.399   .     S
C446   N494    1.437   .     S
C446   C460    1.413   .     A
C447   C451    1.391   .     A
C447   C457    1.408   .     A
C447   H463    1.077   .     S
C448   C458    1.408   .     A
C448   H464    1.077   .     S
C448   C452    1.391   .     A
C449   H465    1.077   .     S
C449   C453    1.391   .     A
C449   C458    1.408   .     A
C450   H466    1.077   .     S
C450   C454    1.391   .     A
C450   C457    1.408   .     A
C451   C455    1.408   .     A
C451   I481    2.118   .     S
C452   C456    1.408   .     A
C452   I482    2.118   .     S
C453   I483    2.118   .     S
C453   C456    1.408   .     A
C454   C455    1.408   .     A
C454   I484    2.118   .     S
C457   C1016   1.498   1_554 S
C458   C1015   1.498   .     S
Cu461  O475    1.959   .     S
Cu461  N467    2.041   .     S
Cu461  O473    1.959   .     S
Cu461  O471    1.989   .     S
Cu461  Cu462   2.715   .     S
Cu461  O469    1.989   .     S
Cu462  O472    1.989   .     S
Cu462  O476    1.959   .     S
Cu462  O474    1.959   .     S
Cu462  N468    2.041   .     S
Cu462  O470    1.989   .     S
N485   H486    1.044   .     S
N485   H487    1.045   .     S
N488   H490    1.045   .     S
N488   H489    1.044   .     S
N491   H492    1.044   .     S
N491   H493    1.045   .     S
N494   H496    1.045   .     S
N494   H495    1.044   .     S
C497   O531    1.308   .     A
C497   O534    1.308   .     A
C497   C522    1.474   .     S
C498   O533    1.308   .     A
C498   C521    1.474   .     S
C498   O532    1.308   .     A
C499   O538    1.311   .     A
C499   O535    1.311   .     A
C499   C517    1.480   .     S
C500   C518    1.480   .     S
C500   O537    1.311   .     A
C500   O536    1.311   .     A
C501   N530    1.380   .     A
C501   I539    2.151   .     S
C502   N529    1.380   .     A
C502   I540    2.151   .     S
C502   C131    1.430   1_565 S
C503   I541    2.151   .     S
C503   N530    1.380   .     A
C504   I542    2.151   .     S
C504   N529    1.380   .     A
C504   C129    1.430   1_565 S
C505   N547    1.437   .     S
C505   C522    1.414   .     A
C506   C521    1.413   .     A
C506   N550    1.437   .     S
C506   C384    1.399   1_655 S
C507   C521    1.413   .     A
C507   N553    1.437   .     S
C507   C381    1.399   1_655 S
C508   N556    1.437   .     S
C508   C522    1.413   .     A
C509   C513    1.391   .     A
C509   C519    1.408   .     A
C509   H525    1.077   .     S
C510   C520    1.408   .     A
C510   H526    1.077   .     S
C510   C514    1.391   .     A
C511   H527    1.077   .     S
C511   C515    1.391   .     A
C511   C520    1.408   .     A
C512   H528    1.077   .     S
C512   C516    1.391   .     A
C512   C519    1.408   .     A
C513   C517    1.408   .     A
C513   I543    2.118   .     S
C514   C518    1.408   .     A
C514   I544    2.118   .     S
C515   I545    2.118   .     S
C515   C518    1.408   .     A
C516   C517    1.408   .     A
C516   I546    2.118   .     S
C519   C1078   1.498   1_554 S
C520   C1077   1.498   .     S
Cu523  O537    1.959   .     S
Cu523  N529    2.041   .     S
Cu523  O535    1.959   .     S
Cu523  O533    1.989   .     S
Cu523  Cu524   2.715   .     S
Cu523  O531    1.989   .     S
Cu524  O534    1.989   .     S
Cu524  O538    1.959   .     S
Cu524  O536    1.959   .     S
Cu524  N530    2.041   .     S
Cu524  O532    1.989   .     S
N547   H548    1.044   .     S
N547   H549    1.045   .     S
N550   H552    1.045   .     S
N550   H551    1.044   .     S
N553   H554    1.044   .     S
N553   H555    1.045   .     S
N556   H558    1.045   .     S
N556   H557    1.044   .     S
C559   O593    1.308   .     A
C559   O596    1.308   .     A
C559   C584    1.474   .     S
C560   O595    1.308   .     A
C560   C583    1.474   .     S
C560   O594    1.308   .     A
C561   O600    1.311   .     A
C561   O597    1.311   .     A
C561   C579    1.480   .     S
C562   C580    1.480   .     S
C562   O599    1.311   .     A
C562   O598    1.311   .     A
C563   N592    1.380   .     A
C563   I601    2.151   .     S
C563   C938    1.430   1_545 S
C564   N591    1.380   .     A
C564   I602    2.151   .     S
C564   C751    1.430   .     S
C565   I603    2.151   .     S
C565   N592    1.380   .     A
C565   C936    1.430   1_545 S
C566   I604    2.151   .     S
C566   N591    1.380   .     A
C566   C749    1.430   .     S
C567   N609    1.437   .     S
C567   C584    1.414   .     A
C567   C693    1.399   1_455 S
C568   C583    1.413   .     A
C568   N612    1.437   .     S
C568   C632    1.399   .     S
C569   C583    1.413   .     A
C569   N615    1.437   .     S
C569   C629    1.399   .     S
C570   N618    1.437   .     S
C570   C584    1.413   .     A
C570   C692    1.399   1_455 S
C571   C575    1.391   .     A
C571   C581    1.408   .     A
C571   H587    1.077   .     S
C572   C582    1.408   .     A
C572   H588    1.077   .     S
C572   C576    1.391   .     A
C573   H589    1.077   .     S
C573   C577    1.391   .     A
C573   C582    1.408   .     A
C574   H590    1.077   .     S
C574   C578    1.391   .     A
C574   C581    1.408   .     A
C575   C579    1.408   .     A
C575   I605    2.118   .     S
C576   C580    1.408   .     A
C576   I606    2.118   .     S
C577   I607    2.118   .     S
C577   C580    1.408   .     A
C578   C579    1.408   .     A
C578   I608    2.118   .     S
C582   C23     1.498   1_556 S
Cu585  O599    1.959   .     S
Cu585  N591    2.041   .     S
Cu585  O597    1.959   .     S
Cu585  O595    1.989   .     S
Cu585  Cu586   2.715   .     S
Cu585  O593    1.989   .     S
Cu586  O596    1.989   .     S
Cu586  O600    1.959   .     S
Cu586  O598    1.959   .     S
Cu586  N592    2.041   .     S
Cu586  O594    1.989   .     S
N609   H610    1.044   .     S
N609   H611    1.045   .     S
N612   H614    1.045   .     S
N612   H613    1.044   .     S
N615   H616    1.044   .     S
N615   H617    1.045   .     S
N618   H620    1.045   .     S
N618   H619    1.044   .     S
C621   O655    1.308   .     A
C621   O658    1.308   .     A
C621   C646    1.474   .     S
C622   O657    1.308   .     A
C622   C645    1.474   .     S
C622   O656    1.308   .     A
C623   O662    1.311   .     A
C623   O659    1.311   .     A
C623   C641    1.480   .     S
C624   C642    1.480   .     S
C624   O661    1.311   .     A
C624   O660    1.311   .     A
C625   N654    1.380   .     A
C625   I663    2.151   .     S
C625   C1000   1.430   1_545 S
C626   N653    1.380   .     A
C626   I664    2.151   .     S
C626   C813    1.430   .     S
C627   I665    2.151   .     S
C627   N654    1.380   .     A
C627   C998    1.430   1_545 S
C628   I666    2.151   .     S
C628   N653    1.380   .     A
C628   C811    1.430   .     S
C629   N671    1.437   .     S
C629   C646    1.414   .     A
C630   C645    1.413   .     A
C630   N674    1.437   .     S
C630   C694    1.399   .     S
C631   C645    1.413   .     A
C631   N677    1.437   .     S
C631   C691    1.399   .     S
C632   N680    1.437   .     S
C632   C646    1.413   .     A
C633   C637    1.391   .     A
C633   C643    1.408   .     A
C633   H649    1.077   .     S
C634   C644    1.408   .     A
C634   H650    1.077   .     S
C634   C638    1.391   .     A
C635   H651    1.077   .     S
C635   C639    1.391   .     A
C635   C644    1.408   .     A
C636   H652    1.077   .     S
C636   C640    1.391   .     A
C636   C643    1.408   .     A
C637   C641    1.408   .     A
C637   I667    2.118   .     S
C638   C642    1.408   .     A
C638   I668    2.118   .     S
C639   I669    2.118   .     S
C639   C642    1.408   .     A
C640   C641    1.408   .     A
C640   I670    2.118   .     S
C644   C85     1.498   1_556 S
Cu647  O661    1.959   .     S
Cu647  N653    2.041   .     S
Cu647  O659    1.959   .     S
Cu647  O657    1.989   .     S
Cu647  Cu648   2.715   .     S
Cu647  O655    1.989   .     S
Cu648  O658    1.989   .     S
Cu648  O662    1.959   .     S
Cu648  O660    1.959   .     S
Cu648  N654    2.041   .     S
Cu648  O656    1.989   .     S
N671   H672    1.044   .     S
N671   H673    1.045   .     S
N674   H676    1.045   .     S
N674   H675    1.044   .     S
N677   H678    1.044   .     S
N677   H679    1.045   .     S
N680   H682    1.045   .     S
N680   H681    1.044   .     S
C683   O717    1.308   .     A
C683   O720    1.308   .     A
C683   C708    1.474   .     S
C684   O719    1.308   .     A
C684   C707    1.474   .     S
C684   O718    1.308   .     A
C685   O724    1.311   .     A
C685   O721    1.311   .     A
C685   C703    1.480   .     S
C686   C704    1.480   .     S
C686   O723    1.311   .     A
C686   O722    1.311   .     A
C687   N716    1.380   .     A
C687   I725    2.151   .     S
C687   C1062   1.430   1_545 S
C688   N715    1.380   .     A
C688   I726    2.151   .     S
C688   C875    1.430   .     S
C689   I727    2.151   .     S
C689   N716    1.380   .     A
C689   C1060   1.430   1_545 S
C690   I728    2.151   .     S
C690   N715    1.380   .     A
C690   C873    1.430   .     S
C691   N733    1.437   .     S
C691   C708    1.414   .     A
C692   C707    1.413   .     A
C692   N736    1.437   .     S
C692   C570    1.399   1_655 S
C693   C707    1.413   .     A
C693   N739    1.437   .     S
C693   C567    1.399   1_655 S
C694   N742    1.437   .     S
C694   C708    1.413   .     A
C695   C699    1.391   .     A
C695   C705    1.408   .     A
C695   H711    1.077   .     S
C696   C706    1.408   .     A
C696   H712    1.077   .     S
C696   C700    1.391   .     A
C697   H713    1.077   .     S
C697   C701    1.391   .     A
C697   C706    1.408   .     A
C698   H714    1.077   .     S
C698   C702    1.391   .     A
C698   C705    1.408   .     A
C699   C703    1.408   .     A
C699   I729    2.118   .     S
C700   C704    1.408   .     A
C700   I730    2.118   .     S
C701   I731    2.118   .     S
C701   C704    1.408   .     A
C702   C703    1.408   .     A
C702   I732    2.118   .     S
C706   C147    1.498   1_556 S
Cu709  O723    1.959   .     S
Cu709  N715    2.041   .     S
Cu709  O721    1.959   .     S
Cu709  O719    1.989   .     S
Cu709  Cu710   2.715   .     S
Cu709  O717    1.989   .     S
Cu710  O720    1.989   .     S
Cu710  O724    1.959   .     S
Cu710  O722    1.959   .     S
Cu710  N716    2.041   .     S
Cu710  O718    1.989   .     S
N733   H734    1.044   .     S
N733   H735    1.045   .     S
N736   H738    1.045   .     S
N736   H737    1.044   .     S
N739   H740    1.044   .     S
N739   H741    1.045   .     S
N742   H744    1.045   .     S
N742   H743    1.044   .     S
C745   O779    1.308   .     A
C745   O782    1.308   .     A
C745   C770    1.474   .     S
C746   O781    1.308   .     A
C746   C769    1.474   .     S
C746   O780    1.308   .     A
C747   O786    1.311   .     A
C747   O783    1.311   .     A
C747   C765    1.480   .     S
C748   C766    1.480   .     S
C748   O785    1.311   .     A
C748   O784    1.311   .     A
C749   N778    1.380   .     A
C749   I787    2.151   .     S
C750   N777    1.380   .     A
C750   I788    2.151   .     S
C750   C937    1.430   .     S
C751   I789    2.151   .     S
C751   N778    1.380   .     A
C752   I790    2.151   .     S
C752   N777    1.380   .     A
C752   C935    1.430   .     S
C753   N795    1.437   .     S
C753   C770    1.414   .     A
C753   C879    1.399   1_455 S
C754   C769    1.413   .     A
C754   N798    1.437   .     S
C754   C818    1.399   .     S
C755   C769    1.413   .     A
C755   N801    1.437   .     S
C755   C815    1.399   .     S
C756   N804    1.437   .     S
C756   C770    1.413   .     A
C756   C878    1.399   1_455 S
C757   C761    1.391   .     A
C757   C767    1.408   .     A
C757   H773    1.077   .     S
C758   C768    1.408   .     A
C758   H774    1.077   .     S
C758   C762    1.391   .     A
C759   H775    1.077   .     S
C759   C763    1.391   .     A
C759   C768    1.408   .     A
C760   H776    1.077   .     S
C760   C764    1.391   .     A
C760   C767    1.408   .     A
C761   C765    1.408   .     A
C761   I791    2.118   .     S
C762   C766    1.408   .     A
C762   I792    2.118   .     S
C763   I793    2.118   .     S
C763   C766    1.408   .     A
C764   C765    1.408   .     A
C764   I794    2.118   .     S
C768   C209    1.498   1_556 S
Cu771  O785    1.959   .     S
Cu771  N777    2.041   .     S
Cu771  O783    1.959   .     S
Cu771  O781    1.989   .     S
Cu771  Cu772   2.715   .     S
Cu771  O779    1.989   .     S
Cu772  O782    1.989   .     S
Cu772  O786    1.959   .     S
Cu772  O784    1.959   .     S
Cu772  N778    2.041   .     S
Cu772  O780    1.989   .     S
N795   H796    1.044   .     S
N795   H797    1.045   .     S
N798   H800    1.045   .     S
N798   H799    1.044   .     S
N801   H802    1.044   .     S
N801   H803    1.045   .     S
N804   H806    1.045   .     S
N804   H805    1.044   .     S
C807   O841    1.308   .     A
C807   O844    1.308   .     A
C807   C832    1.474   .     S
C808   O843    1.308   .     A
C808   C831    1.474   .     S
C808   O842    1.308   .     A
C809   O848    1.311   .     A
C809   O845    1.311   .     A
C809   C827    1.480   .     S
C810   C828    1.480   .     S
C810   O847    1.311   .     A
C810   O846    1.311   .     A
C811   N840    1.380   .     A
C811   I849    2.151   .     S
C812   N839    1.380   .     A
C812   I850    2.151   .     S
C812   C999    1.430   .     S
C813   I851    2.151   .     S
C813   N840    1.380   .     A
C814   I852    2.151   .     S
C814   N839    1.380   .     A
C814   C997    1.430   .     S
C815   N857    1.437   .     S
C815   C832    1.414   .     A
C816   C831    1.413   .     A
C816   N860    1.437   .     S
C816   C880    1.399   .     S
C817   C831    1.413   .     A
C817   N863    1.437   .     S
C817   C877    1.399   .     S
C818   N866    1.437   .     S
C818   C832    1.413   .     A
C819   C823    1.391   .     A
C819   C829    1.408   .     A
C819   H835    1.077   .     S
C820   C830    1.408   .     A
C820   H836    1.077   .     S
C820   C824    1.391   .     A
C821   H837    1.077   .     S
C821   C825    1.391   .     A
C821   C830    1.408   .     A
C822   H838    1.077   .     S
C822   C826    1.391   .     A
C822   C829    1.408   .     A
C823   C827    1.408   .     A
C823   I853    2.118   .     S
C824   C828    1.408   .     A
C824   I854    2.118   .     S
C825   I855    2.118   .     S
C825   C828    1.408   .     A
C826   C827    1.408   .     A
C826   I856    2.118   .     S
C830   C271    1.498   1_556 S
Cu833  O847    1.959   .     S
Cu833  N839    2.041   .     S
Cu833  O845    1.959   .     S
Cu833  O843    1.989   .     S
Cu833  Cu834   2.715   .     S
Cu833  O841    1.989   .     S
Cu834  O844    1.989   .     S
Cu834  O848    1.959   .     S
Cu834  O846    1.959   .     S
Cu834  N840    2.041   .     S
Cu834  O842    1.989   .     S
N857   H858    1.044   .     S
N857   H859    1.045   .     S
N860   H862    1.045   .     S
N860   H861    1.044   .     S
N863   H864    1.044   .     S
N863   H865    1.045   .     S
N866   H868    1.045   .     S
N866   H867    1.044   .     S
C869   O903    1.308   .     A
C869   O906    1.308   .     A
C869   C894    1.474   .     S
C870   O905    1.308   .     A
C870   C893    1.474   .     S
C870   O904    1.308   .     A
C871   O910    1.311   .     A
C871   O907    1.311   .     A
C871   C889    1.480   .     S
C872   C890    1.480   .     S
C872   O909    1.311   .     A
C872   O908    1.311   .     A
C873   N902    1.380   .     A
C873   I911    2.151   .     S
C874   N901    1.380   .     A
C874   I912    2.151   .     S
C874   C1061   1.430   .     S
C875   I913    2.151   .     S
C875   N902    1.380   .     A
C876   I914    2.151   .     S
C876   N901    1.380   .     A
C876   C1059   1.430   .     S
C877   N919    1.437   .     S
C877   C894    1.414   .     A
C878   C893    1.413   .     A
C878   N922    1.437   .     S
C878   C756    1.399   1_655 S
C879   C893    1.413   .     A
C879   N925    1.437   .     S
C879   C753    1.399   1_655 S
C880   N928    1.437   .     S
C880   C894    1.413   .     A
C881   C885    1.391   .     A
C881   C891    1.408   .     A
C881   H897    1.077   .     S
C882   C892    1.408   .     A
C882   H898    1.077   .     S
C882   C886    1.391   .     A
C883   H899    1.077   .     S
C883   C887    1.391   .     A
C883   C892    1.408   .     A
C884   H900    1.077   .     S
C884   C888    1.391   .     A
C884   C891    1.408   .     A
C885   C889    1.408   .     A
C885   I915    2.118   .     S
C886   C890    1.408   .     A
C886   I916    2.118   .     S
C887   I917    2.118   .     S
C887   C890    1.408   .     A
C888   C889    1.408   .     A
C888   I918    2.118   .     S
C892   C333    1.498   1_556 S
Cu895  O909    1.959   .     S
Cu895  N901    2.041   .     S
Cu895  O907    1.959   .     S
Cu895  O905    1.989   .     S
Cu895  Cu896   2.715   .     S
Cu895  O903    1.989   .     S
Cu896  O906    1.989   .     S
Cu896  O910    1.959   .     S
Cu896  O908    1.959   .     S
Cu896  N902    2.041   .     S
Cu896  O904    1.989   .     S
N919   H920    1.044   .     S
N919   H921    1.045   .     S
N922   H924    1.045   .     S
N922   H923    1.044   .     S
N925   H926    1.044   .     S
N925   H927    1.045   .     S
N928   H930    1.045   .     S
N928   H929    1.044   .     S
C931   O965    1.308   .     A
C931   O968    1.308   .     A
C931   C956    1.474   .     S
C932   O967    1.308   .     A
C932   C955    1.474   .     S
C932   O966    1.308   .     A
C933   O972    1.311   .     A
C933   O969    1.311   .     A
C933   C951    1.480   .     S
C934   C952    1.480   .     S
C934   O971    1.311   .     A
C934   O970    1.311   .     A
C935   N964    1.380   .     A
C935   I973    2.151   .     S
C936   N963    1.380   .     A
C936   I974    2.151   .     S
C936   C565    1.430   1_565 S
C937   I975    2.151   .     S
C937   N964    1.380   .     A
C938   I976    2.151   .     S
C938   N963    1.380   .     A
C938   C563    1.430   1_565 S
C939   N981    1.437   .     S
C939   C956    1.414   .     A
C939   C1065   1.399   1_455 S
C940   C955    1.413   .     A
C940   N984    1.437   .     S
C940   C1004   1.399   .     S
C941   C955    1.413   .     A
C941   N987    1.437   .     S
C941   C1001   1.399   .     S
C942   N990    1.437   .     S
C942   C956    1.413   .     A
C942   C1064   1.399   1_455 S
C943   C947    1.391   .     A
C943   C953    1.408   .     A
C943   H959    1.077   .     S
C944   C954    1.408   .     A
C944   H960    1.077   .     S
C944   C948    1.391   .     A
C945   H961    1.077   .     S
C945   C949    1.391   .     A
C945   C954    1.408   .     A
C946   H962    1.077   .     S
C946   C950    1.391   .     A
C946   C953    1.408   .     A
C947   C951    1.408   .     A
C947   I977    2.118   .     S
C948   C952    1.408   .     A
C948   I978    2.118   .     S
C949   I979    2.118   .     S
C949   C952    1.408   .     A
C950   C951    1.408   .     A
C950   I980    2.118   .     S
C954   C395    1.498   1_556 S
Cu957  O971    1.959   .     S
Cu957  N963    2.041   .     S
Cu957  O969    1.959   .     S
Cu957  O967    1.989   .     S
Cu957  Cu958   2.715   .     S
Cu957  O965    1.989   .     S
Cu958  O968    1.989   .     S
Cu958  O972    1.959   .     S
Cu958  O970    1.959   .     S
Cu958  N964    2.041   .     S
Cu958  O966    1.989   .     S
N981   H982    1.044   .     S
N981   H983    1.045   .     S
N984   H986    1.045   .     S
N984   H985    1.044   .     S
N987   H988    1.044   .     S
N987   H989    1.045   .     S
N990   H992    1.045   .     S
N990   H991    1.044   .     S
C993   O1027   1.308   .     A
C993   O1030   1.308   .     A
C993   C1018   1.474   .     S
C994   O1029   1.308   .     A
C994   C1017   1.474   .     S
C994   O1028   1.308   .     A
C995   O1034   1.311   .     A
C995   O1031   1.311   .     A
C995   C1013   1.480   .     S
C996   C1014   1.480   .     S
C996   O1033   1.311   .     A
C996   O1032   1.311   .     A
C997   N1026   1.380   .     A
C997   I1035   2.151   .     S
C998   N1025   1.380   .     A
C998   I1036   2.151   .     S
C998   C627    1.430   1_565 S
C999   I1037   2.151   .     S
C999   N1026   1.380   .     A
C1000  I1038   2.151   .     S
C1000  N1025   1.380   .     A
C1000  C625    1.430   1_565 S
C1001  N1043   1.437   .     S
C1001  C1018   1.414   .     A
C1002  C1017   1.413   .     A
C1002  N1046   1.437   .     S
C1002  C1066   1.399   .     S
C1003  C1017   1.413   .     A
C1003  N1049   1.437   .     S
C1003  C1063   1.399   .     S
C1004  N1052   1.437   .     S
C1004  C1018   1.413   .     A
C1005  C1009   1.391   .     A
C1005  C1015   1.408   .     A
C1005  H1021   1.077   .     S
C1006  C1016   1.408   .     A
C1006  H1022   1.077   .     S
C1006  C1010   1.391   .     A
C1007  H1023   1.077   .     S
C1007  C1011   1.391   .     A
C1007  C1016   1.408   .     A
C1008  H1024   1.077   .     S
C1008  C1012   1.391   .     A
C1008  C1015   1.408   .     A
C1009  C1013   1.408   .     A
C1009  I1039   2.118   .     S
C1010  C1014   1.408   .     A
C1010  I1040   2.118   .     S
C1011  I1041   2.118   .     S
C1011  C1014   1.408   .     A
C1012  C1013   1.408   .     A
C1012  I1042   2.118   .     S
C1016  C457    1.498   1_556 S
Cu1019 O1033   1.959   .     S
Cu1019 N1025   2.041   .     S
Cu1019 O1031   1.959   .     S
Cu1019 O1029   1.989   .     S
Cu1019 Cu1020  2.715   .     S
Cu1019 O1027   1.989   .     S
Cu1020 O1030   1.989   .     S
Cu1020 O1034   1.959   .     S
Cu1020 O1032   1.959   .     S
Cu1020 N1026   2.041   .     S
Cu1020 O1028   1.989   .     S
N1043  H1044   1.044   .     S
N1043  H1045   1.045   .     S
N1046  H1048   1.045   .     S
N1046  H1047   1.044   .     S
N1049  H1050   1.044   .     S
N1049  H1051   1.045   .     S
N1052  H1054   1.045   .     S
N1052  H1053   1.044   .     S
C1055  O1089   1.308   .     A
C1055  O1092   1.308   .     A
C1055  C1080   1.474   .     S
C1056  O1091   1.308   .     A
C1056  C1079   1.474   .     S
C1056  O1090   1.308   .     A
C1057  O1096   1.311   .     A
C1057  O1093   1.311   .     A
C1057  C1075   1.480   .     S
C1058  C1076   1.480   .     S
C1058  O1095   1.311   .     A
C1058  O1094   1.311   .     A
C1059  N1088   1.380   .     A
C1059  I1097   2.151   .     S
C1060  N1087   1.380   .     A
C1060  I1098   2.151   .     S
C1060  C689    1.430   1_565 S
C1061  I1099   2.151   .     S
C1061  N1088   1.380   .     A
C1062  I1100   2.151   .     S
C1062  N1087   1.380   .     A
C1062  C687    1.430   1_565 S
C1063  N1105   1.437   .     S
C1063  C1080   1.414   .     A
C1064  C1079   1.413   .     A
C1064  N1108   1.437   .     S
C1064  C942    1.399   1_655 S
C1065  C1079   1.413   .     A
C1065  N1111   1.437   .     S
C1065  C939    1.399   1_655 S
C1066  N1114   1.437   .     S
C1066  C1080   1.413   .     A
C1067  C1071   1.391   .     A
C1067  C1077   1.408   .     A
C1067  H1083   1.077   .     S
C1068  C1078   1.408   .     A
C1068  H1084   1.077   .     S
C1068  C1072   1.391   .     A
C1069  H1085   1.077   .     S
C1069  C1073   1.391   .     A
C1069  C1078   1.408   .     A
C1070  H1086   1.077   .     S
C1070  C1074   1.391   .     A
C1070  C1077   1.408   .     A
C1071  C1075   1.408   .     A
C1071  I1101   2.118   .     S
C1072  C1076   1.408   .     A
C1072  I1102   2.118   .     S
C1073  I1103   2.118   .     S
C1073  C1076   1.408   .     A
C1074  C1075   1.408   .     A
C1074  I1104   2.118   .     S
C1078  C519    1.498   1_556 S
Cu1081 O1095   1.959   .     S
Cu1081 N1087   2.041   .     S
Cu1081 O1093   1.959   .     S
Cu1081 O1091   1.989   .     S
Cu1081 Cu1082  2.715   .     S
Cu1081 O1089   1.989   .     S
Cu1082 O1092   1.989   .     S
Cu1082 O1096   1.959   .     S
Cu1082 O1094   1.959   .     S
Cu1082 N1088   2.041   .     S
Cu1082 O1090   1.989   .     S
N1105  H1106   1.044   .     S
N1105  H1107   1.045   .     S
N1108  H1110   1.045   .     S
N1108  H1109   1.044   .     S
N1111  H1112   1.044   .     S
N1111  H1113   1.045   .     S
N1114  H1116   1.045   .     S
N1114  H1115   1.044   .     S
