data_str_m2_o10_o17_pcu_sym.4
_audit_creation_date              2020-01-03
_audit_creation_method            'Materials Studio'
_symmetry_space_group_name_H-M    'P1'
_symmetry_Int_Tables_number       1
_symmetry_cell_setting            triclinic
loop_
_symmetry_equiv_pos_as_xyz
  x,y,z
_cell_length_a                    30.0119
_cell_length_b                    26.0195
_cell_length_c                    22.3558
_cell_angle_alpha                 102.9073
_cell_angle_beta                  94.0749
_cell_angle_gamma                 92.5122
loop_
_atom_site_label
_atom_site_type_symbol
_atom_site_fract_x
_atom_site_fract_y
_atom_site_fract_z
_atom_site_U_iso_or_equiv
_atom_site_adp_type
_atom_site_occupancy
C1     C     0.24869   0.06659   0.15110   0.00000  Uiso   1.00
C2     C     0.08986   0.11696   0.13938   0.00000  Uiso   1.00
C3     C     0.38354   0.17042   0.16464   0.00000  Uiso   1.00
C4     C     0.11646   0.16291   0.16869   0.00000  Uiso   1.00
C5     C     0.40258   0.12458   0.13586   0.00000  Uiso   1.00
C6     C     0.09742   0.20875   0.19747   0.00000  Uiso   1.00
C7     C     0.44893   0.12167   0.13801   0.00000  Uiso   1.00
C8     C     0.05107   0.21166   0.19531   0.00000  Uiso   1.00
C9     C     0.47652   0.16743   0.16653   0.00000  Uiso   1.00
C10    C     0.02348   0.16590   0.16679   0.00000  Uiso   1.00
C11    C     0.45720   0.21475   0.19480   0.00000  Uiso   1.00
C12    C     0.25131   0.26674   0.18224   0.00000  Uiso   1.00
C13    C     0.04280   0.11858   0.13853   0.00000  Uiso   1.00
C14    C     0.46846   0.07431   0.11143   0.00000  Uiso   1.00
C15    C     0.03154   0.25902   0.22188   0.00000  Uiso   1.00
C16    C     0.38879   0.26715   0.22212   0.00000  Uiso   1.00
C17    C     0.11121   0.06619   0.11120   0.00000  Uiso   1.00
C18    C     0.01463   0.07380   0.11048   0.00000  Uiso   1.00
C19    C     0.48537   0.25953   0.22284   0.00000  Uiso   1.00
C20    C     0.24797   0.01061   0.14234   0.00000  Uiso   1.00
C21    C     0.25203   0.32273   0.19099   0.00000  Uiso   1.00
C22    C     0.16460   0.16533   0.16735   0.00000  Uiso   1.00
C23    C     0.33540   0.16801   0.16598   0.00000  Uiso   1.00
C24    C     0.41014   0.21637   0.19395   0.00000  Uiso   1.00
Cu25   Cu    0.25500   0.17246   0.22813   0.00000  Uiso   1.00
Cu26   Cu    0.24499   0.16087   0.10521   0.00000  Uiso   1.00
H27    H     0.38036   0.09114   0.11240   0.00000  Uiso   1.00
H28    H     0.39843   0.27853   0.27241   0.00000  Uiso   1.00
H29    H     0.40012   0.29922   0.20022   0.00000  Uiso   1.00
H30    H     0.14821   0.06895   0.11770   0.00000  Uiso   1.00
H31    H     0.09987   0.03411   0.13310   0.00000  Uiso   1.00
H32    H     0.10158   0.05480   0.06091   0.00000  Uiso   1.00
H33    H     0.41911   0.02408   0.11189   0.00000  Uiso   1.00
H34    H     0.08089   0.30924   0.22140   0.00000  Uiso   1.00
H35    H     0.11963   0.24220   0.22093   0.00000  Uiso   1.00
H36    H     0.02797   0.03702   0.08848   0.00000  Uiso   1.00
H37    H     0.47203   0.29632   0.24482   0.00000  Uiso   1.00
H38    H     0.24407   0.32008   0.09545   0.00000  Uiso   1.00
H39    H     0.25593   0.01326   0.23788   0.00000  Uiso   1.00
H40    H     0.21502   0.12589   0.31622   0.00000  Uiso   1.00
H41    H     0.28498   0.20745   0.01711   0.00000  Uiso   1.00
H42    H     0.35179   0.26439   0.21563   0.00000  Uiso   1.00
N43    N     0.23744   0.15214   0.01284   0.00000  Uiso   1.00
N44    N     0.26255   0.18119   0.32049   0.00000  Uiso   1.00
O45    O     0.25325   0.09538   0.20659   0.00000  Uiso   1.00
O46    O     0.05614   0.30579   0.24749   0.00000  Uiso   1.00
O47    O     0.24674   0.23796   0.12674   0.00000  Uiso   1.00
O48    O     0.24480   0.08559   0.10279   0.00000  Uiso   1.00
O49    O     0.25520   0.24774   0.23055   0.00000  Uiso   1.00
O50    O     0.18935   0.17155   0.21857   0.00000  Uiso   1.00
O51    O     0.31064   0.16179   0.11476   0.00000  Uiso   1.00
O52    O     0.18090   0.16176   0.11477   0.00000  Uiso   1.00
O53    O     0.31910   0.17157   0.21857   0.00000  Uiso   1.00
O54    O     0.44386   0.02755   0.08580   0.00000  Uiso   1.00
C55    C     0.74869   0.06659   0.15110   0.00000  Uiso   1.00
C56    C     0.58986   0.11696   0.13938   0.00000  Uiso   1.00
C57    C     0.88354   0.17042   0.16464   0.00000  Uiso   1.00
C58    C     0.61646   0.16291   0.16869   0.00000  Uiso   1.00
C59    C     0.90258   0.12458   0.13586   0.00000  Uiso   1.00
C60    C     0.59742   0.20875   0.19747   0.00000  Uiso   1.00
C61    C     0.94893   0.12167   0.13801   0.00000  Uiso   1.00
C62    C     0.55107   0.21166   0.19531   0.00000  Uiso   1.00
C63    C     0.97652   0.16743   0.16653   0.00000  Uiso   1.00
C64    C     0.52348   0.16590   0.16679   0.00000  Uiso   1.00
C65    C     0.95720   0.21475   0.19480   0.00000  Uiso   1.00
C66    C     0.75131   0.26674   0.18224   0.00000  Uiso   1.00
C67    C     0.54280   0.11858   0.13853   0.00000  Uiso   1.00
C68    C     0.96846   0.07431   0.11143   0.00000  Uiso   1.00
C69    C     0.53154   0.25902   0.22188   0.00000  Uiso   1.00
C70    C     0.88879   0.26715   0.22212   0.00000  Uiso   1.00
C71    C     0.61121   0.06619   0.11120   0.00000  Uiso   1.00
C72    C     0.51463   0.07380   0.11048   0.00000  Uiso   1.00
C73    C     0.98537   0.25953   0.22284   0.00000  Uiso   1.00
C74    C     0.74797   0.01061   0.14234   0.00000  Uiso   1.00
C75    C     0.75203   0.32273   0.19099   0.00000  Uiso   1.00
C76    C     0.66460   0.16533   0.16735   0.00000  Uiso   1.00
C77    C     0.83540   0.16801   0.16598   0.00000  Uiso   1.00
C78    C     0.91014   0.21637   0.19395   0.00000  Uiso   1.00
Cu79   Cu    0.75500   0.17246   0.22813   0.00000  Uiso   1.00
Cu80   Cu    0.74499   0.16087   0.10521   0.00000  Uiso   1.00
H81    H     0.88036   0.09114   0.11240   0.00000  Uiso   1.00
H82    H     0.89843   0.27853   0.27241   0.00000  Uiso   1.00
H83    H     0.90012   0.29922   0.20022   0.00000  Uiso   1.00
H84    H     0.64821   0.06895   0.11770   0.00000  Uiso   1.00
H85    H     0.59987   0.03411   0.13310   0.00000  Uiso   1.00
H86    H     0.60158   0.05480   0.06091   0.00000  Uiso   1.00
H87    H     0.91911   0.02408   0.11189   0.00000  Uiso   1.00
H88    H     0.58089   0.30924   0.22140   0.00000  Uiso   1.00
H89    H     0.61963   0.24220   0.22093   0.00000  Uiso   1.00
H90    H     0.52797   0.03702   0.08848   0.00000  Uiso   1.00
H91    H     0.97203   0.29632   0.24482   0.00000  Uiso   1.00
H92    H     0.74407   0.32008   0.09545   0.00000  Uiso   1.00
H93    H     0.75593   0.01326   0.23788   0.00000  Uiso   1.00
H94    H     0.71502   0.12589   0.31622   0.00000  Uiso   1.00
H95    H     0.78498   0.20745   0.01711   0.00000  Uiso   1.00
H96    H     0.85179   0.26439   0.21563   0.00000  Uiso   1.00
N97    N     0.73744   0.15214   0.01284   0.00000  Uiso   1.00
N98    N     0.76255   0.18119   0.32049   0.00000  Uiso   1.00
O99    O     0.75325   0.09538   0.20659   0.00000  Uiso   1.00
O100   O     0.55614   0.30579   0.24749   0.00000  Uiso   1.00
O101   O     0.74674   0.23796   0.12674   0.00000  Uiso   1.00
O102   O     0.74480   0.08559   0.10279   0.00000  Uiso   1.00
O103   O     0.75520   0.24774   0.23055   0.00000  Uiso   1.00
O104   O     0.68935   0.17155   0.21857   0.00000  Uiso   1.00
O105   O     0.81064   0.16179   0.11476   0.00000  Uiso   1.00
O106   O     0.68090   0.16176   0.11477   0.00000  Uiso   1.00
O107   O     0.81910   0.17157   0.21857   0.00000  Uiso   1.00
O108   O     0.94386   0.02755   0.08580   0.00000  Uiso   1.00
C109   C     0.24869   0.39992   0.15110   0.00000  Uiso   1.00
C110   C     0.08986   0.45030   0.13938   0.00000  Uiso   1.00
C111   C     0.38354   0.50376   0.16464   0.00000  Uiso   1.00
C112   C     0.11646   0.49624   0.16869   0.00000  Uiso   1.00
C113   C     0.40258   0.45791   0.13586   0.00000  Uiso   1.00
C114   C     0.09742   0.54209   0.19747   0.00000  Uiso   1.00
C115   C     0.44893   0.45500   0.13801   0.00000  Uiso   1.00
C116   C     0.05107   0.54500   0.19531   0.00000  Uiso   1.00
C117   C     0.47652   0.50077   0.16653   0.00000  Uiso   1.00
C118   C     0.02348   0.49923   0.16679   0.00000  Uiso   1.00
C119   C     0.45720   0.54808   0.19480   0.00000  Uiso   1.00
C120   C     0.25131   0.60008   0.18224   0.00000  Uiso   1.00
C121   C     0.04280   0.45192   0.13853   0.00000  Uiso   1.00
C122   C     0.46846   0.40765   0.11143   0.00000  Uiso   1.00
C123   C     0.03154   0.59235   0.22188   0.00000  Uiso   1.00
C124   C     0.38879   0.60048   0.22212   0.00000  Uiso   1.00
C125   C     0.11121   0.39952   0.11120   0.00000  Uiso   1.00
C126   C     0.01463   0.40714   0.11048   0.00000  Uiso   1.00
C127   C     0.48537   0.59286   0.22284   0.00000  Uiso   1.00
C128   C     0.24797   0.34394   0.14234   0.00000  Uiso   1.00
C129   C     0.25203   0.65606   0.19099   0.00000  Uiso   1.00
C130   C     0.16460   0.49866   0.16735   0.00000  Uiso   1.00
C131   C     0.33540   0.50134   0.16598   0.00000  Uiso   1.00
C132   C     0.41014   0.54970   0.19395   0.00000  Uiso   1.00
Cu133  Cu    0.25500   0.50579   0.22813   0.00000  Uiso   1.00
Cu134  Cu    0.24499   0.49421   0.10521   0.00000  Uiso   1.00
H135   H     0.38036   0.42447   0.11240   0.00000  Uiso   1.00
H136   H     0.39843   0.61187   0.27241   0.00000  Uiso   1.00
H137   H     0.40012   0.63255   0.20022   0.00000  Uiso   1.00
H138   H     0.14821   0.40228   0.11770   0.00000  Uiso   1.00
H139   H     0.09987   0.36745   0.13310   0.00000  Uiso   1.00
H140   H     0.10158   0.38814   0.06091   0.00000  Uiso   1.00
H141   H     0.41911   0.35742   0.11189   0.00000  Uiso   1.00
H142   H     0.08089   0.64257   0.22140   0.00000  Uiso   1.00
H143   H     0.11963   0.57553   0.22093   0.00000  Uiso   1.00
H144   H     0.02797   0.37035   0.08848   0.00000  Uiso   1.00
H145   H     0.47203   0.62965   0.24482   0.00000  Uiso   1.00
H146   H     0.24407   0.65341   0.09545   0.00000  Uiso   1.00
H147   H     0.25593   0.34659   0.23788   0.00000  Uiso   1.00
H148   H     0.21502   0.45922   0.31622   0.00000  Uiso   1.00
H149   H     0.28498   0.54078   0.01711   0.00000  Uiso   1.00
H150   H     0.35179   0.59772   0.21563   0.00000  Uiso   1.00
N151   N     0.23744   0.48547   0.01284   0.00000  Uiso   1.00
N152   N     0.26255   0.51453   0.32049   0.00000  Uiso   1.00
O153   O     0.25325   0.42871   0.20659   0.00000  Uiso   1.00
O154   O     0.05614   0.63912   0.24749   0.00000  Uiso   1.00
O155   O     0.24674   0.57129   0.12674   0.00000  Uiso   1.00
O156   O     0.24480   0.41892   0.10279   0.00000  Uiso   1.00
O157   O     0.25520   0.58108   0.23055   0.00000  Uiso   1.00
O158   O     0.18935   0.50488   0.21857   0.00000  Uiso   1.00
O159   O     0.31064   0.49512   0.11476   0.00000  Uiso   1.00
O160   O     0.18090   0.49510   0.11477   0.00000  Uiso   1.00
O161   O     0.31910   0.50490   0.21857   0.00000  Uiso   1.00
O162   O     0.44386   0.36088   0.08580   0.00000  Uiso   1.00
C163   C     0.74869   0.39992   0.15110   0.00000  Uiso   1.00
C164   C     0.58986   0.45030   0.13938   0.00000  Uiso   1.00
C165   C     0.88354   0.50376   0.16464   0.00000  Uiso   1.00
C166   C     0.61646   0.49624   0.16869   0.00000  Uiso   1.00
C167   C     0.90258   0.45791   0.13586   0.00000  Uiso   1.00
C168   C     0.59742   0.54209   0.19747   0.00000  Uiso   1.00
C169   C     0.94893   0.45500   0.13801   0.00000  Uiso   1.00
C170   C     0.55107   0.54500   0.19531   0.00000  Uiso   1.00
C171   C     0.97652   0.50077   0.16653   0.00000  Uiso   1.00
C172   C     0.52348   0.49923   0.16679   0.00000  Uiso   1.00
C173   C     0.95720   0.54808   0.19480   0.00000  Uiso   1.00
C174   C     0.75131   0.60008   0.18224   0.00000  Uiso   1.00
C175   C     0.54280   0.45192   0.13853   0.00000  Uiso   1.00
C176   C     0.96846   0.40765   0.11143   0.00000  Uiso   1.00
C177   C     0.53154   0.59235   0.22188   0.00000  Uiso   1.00
C178   C     0.88879   0.60048   0.22212   0.00000  Uiso   1.00
C179   C     0.61121   0.39952   0.11120   0.00000  Uiso   1.00
C180   C     0.51463   0.40714   0.11048   0.00000  Uiso   1.00
C181   C     0.98537   0.59286   0.22284   0.00000  Uiso   1.00
C182   C     0.74797   0.34394   0.14234   0.00000  Uiso   1.00
C183   C     0.75203   0.65606   0.19099   0.00000  Uiso   1.00
C184   C     0.66460   0.49866   0.16735   0.00000  Uiso   1.00
C185   C     0.83540   0.50134   0.16598   0.00000  Uiso   1.00
C186   C     0.91014   0.54970   0.19395   0.00000  Uiso   1.00
Cu187  Cu    0.75500   0.50579   0.22813   0.00000  Uiso   1.00
Cu188  Cu    0.74499   0.49421   0.10521   0.00000  Uiso   1.00
H189   H     0.88036   0.42447   0.11240   0.00000  Uiso   1.00
H190   H     0.89843   0.61187   0.27241   0.00000  Uiso   1.00
H191   H     0.90012   0.63255   0.20022   0.00000  Uiso   1.00
H192   H     0.64821   0.40228   0.11770   0.00000  Uiso   1.00
H193   H     0.59987   0.36745   0.13310   0.00000  Uiso   1.00
H194   H     0.60158   0.38814   0.06091   0.00000  Uiso   1.00
H195   H     0.91911   0.35742   0.11189   0.00000  Uiso   1.00
H196   H     0.58089   0.64257   0.22140   0.00000  Uiso   1.00
H197   H     0.61963   0.57553   0.22093   0.00000  Uiso   1.00
H198   H     0.52797   0.37035   0.08848   0.00000  Uiso   1.00
H199   H     0.97203   0.62965   0.24482   0.00000  Uiso   1.00
H200   H     0.74407   0.65341   0.09545   0.00000  Uiso   1.00
H201   H     0.75593   0.34659   0.23788   0.00000  Uiso   1.00
H202   H     0.71502   0.45922   0.31622   0.00000  Uiso   1.00
H203   H     0.78498   0.54078   0.01711   0.00000  Uiso   1.00
H204   H     0.85179   0.59772   0.21563   0.00000  Uiso   1.00
N205   N     0.73744   0.48547   0.01284   0.00000  Uiso   1.00
N206   N     0.76255   0.51453   0.32049   0.00000  Uiso   1.00
O207   O     0.75325   0.42871   0.20659   0.00000  Uiso   1.00
O208   O     0.55614   0.63912   0.24749   0.00000  Uiso   1.00
O209   O     0.74674   0.57129   0.12674   0.00000  Uiso   1.00
O210   O     0.74480   0.41892   0.10279   0.00000  Uiso   1.00
O211   O     0.75520   0.58108   0.23055   0.00000  Uiso   1.00
O212   O     0.68935   0.50488   0.21857   0.00000  Uiso   1.00
O213   O     0.81064   0.49512   0.11476   0.00000  Uiso   1.00
O214   O     0.68090   0.49510   0.11477   0.00000  Uiso   1.00
O215   O     0.81910   0.50490   0.21857   0.00000  Uiso   1.00
O216   O     0.94386   0.36088   0.08580   0.00000  Uiso   1.00
C217   C     0.24869   0.73326   0.15110   0.00000  Uiso   1.00
C218   C     0.08986   0.78363   0.13938   0.00000  Uiso   1.00
C219   C     0.38354   0.83709   0.16464   0.00000  Uiso   1.00
C220   C     0.11646   0.82958   0.16869   0.00000  Uiso   1.00
C221   C     0.40258   0.79125   0.13586   0.00000  Uiso   1.00
C222   C     0.09742   0.87542   0.19747   0.00000  Uiso   1.00
C223   C     0.44893   0.78834   0.13801   0.00000  Uiso   1.00
C224   C     0.05107   0.87833   0.19531   0.00000  Uiso   1.00
C225   C     0.47652   0.83410   0.16653   0.00000  Uiso   1.00
C226   C     0.02348   0.83257   0.16679   0.00000  Uiso   1.00
C227   C     0.45720   0.88142   0.19480   0.00000  Uiso   1.00
C228   C     0.25131   0.93341   0.18224   0.00000  Uiso   1.00
C229   C     0.04280   0.78525   0.13853   0.00000  Uiso   1.00
C230   C     0.46846   0.74098   0.11143   0.00000  Uiso   1.00
C231   C     0.03154   0.92569   0.22188   0.00000  Uiso   1.00
C232   C     0.38879   0.93382   0.22212   0.00000  Uiso   1.00
C233   C     0.11121   0.73285   0.11120   0.00000  Uiso   1.00
C234   C     0.01463   0.74047   0.11048   0.00000  Uiso   1.00
C235   C     0.48537   0.92620   0.22284   0.00000  Uiso   1.00
C236   C     0.24797   0.67727   0.14234   0.00000  Uiso   1.00
C237   C     0.25203   0.98939   0.19099   0.00000  Uiso   1.00
C238   C     0.16460   0.83199   0.16735   0.00000  Uiso   1.00
C239   C     0.33540   0.83467   0.16598   0.00000  Uiso   1.00
C240   C     0.41014   0.88304   0.19395   0.00000  Uiso   1.00
Cu241  Cu    0.25500   0.83913   0.22813   0.00000  Uiso   1.00
Cu242  Cu    0.24499   0.82754   0.10521   0.00000  Uiso   1.00
H243   H     0.38036   0.75780   0.11240   0.00000  Uiso   1.00
H244   H     0.39843   0.94520   0.27241   0.00000  Uiso   1.00
H245   H     0.40012   0.96589   0.20022   0.00000  Uiso   1.00
H246   H     0.14821   0.73561   0.11770   0.00000  Uiso   1.00
H247   H     0.09987   0.70078   0.13310   0.00000  Uiso   1.00
H248   H     0.10158   0.72147   0.06091   0.00000  Uiso   1.00
H249   H     0.41911   0.69075   0.11189   0.00000  Uiso   1.00
H250   H     0.08089   0.97591   0.22140   0.00000  Uiso   1.00
H251   H     0.11963   0.90886   0.22093   0.00000  Uiso   1.00
H252   H     0.02797   0.70369   0.08848   0.00000  Uiso   1.00
H253   H     0.47203   0.96298   0.24482   0.00000  Uiso   1.00
H254   H     0.24407   0.98674   0.09545   0.00000  Uiso   1.00
H255   H     0.25593   0.67992   0.23788   0.00000  Uiso   1.00
H256   H     0.21502   0.79255   0.31622   0.00000  Uiso   1.00
H257   H     0.28498   0.87411   0.01711   0.00000  Uiso   1.00
H258   H     0.35179   0.93105   0.21563   0.00000  Uiso   1.00
N259   N     0.23744   0.81881   0.01284   0.00000  Uiso   1.00
N260   N     0.26255   0.84786   0.32049   0.00000  Uiso   1.00
O261   O     0.25325   0.76204   0.20659   0.00000  Uiso   1.00
O262   O     0.05614   0.97245   0.24749   0.00000  Uiso   1.00
O263   O     0.24674   0.90462   0.12674   0.00000  Uiso   1.00
O264   O     0.24480   0.75226   0.10279   0.00000  Uiso   1.00
O265   O     0.25520   0.91441   0.23055   0.00000  Uiso   1.00
O266   O     0.18935   0.83821   0.21857   0.00000  Uiso   1.00
O267   O     0.31064   0.82845   0.11476   0.00000  Uiso   1.00
O268   O     0.18090   0.82843   0.11477   0.00000  Uiso   1.00
O269   O     0.31910   0.83824   0.21857   0.00000  Uiso   1.00
O270   O     0.44386   0.69421   0.08580   0.00000  Uiso   1.00
C271   C     0.74869   0.73326   0.15110   0.00000  Uiso   1.00
C272   C     0.58986   0.78363   0.13938   0.00000  Uiso   1.00
C273   C     0.88354   0.83709   0.16464   0.00000  Uiso   1.00
C274   C     0.61646   0.82958   0.16869   0.00000  Uiso   1.00
C275   C     0.90258   0.79125   0.13586   0.00000  Uiso   1.00
C276   C     0.59742   0.87542   0.19747   0.00000  Uiso   1.00
C277   C     0.94893   0.78834   0.13801   0.00000  Uiso   1.00
C278   C     0.55107   0.87833   0.19531   0.00000  Uiso   1.00
C279   C     0.97652   0.83410   0.16653   0.00000  Uiso   1.00
C280   C     0.52348   0.83257   0.16679   0.00000  Uiso   1.00
C281   C     0.95720   0.88142   0.19480   0.00000  Uiso   1.00
C282   C     0.75131   0.93341   0.18224   0.00000  Uiso   1.00
C283   C     0.54280   0.78525   0.13853   0.00000  Uiso   1.00
C284   C     0.96846   0.74098   0.11143   0.00000  Uiso   1.00
C285   C     0.53154   0.92569   0.22188   0.00000  Uiso   1.00
C286   C     0.88879   0.93382   0.22212   0.00000  Uiso   1.00
C287   C     0.61121   0.73285   0.11120   0.00000  Uiso   1.00
C288   C     0.51463   0.74047   0.11048   0.00000  Uiso   1.00
C289   C     0.98537   0.92620   0.22284   0.00000  Uiso   1.00
C290   C     0.74797   0.67727   0.14234   0.00000  Uiso   1.00
C291   C     0.75203   0.98939   0.19099   0.00000  Uiso   1.00
C292   C     0.66460   0.83199   0.16735   0.00000  Uiso   1.00
C293   C     0.83540   0.83467   0.16598   0.00000  Uiso   1.00
C294   C     0.91014   0.88304   0.19395   0.00000  Uiso   1.00
Cu295  Cu    0.75500   0.83913   0.22813   0.00000  Uiso   1.00
Cu296  Cu    0.74499   0.82754   0.10521   0.00000  Uiso   1.00
H297   H     0.88036   0.75780   0.11240   0.00000  Uiso   1.00
H298   H     0.89843   0.94520   0.27241   0.00000  Uiso   1.00
H299   H     0.90012   0.96589   0.20022   0.00000  Uiso   1.00
H300   H     0.64821   0.73561   0.11770   0.00000  Uiso   1.00
H301   H     0.59987   0.70078   0.13310   0.00000  Uiso   1.00
H302   H     0.60158   0.72147   0.06091   0.00000  Uiso   1.00
H303   H     0.91911   0.69075   0.11189   0.00000  Uiso   1.00
H304   H     0.58089   0.97591   0.22140   0.00000  Uiso   1.00
H305   H     0.61963   0.90886   0.22093   0.00000  Uiso   1.00
H306   H     0.52797   0.70369   0.08848   0.00000  Uiso   1.00
H307   H     0.97203   0.96298   0.24482   0.00000  Uiso   1.00
H308   H     0.74407   0.98674   0.09545   0.00000  Uiso   1.00
H309   H     0.75593   0.67992   0.23788   0.00000  Uiso   1.00
H310   H     0.71502   0.79255   0.31622   0.00000  Uiso   1.00
H311   H     0.78498   0.87411   0.01711   0.00000  Uiso   1.00
H312   H     0.85179   0.93105   0.21563   0.00000  Uiso   1.00
N313   N     0.73744   0.81881   0.01284   0.00000  Uiso   1.00
N314   N     0.76255   0.84786   0.32049   0.00000  Uiso   1.00
O315   O     0.75325   0.76204   0.20659   0.00000  Uiso   1.00
O316   O     0.55614   0.97245   0.24749   0.00000  Uiso   1.00
O317   O     0.74674   0.90462   0.12674   0.00000  Uiso   1.00
O318   O     0.74480   0.75226   0.10279   0.00000  Uiso   1.00
O319   O     0.75520   0.91441   0.23055   0.00000  Uiso   1.00
O320   O     0.68935   0.83821   0.21857   0.00000  Uiso   1.00
O321   O     0.81064   0.82845   0.11476   0.00000  Uiso   1.00
O322   O     0.68090   0.82843   0.11477   0.00000  Uiso   1.00
O323   O     0.81910   0.83824   0.21857   0.00000  Uiso   1.00
O324   O     0.94386   0.69421   0.08580   0.00000  Uiso   1.00
C325   C     0.24869   0.06659   0.48443   0.00000  Uiso   1.00
C326   C     0.08986   0.11696   0.47271   0.00000  Uiso   1.00
C327   C     0.38354   0.17042   0.49797   0.00000  Uiso   1.00
C328   C     0.11646   0.16291   0.50203   0.00000  Uiso   1.00
C329   C     0.40258   0.12458   0.46919   0.00000  Uiso   1.00
C330   C     0.09742   0.20875   0.53081   0.00000  Uiso   1.00
C331   C     0.44893   0.12167   0.47134   0.00000  Uiso   1.00
C332   C     0.05107   0.21166   0.52865   0.00000  Uiso   1.00
C333   C     0.47652   0.16743   0.49986   0.00000  Uiso   1.00
C334   C     0.02348   0.16590   0.50013   0.00000  Uiso   1.00
C335   C     0.45720   0.21475   0.52813   0.00000  Uiso   1.00
C336   C     0.25131   0.26674   0.51557   0.00000  Uiso   1.00
C337   C     0.04280   0.11858   0.47186   0.00000  Uiso   1.00
C338   C     0.46846   0.07431   0.44477   0.00000  Uiso   1.00
C339   C     0.03154   0.25902   0.55521   0.00000  Uiso   1.00
C340   C     0.38879   0.26715   0.55545   0.00000  Uiso   1.00
C341   C     0.11121   0.06619   0.44454   0.00000  Uiso   1.00
C342   C     0.01463   0.07380   0.44381   0.00000  Uiso   1.00
C343   C     0.48537   0.25953   0.55617   0.00000  Uiso   1.00
C344   C     0.24797   0.01061   0.47567   0.00000  Uiso   1.00
C345   C     0.25203   0.32273   0.52433   0.00000  Uiso   1.00
C346   C     0.16460   0.16533   0.50069   0.00000  Uiso   1.00
C347   C     0.33540   0.16801   0.49931   0.00000  Uiso   1.00
C348   C     0.41014   0.21637   0.52728   0.00000  Uiso   1.00
Cu349  Cu    0.25500   0.17246   0.56146   0.00000  Uiso   1.00
Cu350  Cu    0.24499   0.16087   0.43854   0.00000  Uiso   1.00
H351   H     0.38036   0.09114   0.44574   0.00000  Uiso   1.00
H352   H     0.39843   0.27853   0.60574   0.00000  Uiso   1.00
H353   H     0.40012   0.29922   0.53355   0.00000  Uiso   1.00
H354   H     0.14821   0.06895   0.45104   0.00000  Uiso   1.00
H355   H     0.09987   0.03411   0.46643   0.00000  Uiso   1.00
H356   H     0.10158   0.05480   0.39425   0.00000  Uiso   1.00
H357   H     0.41911   0.02408   0.44523   0.00000  Uiso   1.00
H358   H     0.08089   0.30924   0.55474   0.00000  Uiso   1.00
H359   H     0.11963   0.24220   0.55427   0.00000  Uiso   1.00
H360   H     0.02797   0.03702   0.42181   0.00000  Uiso   1.00
H361   H     0.47203   0.29632   0.57816   0.00000  Uiso   1.00
H362   H     0.24407   0.32008   0.42879   0.00000  Uiso   1.00
H363   H     0.25593   0.01326   0.57121   0.00000  Uiso   1.00
H364   H     0.21502   0.12589   0.64955   0.00000  Uiso   1.00
H365   H     0.28498   0.20745   0.35045   0.00000  Uiso   1.00
H366   H     0.35179   0.26439   0.54896   0.00000  Uiso   1.00
N367   N     0.23744   0.15214   0.34617   0.00000  Uiso   1.00
N368   N     0.26255   0.18119   0.65383   0.00000  Uiso   1.00
O369   O     0.25325   0.09538   0.53992   0.00000  Uiso   1.00
O370   O     0.05614   0.30579   0.58083   0.00000  Uiso   1.00
O371   O     0.24674   0.23796   0.46008   0.00000  Uiso   1.00
O372   O     0.24480   0.08559   0.43612   0.00000  Uiso   1.00
O373   O     0.25520   0.24774   0.56388   0.00000  Uiso   1.00
O374   O     0.18935   0.17155   0.55191   0.00000  Uiso   1.00
O375   O     0.31064   0.16179   0.44809   0.00000  Uiso   1.00
O376   O     0.18090   0.16176   0.44810   0.00000  Uiso   1.00
O377   O     0.31910   0.17157   0.55190   0.00000  Uiso   1.00
O378   O     0.44386   0.02755   0.41914   0.00000  Uiso   1.00
C379   C     0.74869   0.06659   0.48443   0.00000  Uiso   1.00
C380   C     0.58986   0.11696   0.47271   0.00000  Uiso   1.00
C381   C     0.88354   0.17042   0.49797   0.00000  Uiso   1.00
C382   C     0.61646   0.16291   0.50203   0.00000  Uiso   1.00
C383   C     0.90258   0.12458   0.46919   0.00000  Uiso   1.00
C384   C     0.59742   0.20875   0.53081   0.00000  Uiso   1.00
C385   C     0.94893   0.12167   0.47134   0.00000  Uiso   1.00
C386   C     0.55107   0.21166   0.52865   0.00000  Uiso   1.00
C387   C     0.97652   0.16743   0.49986   0.00000  Uiso   1.00
C388   C     0.52348   0.16590   0.50013   0.00000  Uiso   1.00
C389   C     0.95720   0.21475   0.52813   0.00000  Uiso   1.00
C390   C     0.75131   0.26674   0.51557   0.00000  Uiso   1.00
C391   C     0.54280   0.11858   0.47186   0.00000  Uiso   1.00
C392   C     0.96846   0.07431   0.44477   0.00000  Uiso   1.00
C393   C     0.53154   0.25902   0.55521   0.00000  Uiso   1.00
C394   C     0.88879   0.26715   0.55545   0.00000  Uiso   1.00
C395   C     0.61121   0.06619   0.44454   0.00000  Uiso   1.00
C396   C     0.51463   0.07380   0.44381   0.00000  Uiso   1.00
C397   C     0.98537   0.25953   0.55617   0.00000  Uiso   1.00
C398   C     0.74797   0.01061   0.47567   0.00000  Uiso   1.00
C399   C     0.75203   0.32273   0.52433   0.00000  Uiso   1.00
C400   C     0.66460   0.16533   0.50069   0.00000  Uiso   1.00
C401   C     0.83540   0.16801   0.49931   0.00000  Uiso   1.00
C402   C     0.91014   0.21637   0.52728   0.00000  Uiso   1.00
Cu403  Cu    0.75500   0.17246   0.56146   0.00000  Uiso   1.00
Cu404  Cu    0.74499   0.16087   0.43854   0.00000  Uiso   1.00
H405   H     0.88036   0.09114   0.44574   0.00000  Uiso   1.00
H406   H     0.89843   0.27853   0.60574   0.00000  Uiso   1.00
H407   H     0.90012   0.29922   0.53355   0.00000  Uiso   1.00
H408   H     0.64821   0.06895   0.45104   0.00000  Uiso   1.00
H409   H     0.59987   0.03411   0.46643   0.00000  Uiso   1.00
H410   H     0.60158   0.05480   0.39425   0.00000  Uiso   1.00
H411   H     0.91911   0.02408   0.44523   0.00000  Uiso   1.00
H412   H     0.58089   0.30924   0.55474   0.00000  Uiso   1.00
H413   H     0.61963   0.24220   0.55427   0.00000  Uiso   1.00
H414   H     0.52797   0.03702   0.42181   0.00000  Uiso   1.00
H415   H     0.97203   0.29632   0.57816   0.00000  Uiso   1.00
H416   H     0.74407   0.32008   0.42879   0.00000  Uiso   1.00
H417   H     0.75593   0.01326   0.57121   0.00000  Uiso   1.00
H418   H     0.71502   0.12589   0.64955   0.00000  Uiso   1.00
H419   H     0.78498   0.20745   0.35045   0.00000  Uiso   1.00
H420   H     0.85179   0.26439   0.54896   0.00000  Uiso   1.00
N421   N     0.73744   0.15214   0.34617   0.00000  Uiso   1.00
N422   N     0.76255   0.18119   0.65383   0.00000  Uiso   1.00
O423   O     0.75325   0.09538   0.53992   0.00000  Uiso   1.00
O424   O     0.55614   0.30579   0.58083   0.00000  Uiso   1.00
O425   O     0.74674   0.23796   0.46008   0.00000  Uiso   1.00
O426   O     0.74480   0.08559   0.43612   0.00000  Uiso   1.00
O427   O     0.75520   0.24774   0.56388   0.00000  Uiso   1.00
O428   O     0.68935   0.17155   0.55191   0.00000  Uiso   1.00
O429   O     0.81064   0.16179   0.44809   0.00000  Uiso   1.00
O430   O     0.68090   0.16176   0.44810   0.00000  Uiso   1.00
O431   O     0.81910   0.17157   0.55190   0.00000  Uiso   1.00
O432   O     0.94386   0.02755   0.41914   0.00000  Uiso   1.00
C433   C     0.24869   0.39992   0.48443   0.00000  Uiso   1.00
C434   C     0.08986   0.45030   0.47271   0.00000  Uiso   1.00
C435   C     0.38354   0.50376   0.49797   0.00000  Uiso   1.00
C436   C     0.11646   0.49624   0.50203   0.00000  Uiso   1.00
C437   C     0.40258   0.45791   0.46919   0.00000  Uiso   1.00
C438   C     0.09742   0.54209   0.53081   0.00000  Uiso   1.00
C439   C     0.44893   0.45500   0.47134   0.00000  Uiso   1.00
C440   C     0.05107   0.54500   0.52865   0.00000  Uiso   1.00
C441   C     0.47652   0.50077   0.49986   0.00000  Uiso   1.00
C442   C     0.02348   0.49923   0.50013   0.00000  Uiso   1.00
C443   C     0.45720   0.54808   0.52813   0.00000  Uiso   1.00
C444   C     0.25131   0.60008   0.51557   0.00000  Uiso   1.00
C445   C     0.04280   0.45192   0.47186   0.00000  Uiso   1.00
C446   C     0.46846   0.40765   0.44477   0.00000  Uiso   1.00
C447   C     0.03154   0.59235   0.55521   0.00000  Uiso   1.00
C448   C     0.38879   0.60048   0.55545   0.00000  Uiso   1.00
C449   C     0.11121   0.39952   0.44454   0.00000  Uiso   1.00
C450   C     0.01463   0.40714   0.44381   0.00000  Uiso   1.00
C451   C     0.48537   0.59286   0.55617   0.00000  Uiso   1.00
C452   C     0.24797   0.34394   0.47567   0.00000  Uiso   1.00
C453   C     0.25203   0.65606   0.52433   0.00000  Uiso   1.00
C454   C     0.16460   0.49866   0.50069   0.00000  Uiso   1.00
C455   C     0.33540   0.50134   0.49931   0.00000  Uiso   1.00
C456   C     0.41014   0.54970   0.52728   0.00000  Uiso   1.00
Cu457  Cu    0.25500   0.50579   0.56146   0.00000  Uiso   1.00
Cu458  Cu    0.24499   0.49421   0.43854   0.00000  Uiso   1.00
H459   H     0.38036   0.42447   0.44574   0.00000  Uiso   1.00
H460   H     0.39843   0.61187   0.60574   0.00000  Uiso   1.00
H461   H     0.40012   0.63255   0.53355   0.00000  Uiso   1.00
H462   H     0.14821   0.40228   0.45104   0.00000  Uiso   1.00
H463   H     0.09987   0.36745   0.46643   0.00000  Uiso   1.00
H464   H     0.10158   0.38814   0.39425   0.00000  Uiso   1.00
H465   H     0.41911   0.35742   0.44523   0.00000  Uiso   1.00
H466   H     0.08089   0.64257   0.55474   0.00000  Uiso   1.00
H467   H     0.11963   0.57553   0.55427   0.00000  Uiso   1.00
H468   H     0.02797   0.37035   0.42181   0.00000  Uiso   1.00
H469   H     0.47203   0.62965   0.57816   0.00000  Uiso   1.00
H470   H     0.24407   0.65341   0.42879   0.00000  Uiso   1.00
H471   H     0.25593   0.34659   0.57121   0.00000  Uiso   1.00
H472   H     0.21502   0.45922   0.64955   0.00000  Uiso   1.00
H473   H     0.28498   0.54078   0.35045   0.00000  Uiso   1.00
H474   H     0.35179   0.59772   0.54896   0.00000  Uiso   1.00
N475   N     0.23744   0.48547   0.34617   0.00000  Uiso   1.00
N476   N     0.26255   0.51453   0.65383   0.00000  Uiso   1.00
O477   O     0.25325   0.42871   0.53992   0.00000  Uiso   1.00
O478   O     0.05614   0.63912   0.58083   0.00000  Uiso   1.00
O479   O     0.24674   0.57129   0.46008   0.00000  Uiso   1.00
O480   O     0.24480   0.41892   0.43612   0.00000  Uiso   1.00
O481   O     0.25520   0.58108   0.56388   0.00000  Uiso   1.00
O482   O     0.18935   0.50488   0.55191   0.00000  Uiso   1.00
O483   O     0.31064   0.49512   0.44809   0.00000  Uiso   1.00
O484   O     0.18090   0.49510   0.44810   0.00000  Uiso   1.00
O485   O     0.31910   0.50490   0.55190   0.00000  Uiso   1.00
O486   O     0.44386   0.36088   0.41914   0.00000  Uiso   1.00
C487   C     0.74869   0.39992   0.48443   0.00000  Uiso   1.00
C488   C     0.58986   0.45030   0.47271   0.00000  Uiso   1.00
C489   C     0.88354   0.50376   0.49797   0.00000  Uiso   1.00
C490   C     0.61646   0.49624   0.50203   0.00000  Uiso   1.00
C491   C     0.90258   0.45791   0.46919   0.00000  Uiso   1.00
C492   C     0.59742   0.54209   0.53081   0.00000  Uiso   1.00
C493   C     0.94893   0.45500   0.47134   0.00000  Uiso   1.00
C494   C     0.55107   0.54500   0.52865   0.00000  Uiso   1.00
C495   C     0.97652   0.50077   0.49986   0.00000  Uiso   1.00
C496   C     0.52348   0.49923   0.50013   0.00000  Uiso   1.00
C497   C     0.95720   0.54808   0.52813   0.00000  Uiso   1.00
C498   C     0.75131   0.60008   0.51557   0.00000  Uiso   1.00
C499   C     0.54280   0.45192   0.47186   0.00000  Uiso   1.00
C500   C     0.96846   0.40765   0.44477   0.00000  Uiso   1.00
C501   C     0.53154   0.59235   0.55521   0.00000  Uiso   1.00
C502   C     0.88879   0.60048   0.55545   0.00000  Uiso   1.00
C503   C     0.61121   0.39952   0.44454   0.00000  Uiso   1.00
C504   C     0.51463   0.40714   0.44381   0.00000  Uiso   1.00
C505   C     0.98537   0.59286   0.55617   0.00000  Uiso   1.00
C506   C     0.74797   0.34394   0.47567   0.00000  Uiso   1.00
C507   C     0.75203   0.65606   0.52433   0.00000  Uiso   1.00
C508   C     0.66460   0.49866   0.50069   0.00000  Uiso   1.00
C509   C     0.83540   0.50134   0.49931   0.00000  Uiso   1.00
C510   C     0.91014   0.54970   0.52728   0.00000  Uiso   1.00
Cu511  Cu    0.75500   0.50579   0.56146   0.00000  Uiso   1.00
Cu512  Cu    0.74499   0.49421   0.43854   0.00000  Uiso   1.00
H513   H     0.88036   0.42447   0.44574   0.00000  Uiso   1.00
H514   H     0.89843   0.61187   0.60574   0.00000  Uiso   1.00
H515   H     0.90012   0.63255   0.53355   0.00000  Uiso   1.00
H516   H     0.64821   0.40228   0.45104   0.00000  Uiso   1.00
H517   H     0.59987   0.36745   0.46643   0.00000  Uiso   1.00
H518   H     0.60158   0.38814   0.39425   0.00000  Uiso   1.00
H519   H     0.91911   0.35742   0.44523   0.00000  Uiso   1.00
H520   H     0.58089   0.64257   0.55474   0.00000  Uiso   1.00
H521   H     0.61963   0.57553   0.55427   0.00000  Uiso   1.00
H522   H     0.52797   0.37035   0.42181   0.00000  Uiso   1.00
H523   H     0.97203   0.62965   0.57816   0.00000  Uiso   1.00
H524   H     0.74407   0.65341   0.42879   0.00000  Uiso   1.00
H525   H     0.75593   0.34659   0.57121   0.00000  Uiso   1.00
H526   H     0.71502   0.45922   0.64955   0.00000  Uiso   1.00
H527   H     0.78498   0.54078   0.35045   0.00000  Uiso   1.00
H528   H     0.85179   0.59772   0.54896   0.00000  Uiso   1.00
N529   N     0.73744   0.48547   0.34617   0.00000  Uiso   1.00
N530   N     0.76255   0.51453   0.65383   0.00000  Uiso   1.00
O531   O     0.75325   0.42871   0.53992   0.00000  Uiso   1.00
O532   O     0.55614   0.63912   0.58083   0.00000  Uiso   1.00
O533   O     0.74674   0.57129   0.46008   0.00000  Uiso   1.00
O534   O     0.74480   0.41892   0.43612   0.00000  Uiso   1.00
O535   O     0.75520   0.58108   0.56388   0.00000  Uiso   1.00
O536   O     0.68935   0.50488   0.55191   0.00000  Uiso   1.00
O537   O     0.81064   0.49512   0.44809   0.00000  Uiso   1.00
O538   O     0.68090   0.49510   0.44810   0.00000  Uiso   1.00
O539   O     0.81910   0.50490   0.55190   0.00000  Uiso   1.00
O540   O     0.94386   0.36088   0.41914   0.00000  Uiso   1.00
C541   C     0.24869   0.73326   0.48443   0.00000  Uiso   1.00
C542   C     0.08986   0.78363   0.47271   0.00000  Uiso   1.00
C543   C     0.38354   0.83709   0.49797   0.00000  Uiso   1.00
C544   C     0.11646   0.82958   0.50203   0.00000  Uiso   1.00
C545   C     0.40258   0.79125   0.46919   0.00000  Uiso   1.00
C546   C     0.09742   0.87542   0.53081   0.00000  Uiso   1.00
C547   C     0.44893   0.78834   0.47134   0.00000  Uiso   1.00
C548   C     0.05107   0.87833   0.52865   0.00000  Uiso   1.00
C549   C     0.47652   0.83410   0.49986   0.00000  Uiso   1.00
C550   C     0.02348   0.83257   0.50013   0.00000  Uiso   1.00
C551   C     0.45720   0.88142   0.52813   0.00000  Uiso   1.00
C552   C     0.25131   0.93341   0.51557   0.00000  Uiso   1.00
C553   C     0.04280   0.78525   0.47186   0.00000  Uiso   1.00
C554   C     0.46846   0.74098   0.44477   0.00000  Uiso   1.00
C555   C     0.03154   0.92569   0.55521   0.00000  Uiso   1.00
C556   C     0.38879   0.93382   0.55545   0.00000  Uiso   1.00
C557   C     0.11121   0.73285   0.44454   0.00000  Uiso   1.00
C558   C     0.01463   0.74047   0.44381   0.00000  Uiso   1.00
C559   C     0.48537   0.92620   0.55617   0.00000  Uiso   1.00
C560   C     0.24797   0.67727   0.47567   0.00000  Uiso   1.00
C561   C     0.25203   0.98939   0.52433   0.00000  Uiso   1.00
C562   C     0.16460   0.83199   0.50069   0.00000  Uiso   1.00
C563   C     0.33540   0.83467   0.49931   0.00000  Uiso   1.00
C564   C     0.41014   0.88304   0.52728   0.00000  Uiso   1.00
Cu565  Cu    0.25500   0.83913   0.56146   0.00000  Uiso   1.00
Cu566  Cu    0.24499   0.82754   0.43854   0.00000  Uiso   1.00
H567   H     0.38036   0.75780   0.44574   0.00000  Uiso   1.00
H568   H     0.39843   0.94520   0.60574   0.00000  Uiso   1.00
H569   H     0.40012   0.96589   0.53355   0.00000  Uiso   1.00
H570   H     0.14821   0.73561   0.45104   0.00000  Uiso   1.00
H571   H     0.09987   0.70078   0.46643   0.00000  Uiso   1.00
H572   H     0.10158   0.72147   0.39425   0.00000  Uiso   1.00
H573   H     0.41911   0.69075   0.44523   0.00000  Uiso   1.00
H574   H     0.08089   0.97591   0.55474   0.00000  Uiso   1.00
H575   H     0.11963   0.90886   0.55427   0.00000  Uiso   1.00
H576   H     0.02797   0.70369   0.42181   0.00000  Uiso   1.00
H577   H     0.47203   0.96298   0.57816   0.00000  Uiso   1.00
H578   H     0.24407   0.98674   0.42879   0.00000  Uiso   1.00
H579   H     0.25593   0.67992   0.57121   0.00000  Uiso   1.00
H580   H     0.21502   0.79255   0.64955   0.00000  Uiso   1.00
H581   H     0.28498   0.87411   0.35045   0.00000  Uiso   1.00
H582   H     0.35179   0.93105   0.54896   0.00000  Uiso   1.00
N583   N     0.23744   0.81881   0.34617   0.00000  Uiso   1.00
N584   N     0.26255   0.84786   0.65383   0.00000  Uiso   1.00
O585   O     0.25325   0.76204   0.53992   0.00000  Uiso   1.00
O586   O     0.05614   0.97245   0.58083   0.00000  Uiso   1.00
O587   O     0.24674   0.90462   0.46008   0.00000  Uiso   1.00
O588   O     0.24480   0.75226   0.43612   0.00000  Uiso   1.00
O589   O     0.25520   0.91441   0.56388   0.00000  Uiso   1.00
O590   O     0.18935   0.83821   0.55191   0.00000  Uiso   1.00
O591   O     0.31064   0.82845   0.44809   0.00000  Uiso   1.00
O592   O     0.18090   0.82843   0.44810   0.00000  Uiso   1.00
O593   O     0.31910   0.83824   0.55190   0.00000  Uiso   1.00
O594   O     0.44386   0.69421   0.41914   0.00000  Uiso   1.00
C595   C     0.74869   0.73326   0.48443   0.00000  Uiso   1.00
C596   C     0.58986   0.78363   0.47271   0.00000  Uiso   1.00
C597   C     0.88354   0.83709   0.49797   0.00000  Uiso   1.00
C598   C     0.61646   0.82958   0.50203   0.00000  Uiso   1.00
C599   C     0.90258   0.79125   0.46919   0.00000  Uiso   1.00
C600   C     0.59742   0.87542   0.53081   0.00000  Uiso   1.00
C601   C     0.94893   0.78834   0.47134   0.00000  Uiso   1.00
C602   C     0.55107   0.87833   0.52865   0.00000  Uiso   1.00
C603   C     0.97652   0.83410   0.49986   0.00000  Uiso   1.00
C604   C     0.52348   0.83257   0.50013   0.00000  Uiso   1.00
C605   C     0.95720   0.88142   0.52813   0.00000  Uiso   1.00
C606   C     0.75131   0.93341   0.51557   0.00000  Uiso   1.00
C607   C     0.54280   0.78525   0.47186   0.00000  Uiso   1.00
C608   C     0.96846   0.74098   0.44477   0.00000  Uiso   1.00
C609   C     0.53154   0.92569   0.55521   0.00000  Uiso   1.00
C610   C     0.88879   0.93382   0.55545   0.00000  Uiso   1.00
C611   C     0.61121   0.73285   0.44454   0.00000  Uiso   1.00
C612   C     0.51463   0.74047   0.44381   0.00000  Uiso   1.00
C613   C     0.98537   0.92620   0.55617   0.00000  Uiso   1.00
C614   C     0.74797   0.67727   0.47567   0.00000  Uiso   1.00
C615   C     0.75203   0.98939   0.52433   0.00000  Uiso   1.00
C616   C     0.66460   0.83199   0.50069   0.00000  Uiso   1.00
C617   C     0.83540   0.83467   0.49931   0.00000  Uiso   1.00
C618   C     0.91014   0.88304   0.52728   0.00000  Uiso   1.00
Cu619  Cu    0.75500   0.83913   0.56146   0.00000  Uiso   1.00
Cu620  Cu    0.74499   0.82754   0.43854   0.00000  Uiso   1.00
H621   H     0.88036   0.75780   0.44574   0.00000  Uiso   1.00
H622   H     0.89843   0.94520   0.60574   0.00000  Uiso   1.00
H623   H     0.90012   0.96589   0.53355   0.00000  Uiso   1.00
H624   H     0.64821   0.73561   0.45104   0.00000  Uiso   1.00
H625   H     0.59987   0.70078   0.46643   0.00000  Uiso   1.00
H626   H     0.60158   0.72147   0.39425   0.00000  Uiso   1.00
H627   H     0.91911   0.69075   0.44523   0.00000  Uiso   1.00
H628   H     0.58089   0.97591   0.55474   0.00000  Uiso   1.00
H629   H     0.61963   0.90886   0.55427   0.00000  Uiso   1.00
H630   H     0.52797   0.70369   0.42181   0.00000  Uiso   1.00
H631   H     0.97203   0.96298   0.57816   0.00000  Uiso   1.00
H632   H     0.74407   0.98674   0.42879   0.00000  Uiso   1.00
H633   H     0.75593   0.67992   0.57121   0.00000  Uiso   1.00
H634   H     0.71502   0.79255   0.64955   0.00000  Uiso   1.00
H635   H     0.78498   0.87411   0.35045   0.00000  Uiso   1.00
H636   H     0.85179   0.93105   0.54896   0.00000  Uiso   1.00
N637   N     0.73744   0.81881   0.34617   0.00000  Uiso   1.00
N638   N     0.76255   0.84786   0.65383   0.00000  Uiso   1.00
O639   O     0.75325   0.76204   0.53992   0.00000  Uiso   1.00
O640   O     0.55614   0.97245   0.58083   0.00000  Uiso   1.00
O641   O     0.74674   0.90462   0.46008   0.00000  Uiso   1.00
O642   O     0.74480   0.75226   0.43612   0.00000  Uiso   1.00
O643   O     0.75520   0.91441   0.56388   0.00000  Uiso   1.00
O644   O     0.68935   0.83821   0.55191   0.00000  Uiso   1.00
O645   O     0.81064   0.82845   0.44809   0.00000  Uiso   1.00
O646   O     0.68090   0.82843   0.44810   0.00000  Uiso   1.00
O647   O     0.81910   0.83824   0.55190   0.00000  Uiso   1.00
O648   O     0.94386   0.69421   0.41914   0.00000  Uiso   1.00
C649   C     0.24869   0.06659   0.81776   0.00000  Uiso   1.00
C650   C     0.08986   0.11696   0.80605   0.00000  Uiso   1.00
C651   C     0.38354   0.17042   0.83130   0.00000  Uiso   1.00
C652   C     0.11646   0.16291   0.83536   0.00000  Uiso   1.00
C653   C     0.40258   0.12458   0.80252   0.00000  Uiso   1.00
C654   C     0.09742   0.20875   0.86414   0.00000  Uiso   1.00
C655   C     0.44893   0.12167   0.80468   0.00000  Uiso   1.00
C656   C     0.05107   0.21166   0.86198   0.00000  Uiso   1.00
C657   C     0.47652   0.16743   0.83320   0.00000  Uiso   1.00
C658   C     0.02348   0.16590   0.83346   0.00000  Uiso   1.00
C659   C     0.45720   0.21475   0.86146   0.00000  Uiso   1.00
C660   C     0.25131   0.26674   0.84890   0.00000  Uiso   1.00
C661   C     0.04280   0.11858   0.80519   0.00000  Uiso   1.00
C662   C     0.46846   0.07431   0.77810   0.00000  Uiso   1.00
C663   C     0.03154   0.25902   0.88855   0.00000  Uiso   1.00
C664   C     0.38879   0.26715   0.88879   0.00000  Uiso   1.00
C665   C     0.11121   0.06619   0.77787   0.00000  Uiso   1.00
C666   C     0.01463   0.07380   0.77714   0.00000  Uiso   1.00
C667   C     0.48537   0.25953   0.88950   0.00000  Uiso   1.00
C668   C     0.24797   0.01061   0.80901   0.00000  Uiso   1.00
C669   C     0.25203   0.32273   0.85766   0.00000  Uiso   1.00
C670   C     0.16460   0.16533   0.83402   0.00000  Uiso   1.00
C671   C     0.33540   0.16801   0.83265   0.00000  Uiso   1.00
C672   C     0.41014   0.21637   0.86061   0.00000  Uiso   1.00
Cu673  Cu    0.25500   0.17246   0.89479   0.00000  Uiso   1.00
Cu674  Cu    0.24499   0.16087   0.77187   0.00000  Uiso   1.00
H675   H     0.38036   0.09114   0.77907   0.00000  Uiso   1.00
H676   H     0.39843   0.27853   0.93908   0.00000  Uiso   1.00
H677   H     0.40012   0.29922   0.86689   0.00000  Uiso   1.00
H678   H     0.14821   0.06895   0.78437   0.00000  Uiso   1.00
H679   H     0.09987   0.03411   0.79977   0.00000  Uiso   1.00
H680   H     0.10158   0.05480   0.72758   0.00000  Uiso   1.00
H681   H     0.41911   0.02408   0.77856   0.00000  Uiso   1.00
H682   H     0.08089   0.30924   0.88807   0.00000  Uiso   1.00
H683   H     0.11963   0.24220   0.88760   0.00000  Uiso   1.00
H684   H     0.02797   0.03702   0.75515   0.00000  Uiso   1.00
H685   H     0.47203   0.29632   0.91149   0.00000  Uiso   1.00
H686   H     0.24407   0.32008   0.76212   0.00000  Uiso   1.00
H687   H     0.25593   0.01326   0.90455   0.00000  Uiso   1.00
H688   H     0.21502   0.12589   0.98289   0.00000  Uiso   1.00
H689   H     0.28498   0.20745   0.68378   0.00000  Uiso   1.00
H690   H     0.35179   0.26439   0.88230   0.00000  Uiso   1.00
N691   N     0.23744   0.15214   0.67951   0.00000  Uiso   1.00
N692   N     0.26255   0.18119   0.98716   0.00000  Uiso   1.00
O693   O     0.25325   0.09538   0.87326   0.00000  Uiso   1.00
O694   O     0.05614   0.30579   0.91416   0.00000  Uiso   1.00
O695   O     0.24674   0.23796   0.79341   0.00000  Uiso   1.00
O696   O     0.24480   0.08559   0.76945   0.00000  Uiso   1.00
O697   O     0.25520   0.24774   0.89721   0.00000  Uiso   1.00
O698   O     0.18935   0.17155   0.88524   0.00000  Uiso   1.00
O699   O     0.31064   0.16179   0.78143   0.00000  Uiso   1.00
O700   O     0.18090   0.16176   0.78143   0.00000  Uiso   1.00
O701   O     0.31910   0.17157   0.88523   0.00000  Uiso   1.00
O702   O     0.44386   0.02755   0.75247   0.00000  Uiso   1.00
C703   C     0.74869   0.06659   0.81776   0.00000  Uiso   1.00
C704   C     0.58986   0.11696   0.80605   0.00000  Uiso   1.00
C705   C     0.88354   0.17042   0.83130   0.00000  Uiso   1.00
C706   C     0.61646   0.16291   0.83536   0.00000  Uiso   1.00
C707   C     0.90258   0.12458   0.80252   0.00000  Uiso   1.00
C708   C     0.59742   0.20875   0.86414   0.00000  Uiso   1.00
C709   C     0.94893   0.12167   0.80468   0.00000  Uiso   1.00
C710   C     0.55107   0.21166   0.86198   0.00000  Uiso   1.00
C711   C     0.97652   0.16743   0.83320   0.00000  Uiso   1.00
C712   C     0.52348   0.16590   0.83346   0.00000  Uiso   1.00
C713   C     0.95720   0.21475   0.86146   0.00000  Uiso   1.00
C714   C     0.75131   0.26674   0.84890   0.00000  Uiso   1.00
C715   C     0.54280   0.11858   0.80519   0.00000  Uiso   1.00
C716   C     0.96846   0.07431   0.77810   0.00000  Uiso   1.00
C717   C     0.53154   0.25902   0.88855   0.00000  Uiso   1.00
C718   C     0.88879   0.26715   0.88879   0.00000  Uiso   1.00
C719   C     0.61121   0.06619   0.77787   0.00000  Uiso   1.00
C720   C     0.51463   0.07380   0.77714   0.00000  Uiso   1.00
C721   C     0.98537   0.25953   0.88950   0.00000  Uiso   1.00
C722   C     0.74797   0.01061   0.80901   0.00000  Uiso   1.00
C723   C     0.75203   0.32273   0.85766   0.00000  Uiso   1.00
C724   C     0.66460   0.16533   0.83402   0.00000  Uiso   1.00
C725   C     0.83540   0.16801   0.83265   0.00000  Uiso   1.00
C726   C     0.91014   0.21637   0.86061   0.00000  Uiso   1.00
Cu727  Cu    0.75500   0.17246   0.89479   0.00000  Uiso   1.00
Cu728  Cu    0.74499   0.16087   0.77187   0.00000  Uiso   1.00
H729   H     0.88036   0.09114   0.77907   0.00000  Uiso   1.00
H730   H     0.89843   0.27853   0.93908   0.00000  Uiso   1.00
H731   H     0.90012   0.29922   0.86689   0.00000  Uiso   1.00
H732   H     0.64821   0.06895   0.78437   0.00000  Uiso   1.00
H733   H     0.59987   0.03411   0.79977   0.00000  Uiso   1.00
H734   H     0.60158   0.05480   0.72758   0.00000  Uiso   1.00
H735   H     0.91911   0.02408   0.77856   0.00000  Uiso   1.00
H736   H     0.58089   0.30924   0.88807   0.00000  Uiso   1.00
H737   H     0.61963   0.24220   0.88760   0.00000  Uiso   1.00
H738   H     0.52797   0.03702   0.75515   0.00000  Uiso   1.00
H739   H     0.97203   0.29632   0.91149   0.00000  Uiso   1.00
H740   H     0.74407   0.32008   0.76212   0.00000  Uiso   1.00
H741   H     0.75593   0.01326   0.90455   0.00000  Uiso   1.00
H742   H     0.71502   0.12589   0.98289   0.00000  Uiso   1.00
H743   H     0.78498   0.20745   0.68378   0.00000  Uiso   1.00
H744   H     0.85179   0.26439   0.88230   0.00000  Uiso   1.00
N745   N     0.73744   0.15214   0.67951   0.00000  Uiso   1.00
N746   N     0.76255   0.18119   0.98716   0.00000  Uiso   1.00
O747   O     0.75325   0.09538   0.87326   0.00000  Uiso   1.00
O748   O     0.55614   0.30579   0.91416   0.00000  Uiso   1.00
O749   O     0.74674   0.23796   0.79341   0.00000  Uiso   1.00
O750   O     0.74480   0.08559   0.76945   0.00000  Uiso   1.00
O751   O     0.75520   0.24774   0.89721   0.00000  Uiso   1.00
O752   O     0.68935   0.17155   0.88524   0.00000  Uiso   1.00
O753   O     0.81064   0.16179   0.78143   0.00000  Uiso   1.00
O754   O     0.68090   0.16176   0.78143   0.00000  Uiso   1.00
O755   O     0.81910   0.17157   0.88523   0.00000  Uiso   1.00
O756   O     0.94386   0.02755   0.75247   0.00000  Uiso   1.00
C757   C     0.24869   0.39992   0.81776   0.00000  Uiso   1.00
C758   C     0.08986   0.45030   0.80605   0.00000  Uiso   1.00
C759   C     0.38354   0.50376   0.83130   0.00000  Uiso   1.00
C760   C     0.11646   0.49624   0.83536   0.00000  Uiso   1.00
C761   C     0.40258   0.45791   0.80252   0.00000  Uiso   1.00
C762   C     0.09742   0.54209   0.86414   0.00000  Uiso   1.00
C763   C     0.44893   0.45500   0.80468   0.00000  Uiso   1.00
C764   C     0.05107   0.54500   0.86198   0.00000  Uiso   1.00
C765   C     0.47652   0.50077   0.83320   0.00000  Uiso   1.00
C766   C     0.02348   0.49923   0.83346   0.00000  Uiso   1.00
C767   C     0.45720   0.54808   0.86146   0.00000  Uiso   1.00
C768   C     0.25131   0.60008   0.84890   0.00000  Uiso   1.00
C769   C     0.04280   0.45192   0.80519   0.00000  Uiso   1.00
C770   C     0.46846   0.40765   0.77810   0.00000  Uiso   1.00
C771   C     0.03154   0.59235   0.88855   0.00000  Uiso   1.00
C772   C     0.38879   0.60048   0.88879   0.00000  Uiso   1.00
C773   C     0.11121   0.39952   0.77787   0.00000  Uiso   1.00
C774   C     0.01463   0.40714   0.77714   0.00000  Uiso   1.00
C775   C     0.48537   0.59286   0.88950   0.00000  Uiso   1.00
C776   C     0.24797   0.34394   0.80901   0.00000  Uiso   1.00
C777   C     0.25203   0.65606   0.85766   0.00000  Uiso   1.00
C778   C     0.16460   0.49866   0.83402   0.00000  Uiso   1.00
C779   C     0.33540   0.50134   0.83265   0.00000  Uiso   1.00
C780   C     0.41014   0.54970   0.86061   0.00000  Uiso   1.00
Cu781  Cu    0.25500   0.50579   0.89479   0.00000  Uiso   1.00
Cu782  Cu    0.24499   0.49421   0.77187   0.00000  Uiso   1.00
H783   H     0.38036   0.42447   0.77907   0.00000  Uiso   1.00
H784   H     0.39843   0.61187   0.93908   0.00000  Uiso   1.00
H785   H     0.40012   0.63255   0.86689   0.00000  Uiso   1.00
H786   H     0.14821   0.40228   0.78437   0.00000  Uiso   1.00
H787   H     0.09987   0.36745   0.79977   0.00000  Uiso   1.00
H788   H     0.10158   0.38814   0.72758   0.00000  Uiso   1.00
H789   H     0.41911   0.35742   0.77856   0.00000  Uiso   1.00
H790   H     0.08089   0.64257   0.88807   0.00000  Uiso   1.00
H791   H     0.11963   0.57553   0.88760   0.00000  Uiso   1.00
H792   H     0.02797   0.37035   0.75515   0.00000  Uiso   1.00
H793   H     0.47203   0.62965   0.91149   0.00000  Uiso   1.00
H794   H     0.24407   0.65341   0.76212   0.00000  Uiso   1.00
H795   H     0.25593   0.34659   0.90455   0.00000  Uiso   1.00
H796   H     0.21502   0.45922   0.98289   0.00000  Uiso   1.00
H797   H     0.28498   0.54078   0.68378   0.00000  Uiso   1.00
H798   H     0.35179   0.59772   0.88230   0.00000  Uiso   1.00
N799   N     0.23744   0.48547   0.67951   0.00000  Uiso   1.00
N800   N     0.26255   0.51453   0.98716   0.00000  Uiso   1.00
O801   O     0.25325   0.42871   0.87326   0.00000  Uiso   1.00
O802   O     0.05614   0.63912   0.91416   0.00000  Uiso   1.00
O803   O     0.24674   0.57129   0.79341   0.00000  Uiso   1.00
O804   O     0.24480   0.41892   0.76945   0.00000  Uiso   1.00
O805   O     0.25520   0.58108   0.89721   0.00000  Uiso   1.00
O806   O     0.18935   0.50488   0.88524   0.00000  Uiso   1.00
O807   O     0.31064   0.49512   0.78143   0.00000  Uiso   1.00
O808   O     0.18090   0.49510   0.78143   0.00000  Uiso   1.00
O809   O     0.31910   0.50490   0.88523   0.00000  Uiso   1.00
O810   O     0.44386   0.36088   0.75247   0.00000  Uiso   1.00
C811   C     0.74869   0.39992   0.81776   0.00000  Uiso   1.00
C812   C     0.58986   0.45030   0.80605   0.00000  Uiso   1.00
C813   C     0.88354   0.50376   0.83130   0.00000  Uiso   1.00
C814   C     0.61646   0.49624   0.83536   0.00000  Uiso   1.00
C815   C     0.90258   0.45791   0.80252   0.00000  Uiso   1.00
C816   C     0.59742   0.54209   0.86414   0.00000  Uiso   1.00
C817   C     0.94893   0.45500   0.80468   0.00000  Uiso   1.00
C818   C     0.55107   0.54500   0.86198   0.00000  Uiso   1.00
C819   C     0.97652   0.50077   0.83320   0.00000  Uiso   1.00
C820   C     0.52348   0.49923   0.83346   0.00000  Uiso   1.00
C821   C     0.95720   0.54808   0.86146   0.00000  Uiso   1.00
C822   C     0.75131   0.60008   0.84890   0.00000  Uiso   1.00
C823   C     0.54280   0.45192   0.80519   0.00000  Uiso   1.00
C824   C     0.96846   0.40765   0.77810   0.00000  Uiso   1.00
C825   C     0.53154   0.59235   0.88855   0.00000  Uiso   1.00
C826   C     0.88879   0.60048   0.88879   0.00000  Uiso   1.00
C827   C     0.61121   0.39952   0.77787   0.00000  Uiso   1.00
C828   C     0.51463   0.40714   0.77714   0.00000  Uiso   1.00
C829   C     0.98537   0.59286   0.88950   0.00000  Uiso   1.00
C830   C     0.74797   0.34394   0.80901   0.00000  Uiso   1.00
C831   C     0.75203   0.65606   0.85766   0.00000  Uiso   1.00
C832   C     0.66460   0.49866   0.83402   0.00000  Uiso   1.00
C833   C     0.83540   0.50134   0.83265   0.00000  Uiso   1.00
C834   C     0.91014   0.54970   0.86061   0.00000  Uiso   1.00
Cu835  Cu    0.75500   0.50579   0.89479   0.00000  Uiso   1.00
Cu836  Cu    0.74499   0.49421   0.77187   0.00000  Uiso   1.00
H837   H     0.88036   0.42447   0.77907   0.00000  Uiso   1.00
H838   H     0.89843   0.61187   0.93908   0.00000  Uiso   1.00
H839   H     0.90012   0.63255   0.86689   0.00000  Uiso   1.00
H840   H     0.64821   0.40228   0.78437   0.00000  Uiso   1.00
H841   H     0.59987   0.36745   0.79977   0.00000  Uiso   1.00
H842   H     0.60158   0.38814   0.72758   0.00000  Uiso   1.00
H843   H     0.91911   0.35742   0.77856   0.00000  Uiso   1.00
H844   H     0.58089   0.64257   0.88807   0.00000  Uiso   1.00
H845   H     0.61963   0.57553   0.88760   0.00000  Uiso   1.00
H846   H     0.52797   0.37035   0.75515   0.00000  Uiso   1.00
H847   H     0.97203   0.62965   0.91149   0.00000  Uiso   1.00
H848   H     0.74407   0.65341   0.76212   0.00000  Uiso   1.00
H849   H     0.75593   0.34659   0.90455   0.00000  Uiso   1.00
H850   H     0.71502   0.45922   0.98289   0.00000  Uiso   1.00
H851   H     0.78498   0.54078   0.68378   0.00000  Uiso   1.00
H852   H     0.85179   0.59772   0.88230   0.00000  Uiso   1.00
N853   N     0.73744   0.48547   0.67951   0.00000  Uiso   1.00
N854   N     0.76255   0.51453   0.98716   0.00000  Uiso   1.00
O855   O     0.75325   0.42871   0.87326   0.00000  Uiso   1.00
O856   O     0.55614   0.63912   0.91416   0.00000  Uiso   1.00
O857   O     0.74674   0.57129   0.79341   0.00000  Uiso   1.00
O858   O     0.74480   0.41892   0.76945   0.00000  Uiso   1.00
O859   O     0.75520   0.58108   0.89721   0.00000  Uiso   1.00
O860   O     0.68935   0.50488   0.88524   0.00000  Uiso   1.00
O861   O     0.81064   0.49512   0.78143   0.00000  Uiso   1.00
O862   O     0.68090   0.49510   0.78143   0.00000  Uiso   1.00
O863   O     0.81910   0.50490   0.88523   0.00000  Uiso   1.00
O864   O     0.94386   0.36088   0.75247   0.00000  Uiso   1.00
C865   C     0.24869   0.73326   0.81776   0.00000  Uiso   1.00
C866   C     0.08986   0.78363   0.80605   0.00000  Uiso   1.00
C867   C     0.38354   0.83709   0.83130   0.00000  Uiso   1.00
C868   C     0.11646   0.82958   0.83536   0.00000  Uiso   1.00
C869   C     0.40258   0.79125   0.80252   0.00000  Uiso   1.00
C870   C     0.09742   0.87542   0.86414   0.00000  Uiso   1.00
C871   C     0.44893   0.78834   0.80468   0.00000  Uiso   1.00
C872   C     0.05107   0.87833   0.86198   0.00000  Uiso   1.00
C873   C     0.47652   0.83410   0.83320   0.00000  Uiso   1.00
C874   C     0.02348   0.83257   0.83346   0.00000  Uiso   1.00
C875   C     0.45720   0.88142   0.86146   0.00000  Uiso   1.00
C876   C     0.25131   0.93341   0.84890   0.00000  Uiso   1.00
C877   C     0.04280   0.78525   0.80519   0.00000  Uiso   1.00
C878   C     0.46846   0.74098   0.77810   0.00000  Uiso   1.00
C879   C     0.03154   0.92569   0.88855   0.00000  Uiso   1.00
C880   C     0.38879   0.93382   0.88879   0.00000  Uiso   1.00
C881   C     0.11121   0.73285   0.77787   0.00000  Uiso   1.00
C882   C     0.01463   0.74047   0.77714   0.00000  Uiso   1.00
C883   C     0.48537   0.92620   0.88950   0.00000  Uiso   1.00
C884   C     0.24797   0.67727   0.80901   0.00000  Uiso   1.00
C885   C     0.25203   0.98939   0.85766   0.00000  Uiso   1.00
C886   C     0.16460   0.83199   0.83402   0.00000  Uiso   1.00
C887   C     0.33540   0.83467   0.83265   0.00000  Uiso   1.00
C888   C     0.41014   0.88304   0.86061   0.00000  Uiso   1.00
Cu889  Cu    0.25500   0.83913   0.89479   0.00000  Uiso   1.00
Cu890  Cu    0.24499   0.82754   0.77187   0.00000  Uiso   1.00
H891   H     0.38036   0.75780   0.77907   0.00000  Uiso   1.00
H892   H     0.39843   0.94520   0.93908   0.00000  Uiso   1.00
H893   H     0.40012   0.96589   0.86689   0.00000  Uiso   1.00
H894   H     0.14821   0.73561   0.78437   0.00000  Uiso   1.00
H895   H     0.09987   0.70078   0.79977   0.00000  Uiso   1.00
H896   H     0.10158   0.72147   0.72758   0.00000  Uiso   1.00
H897   H     0.41911   0.69075   0.77856   0.00000  Uiso   1.00
H898   H     0.08089   0.97591   0.88807   0.00000  Uiso   1.00
H899   H     0.11963   0.90886   0.88760   0.00000  Uiso   1.00
H900   H     0.02797   0.70369   0.75515   0.00000  Uiso   1.00
H901   H     0.47203   0.96298   0.91149   0.00000  Uiso   1.00
H902   H     0.24407   0.98674   0.76212   0.00000  Uiso   1.00
H903   H     0.25593   0.67992   0.90455   0.00000  Uiso   1.00
H904   H     0.21502   0.79255   0.98289   0.00000  Uiso   1.00
H905   H     0.28498   0.87411   0.68378   0.00000  Uiso   1.00
H906   H     0.35179   0.93105   0.88230   0.00000  Uiso   1.00
N907   N     0.23744   0.81881   0.67951   0.00000  Uiso   1.00
N908   N     0.26255   0.84786   0.98716   0.00000  Uiso   1.00
O909   O     0.25325   0.76204   0.87326   0.00000  Uiso   1.00
O910   O     0.05614   0.97245   0.91416   0.00000  Uiso   1.00
O911   O     0.24674   0.90462   0.79341   0.00000  Uiso   1.00
O912   O     0.24480   0.75226   0.76945   0.00000  Uiso   1.00
O913   O     0.25520   0.91441   0.89721   0.00000  Uiso   1.00
O914   O     0.18935   0.83821   0.88524   0.00000  Uiso   1.00
O915   O     0.31064   0.82845   0.78143   0.00000  Uiso   1.00
O916   O     0.18090   0.82843   0.78143   0.00000  Uiso   1.00
O917   O     0.31910   0.83824   0.88523   0.00000  Uiso   1.00
O918   O     0.44386   0.69421   0.75247   0.00000  Uiso   1.00
C919   C     0.74869   0.73326   0.81776   0.00000  Uiso   1.00
C920   C     0.58986   0.78363   0.80605   0.00000  Uiso   1.00
C921   C     0.88354   0.83709   0.83130   0.00000  Uiso   1.00
C922   C     0.61646   0.82958   0.83536   0.00000  Uiso   1.00
C923   C     0.90258   0.79125   0.80252   0.00000  Uiso   1.00
C924   C     0.59742   0.87542   0.86414   0.00000  Uiso   1.00
C925   C     0.94893   0.78834   0.80468   0.00000  Uiso   1.00
C926   C     0.55107   0.87833   0.86198   0.00000  Uiso   1.00
C927   C     0.97652   0.83410   0.83320   0.00000  Uiso   1.00
C928   C     0.52348   0.83257   0.83346   0.00000  Uiso   1.00
C929   C     0.95720   0.88142   0.86146   0.00000  Uiso   1.00
C930   C     0.75131   0.93341   0.84890   0.00000  Uiso   1.00
C931   C     0.54280   0.78525   0.80519   0.00000  Uiso   1.00
C932   C     0.96846   0.74098   0.77810   0.00000  Uiso   1.00
C933   C     0.53154   0.92569   0.88855   0.00000  Uiso   1.00
C934   C     0.88879   0.93382   0.88879   0.00000  Uiso   1.00
C935   C     0.61121   0.73285   0.77787   0.00000  Uiso   1.00
C936   C     0.51463   0.74047   0.77714   0.00000  Uiso   1.00
C937   C     0.98537   0.92620   0.88950   0.00000  Uiso   1.00
C938   C     0.74797   0.67727   0.80901   0.00000  Uiso   1.00
C939   C     0.75203   0.98939   0.85766   0.00000  Uiso   1.00
C940   C     0.66460   0.83199   0.83402   0.00000  Uiso   1.00
C941   C     0.83540   0.83467   0.83265   0.00000  Uiso   1.00
C942   C     0.91014   0.88304   0.86061   0.00000  Uiso   1.00
Cu943  Cu    0.75500   0.83913   0.89479   0.00000  Uiso   1.00
Cu944  Cu    0.74499   0.82754   0.77187   0.00000  Uiso   1.00
H945   H     0.88036   0.75780   0.77907   0.00000  Uiso   1.00
H946   H     0.89843   0.94520   0.93908   0.00000  Uiso   1.00
H947   H     0.90012   0.96589   0.86689   0.00000  Uiso   1.00
H948   H     0.64821   0.73561   0.78437   0.00000  Uiso   1.00
H949   H     0.59987   0.70078   0.79977   0.00000  Uiso   1.00
H950   H     0.60158   0.72147   0.72758   0.00000  Uiso   1.00
H951   H     0.91911   0.69075   0.77856   0.00000  Uiso   1.00
H952   H     0.58089   0.97591   0.88807   0.00000  Uiso   1.00
H953   H     0.61963   0.90886   0.88760   0.00000  Uiso   1.00
H954   H     0.52797   0.70369   0.75515   0.00000  Uiso   1.00
H955   H     0.97203   0.96298   0.91149   0.00000  Uiso   1.00
H956   H     0.74407   0.98674   0.76212   0.00000  Uiso   1.00
H957   H     0.75593   0.67992   0.90455   0.00000  Uiso   1.00
H958   H     0.71502   0.79255   0.98289   0.00000  Uiso   1.00
H959   H     0.78498   0.87411   0.68378   0.00000  Uiso   1.00
H960   H     0.85179   0.93105   0.88230   0.00000  Uiso   1.00
N961   N     0.73744   0.81881   0.67951   0.00000  Uiso   1.00
N962   N     0.76255   0.84786   0.98716   0.00000  Uiso   1.00
O963   O     0.75325   0.76204   0.87326   0.00000  Uiso   1.00
O964   O     0.55614   0.97245   0.91416   0.00000  Uiso   1.00
O965   O     0.74674   0.90462   0.79341   0.00000  Uiso   1.00
O966   O     0.74480   0.75226   0.76945   0.00000  Uiso   1.00
O967   O     0.75520   0.91441   0.89721   0.00000  Uiso   1.00
O968   O     0.68935   0.83821   0.88524   0.00000  Uiso   1.00
O969   O     0.81064   0.82845   0.78143   0.00000  Uiso   1.00
O970   O     0.68090   0.82843   0.78143   0.00000  Uiso   1.00
O971   O     0.81910   0.83824   0.88523   0.00000  Uiso   1.00
O972   O     0.94386   0.69421   0.75247   0.00000  Uiso   1.00
loop_
_geom_bond_atom_site_label_1
_geom_bond_atom_site_label_2
_geom_bond_distance
_geom_bond_site_symmetry_2
_ccdc_geom_bond_type
C1     O48     1.285   .     A
C1     O45     1.293   .     A
C1     C20     1.425   .     S
C2     C4      1.410   .     A
C2     C17     1.521   .     S
C2     C13     1.414   .     A
C3     C24     1.410   .     A
C3     C23     1.446   .     S
C3     C5      1.390   .     A
C4     C22     1.446   .     S
C4     C6      1.390   .     A
C5     C7      1.395   .     A
C5     H27     1.083   .     S
C6     H35     1.083   .     S
C6     C8      1.395   .     A
C7     C9      1.417   .     A
C7     C14     1.414   .     A
C8     C10     1.417   .     A
C8     C15     1.414   .     A
C9     C11     1.421   .     A
C9     C64     1.412   .     S
C10    C13     1.421   .     A
C10    C63     1.412   1_455 S
C11    C19     1.406   .     A
C11    C24     1.414   .     A
C12    O49     1.285   .     A
C12    O47     1.293   .     A
C12    C21     1.425   .     S
C13    C18     1.406   .     A
C14    O54     1.380   .     S
C14    C72     1.388   .     S
C15    O46     1.380   .     S
C15    C73     1.388   1_455 S
C16    H28     1.110   .     S
C16    H29     1.110   .     S
C16    C24     1.521   .     S
C16    H42     1.107   .     S
C17    H30     1.107   .     S
C17    H31     1.110   .     S
C17    H32     1.110   .     S
C18    H36     1.081   .     S
C18    C68     1.388   1_455 S
C19    H37     1.081   .     S
C19    C69     1.388   .     S
C20    C237    1.326   1_545 S
C20    H254    1.088   1_545 S
C21    C128    1.326   .     S
C21    H147    1.088   .     S
C22    O50     1.294   .     A
C22    O52     1.291   .     A
C23    O51     1.294   .     A
C23    O53     1.291   .     A
Cu25   N44     2.021   .     S
Cu25   O53     1.951   .     S
Cu25   O49     1.947   .     S
Cu25   O45     1.953   .     S
Cu25   O50     1.965   .     S
Cu25   Cu26    2.690   .     S
Cu26   O52     1.951   .     S
Cu26   O48     1.947   .     S
Cu26   O51     1.965   .     S
Cu26   O47     1.953   .     S
Cu26   N43     2.021   .     S
H33    O54     0.990   .     S
H34    O46     0.990   .     S
H38    C128    1.088   .     S
H39    C237    1.088   1_545 S
H40    N367    1.029   .     S
H41    N692    1.029   1_554 S
N43    H688    1.029   1_554 S
N43    N692    1.294   1_554 S
N44    N367    1.294   .     S
N44    H365    1.029   .     S
C55    O102    1.285   .     A
C55    O99     1.293   .     A
C55    C74     1.425   .     S
C56    C58     1.410   .     A
C56    C71     1.521   .     S
C56    C67     1.414   .     A
C57    C78     1.410   .     A
C57    C77     1.446   .     S
C57    C59     1.390   .     A
C58    C76     1.446   .     S
C58    C60     1.390   .     A
C59    C61     1.395   .     A
C59    H81     1.083   .     S
C60    H89     1.083   .     S
C60    C62     1.395   .     A
C61    C63     1.417   .     A
C61    C68     1.414   .     A
C62    C64     1.417   .     A
C62    C69     1.414   .     A
C63    C65     1.421   .     A
C63    C10     1.412   1_655 S
C64    C67     1.421   .     A
C65    C73     1.406   .     A
C65    C78     1.414   .     A
C66    O103    1.285   .     A
C66    O101    1.293   .     A
C66    C75     1.425   .     S
C67    C72     1.406   .     A
C68    O108    1.380   .     S
C68    C18     1.388   1_655 S
C69    O100    1.380   .     S
C70    H82     1.110   .     S
C70    H83     1.110   .     S
C70    C78     1.521   .     S
C70    H96     1.107   .     S
C71    H84     1.107   .     S
C71    H85     1.110   .     S
C71    H86     1.110   .     S
C72    H90     1.081   .     S
C73    H91     1.081   .     S
C73    C15     1.388   1_655 S
C74    C291    1.326   1_545 S
C74    H308    1.088   1_545 S
C75    C182    1.326   .     S
C75    H201    1.088   .     S
C76    O104    1.294   .     A
C76    O106    1.291   .     A
C77    O105    1.294   .     A
C77    O107    1.291   .     A
Cu79   N98     2.021   .     S
Cu79   O107    1.951   .     S
Cu79   O103    1.947   .     S
Cu79   O99     1.953   .     S
Cu79   O104    1.965   .     S
Cu79   Cu80    2.690   .     S
Cu80   O106    1.951   .     S
Cu80   O102    1.947   .     S
Cu80   O105    1.965   .     S
Cu80   O101    1.953   .     S
Cu80   N97     2.021   .     S
H87    O108    0.990   .     S
H88    O100    0.990   .     S
H92    C182    1.088   .     S
H93    C291    1.088   1_545 S
H94    N421    1.029   .     S
H95    N746    1.029   1_554 S
N97    H742    1.029   1_554 S
N97    N746    1.294   1_554 S
N98    N421    1.294   .     S
N98    H419    1.029   .     S
C109   O156    1.285   .     A
C109   O153    1.293   .     A
C109   C128    1.425   .     S
C110   C112    1.410   .     A
C110   C125    1.521   .     S
C110   C121    1.414   .     A
C111   C132    1.410   .     A
C111   C131    1.446   .     S
C111   C113    1.390   .     A
C112   C130    1.446   .     S
C112   C114    1.390   .     A
C113   C115    1.395   .     A
C113   H135    1.083   .     S
C114   H143    1.083   .     S
C114   C116    1.395   .     A
C115   C117    1.417   .     A
C115   C122    1.414   .     A
C116   C118    1.417   .     A
C116   C123    1.414   .     A
C117   C119    1.421   .     A
C117   C172    1.412   .     S
C118   C121    1.421   .     A
C118   C171    1.412   1_455 S
C119   C127    1.406   .     A
C119   C132    1.414   .     A
C120   O157    1.285   .     A
C120   O155    1.293   .     A
C120   C129    1.425   .     S
C121   C126    1.406   .     A
C122   O162    1.380   .     S
C122   C180    1.388   .     S
C123   O154    1.380   .     S
C123   C181    1.388   1_455 S
C124   H136    1.110   .     S
C124   H137    1.110   .     S
C124   C132    1.521   .     S
C124   H150    1.107   .     S
C125   H138    1.107   .     S
C125   H139    1.110   .     S
C125   H140    1.110   .     S
C126   H144    1.081   .     S
C126   C176    1.388   1_455 S
C127   H145    1.081   .     S
C127   C177    1.388   .     S
C129   C236    1.326   .     S
C129   H255    1.088   .     S
C130   O158    1.294   .     A
C130   O160    1.291   .     A
C131   O159    1.294   .     A
C131   O161    1.291   .     A
Cu133  N152    2.021   .     S
Cu133  O161    1.951   .     S
Cu133  O157    1.947   .     S
Cu133  O153    1.953   .     S
Cu133  O158    1.965   .     S
Cu133  Cu134   2.690   .     S
Cu134  O160    1.951   .     S
Cu134  O156    1.947   .     S
Cu134  O159    1.965   .     S
Cu134  O155    1.953   .     S
Cu134  N151    2.021   .     S
H141   O162    0.990   .     S
H142   O154    0.990   .     S
H146   C236    1.088   .     S
H148   N475    1.029   .     S
H149   N800    1.029   1_554 S
N151   H796    1.029   1_554 S
N151   N800    1.294   1_554 S
N152   N475    1.294   .     S
N152   H473    1.029   .     S
C163   O210    1.285   .     A
C163   O207    1.293   .     A
C163   C182    1.425   .     S
C164   C166    1.410   .     A
C164   C179    1.521   .     S
C164   C175    1.414   .     A
C165   C186    1.410   .     A
C165   C185    1.446   .     S
C165   C167    1.390   .     A
C166   C184    1.446   .     S
C166   C168    1.390   .     A
C167   C169    1.395   .     A
C167   H189    1.083   .     S
C168   H197    1.083   .     S
C168   C170    1.395   .     A
C169   C171    1.417   .     A
C169   C176    1.414   .     A
C170   C172    1.417   .     A
C170   C177    1.414   .     A
C171   C173    1.421   .     A
C171   C118    1.412   1_655 S
C172   C175    1.421   .     A
C173   C181    1.406   .     A
C173   C186    1.414   .     A
C174   O211    1.285   .     A
C174   O209    1.293   .     A
C174   C183    1.425   .     S
C175   C180    1.406   .     A
C176   O216    1.380   .     S
C176   C126    1.388   1_655 S
C177   O208    1.380   .     S
C178   H190    1.110   .     S
C178   H191    1.110   .     S
C178   C186    1.521   .     S
C178   H204    1.107   .     S
C179   H192    1.107   .     S
C179   H193    1.110   .     S
C179   H194    1.110   .     S
C180   H198    1.081   .     S
C181   H199    1.081   .     S
C181   C123    1.388   1_655 S
C183   C290    1.326   .     S
C183   H309    1.088   .     S
C184   O212    1.294   .     A
C184   O214    1.291   .     A
C185   O213    1.294   .     A
C185   O215    1.291   .     A
Cu187  N206    2.021   .     S
Cu187  O215    1.951   .     S
Cu187  O211    1.947   .     S
Cu187  O207    1.953   .     S
Cu187  O212    1.965   .     S
Cu187  Cu188   2.690   .     S
Cu188  O214    1.951   .     S
Cu188  O210    1.947   .     S
Cu188  O213    1.965   .     S
Cu188  O209    1.953   .     S
Cu188  N205    2.021   .     S
H195   O216    0.990   .     S
H196   O208    0.990   .     S
H200   C290    1.088   .     S
H202   N529    1.029   .     S
H203   N854    1.029   1_554 S
N205   H850    1.029   1_554 S
N205   N854    1.294   1_554 S
N206   N529    1.294   .     S
N206   H527    1.029   .     S
C217   O264    1.285   .     A
C217   O261    1.293   .     A
C217   C236    1.425   .     S
C218   C220    1.410   .     A
C218   C233    1.521   .     S
C218   C229    1.414   .     A
C219   C240    1.410   .     A
C219   C239    1.446   .     S
C219   C221    1.390   .     A
C220   C238    1.446   .     S
C220   C222    1.390   .     A
C221   C223    1.395   .     A
C221   H243    1.083   .     S
C222   H251    1.083   .     S
C222   C224    1.395   .     A
C223   C225    1.417   .     A
C223   C230    1.414   .     A
C224   C226    1.417   .     A
C224   C231    1.414   .     A
C225   C227    1.421   .     A
C225   C280    1.412   .     S
C226   C229    1.421   .     A
C226   C279    1.412   1_455 S
C227   C235    1.406   .     A
C227   C240    1.414   .     A
C228   O265    1.285   .     A
C228   O263    1.293   .     A
C228   C237    1.425   .     S
C229   C234    1.406   .     A
C230   O270    1.380   .     S
C230   C288    1.388   .     S
C231   O262    1.380   .     S
C231   C289    1.388   1_455 S
C232   H244    1.110   .     S
C232   H245    1.110   .     S
C232   C240    1.521   .     S
C232   H258    1.107   .     S
C233   H246    1.107   .     S
C233   H247    1.110   .     S
C233   H248    1.110   .     S
C234   H252    1.081   .     S
C234   C284    1.388   1_455 S
C235   H253    1.081   .     S
C235   C285    1.388   .     S
C237   C20     1.326   1_565 S
C237   H39     1.088   1_565 S
C238   O266    1.294   .     A
C238   O268    1.291   .     A
C239   O267    1.294   .     A
C239   O269    1.291   .     A
Cu241  N260    2.021   .     S
Cu241  O269    1.951   .     S
Cu241  O265    1.947   .     S
Cu241  O261    1.953   .     S
Cu241  O266    1.965   .     S
Cu241  Cu242   2.690   .     S
Cu242  O268    1.951   .     S
Cu242  O264    1.947   .     S
Cu242  O267    1.965   .     S
Cu242  O263    1.953   .     S
Cu242  N259    2.021   .     S
H249   O270    0.990   .     S
H250   O262    0.990   .     S
H254   C20     1.088   1_565 S
H256   N583    1.029   .     S
H257   N908    1.029   1_554 S
N259   H904    1.029   1_554 S
N259   N908    1.294   1_554 S
N260   N583    1.294   .     S
N260   H581    1.029   .     S
C271   O318    1.285   .     A
C271   O315    1.293   .     A
C271   C290    1.425   .     S
C272   C274    1.410   .     A
C272   C287    1.521   .     S
C272   C283    1.414   .     A
C273   C294    1.410   .     A
C273   C293    1.446   .     S
C273   C275    1.390   .     A
C274   C292    1.446   .     S
C274   C276    1.390   .     A
C275   C277    1.395   .     A
C275   H297    1.083   .     S
C276   H305    1.083   .     S
C276   C278    1.395   .     A
C277   C279    1.417   .     A
C277   C284    1.414   .     A
C278   C280    1.417   .     A
C278   C285    1.414   .     A
C279   C281    1.421   .     A
C279   C226    1.412   1_655 S
C280   C283    1.421   .     A
C281   C289    1.406   .     A
C281   C294    1.414   .     A
C282   O319    1.285   .     A
C282   O317    1.293   .     A
C282   C291    1.425   .     S
C283   C288    1.406   .     A
C284   O324    1.380   .     S
C284   C234    1.388   1_655 S
C285   O316    1.380   .     S
C286   H298    1.110   .     S
C286   H299    1.110   .     S
C286   C294    1.521   .     S
C286   H312    1.107   .     S
C287   H300    1.107   .     S
C287   H301    1.110   .     S
C287   H302    1.110   .     S
C288   H306    1.081   .     S
C289   H307    1.081   .     S
C289   C231    1.388   1_655 S
C291   C74     1.326   1_565 S
C291   H93     1.088   1_565 S
C292   O320    1.294   .     A
C292   O322    1.291   .     A
C293   O321    1.294   .     A
C293   O323    1.291   .     A
Cu295  N314    2.021   .     S
Cu295  O323    1.951   .     S
Cu295  O319    1.947   .     S
Cu295  O315    1.953   .     S
Cu295  O320    1.965   .     S
Cu295  Cu296   2.690   .     S
Cu296  O322    1.951   .     S
Cu296  O318    1.947   .     S
Cu296  O321    1.965   .     S
Cu296  O317    1.953   .     S
Cu296  N313    2.021   .     S
H303   O324    0.990   .     S
H304   O316    0.990   .     S
H308   C74     1.088   1_565 S
H310   N637    1.029   .     S
H311   N962    1.029   1_554 S
N313   H958    1.029   1_554 S
N313   N962    1.294   1_554 S
N314   N637    1.294   .     S
N314   H635    1.029   .     S
C325   O372    1.285   .     A
C325   O369    1.293   .     A
C325   C344    1.425   .     S
C326   C328    1.410   .     A
C326   C341    1.521   .     S
C326   C337    1.414   .     A
C327   C348    1.410   .     A
C327   C347    1.446   .     S
C327   C329    1.390   .     A
C328   C346    1.446   .     S
C328   C330    1.390   .     A
C329   C331    1.395   .     A
C329   H351    1.083   .     S
C330   H359    1.083   .     S
C330   C332    1.395   .     A
C331   C333    1.417   .     A
C331   C338    1.414   .     A
C332   C334    1.417   .     A
C332   C339    1.414   .     A
C333   C335    1.421   .     A
C333   C388    1.412   .     S
C334   C337    1.421   .     A
C334   C387    1.412   1_455 S
C335   C343    1.406   .     A
C335   C348    1.414   .     A
C336   O373    1.285   .     A
C336   O371    1.293   .     A
C336   C345    1.425   .     S
C337   C342    1.406   .     A
C338   O378    1.380   .     S
C338   C396    1.388   .     S
C339   O370    1.380   .     S
C339   C397    1.388   1_455 S
C340   H352    1.110   .     S
C340   H353    1.110   .     S
C340   C348    1.521   .     S
C340   H366    1.107   .     S
C341   H354    1.107   .     S
C341   H355    1.110   .     S
C341   H356    1.110   .     S
C342   H360    1.081   .     S
C342   C392    1.388   1_455 S
C343   H361    1.081   .     S
C343   C393    1.388   .     S
C344   C561    1.326   1_545 S
C344   H578    1.088   1_545 S
C345   C452    1.326   .     S
C345   H471    1.088   .     S
C346   O374    1.294   .     A
C346   O376    1.291   .     A
C347   O375    1.294   .     A
C347   O377    1.291   .     A
Cu349  N368    2.021   .     S
Cu349  O377    1.951   .     S
Cu349  O373    1.947   .     S
Cu349  O369    1.953   .     S
Cu349  O374    1.965   .     S
Cu349  Cu350   2.690   .     S
Cu350  O376    1.951   .     S
Cu350  O372    1.947   .     S
Cu350  O375    1.965   .     S
Cu350  O371    1.953   .     S
Cu350  N367    2.021   .     S
H357   O378    0.990   .     S
H358   O370    0.990   .     S
H362   C452    1.088   .     S
H363   C561    1.088   1_545 S
H364   N691    1.029   .     S
N368   N691    1.294   .     S
N368   H689    1.029   .     S
C379   O426    1.285   .     A
C379   O423    1.293   .     A
C379   C398    1.425   .     S
C380   C382    1.410   .     A
C380   C395    1.521   .     S
C380   C391    1.414   .     A
C381   C402    1.410   .     A
C381   C401    1.446   .     S
C381   C383    1.390   .     A
C382   C400    1.446   .     S
C382   C384    1.390   .     A
C383   C385    1.395   .     A
C383   H405    1.083   .     S
C384   H413    1.083   .     S
C384   C386    1.395   .     A
C385   C387    1.417   .     A
C385   C392    1.414   .     A
C386   C388    1.417   .     A
C386   C393    1.414   .     A
C387   C389    1.421   .     A
C387   C334    1.412   1_655 S
C388   C391    1.421   .     A
C389   C397    1.406   .     A
C389   C402    1.414   .     A
C390   O427    1.285   .     A
C390   O425    1.293   .     A
C390   C399    1.425   .     S
C391   C396    1.406   .     A
C392   O432    1.380   .     S
C392   C342    1.388   1_655 S
C393   O424    1.380   .     S
C394   H406    1.110   .     S
C394   H407    1.110   .     S
C394   C402    1.521   .     S
C394   H420    1.107   .     S
C395   H408    1.107   .     S
C395   H409    1.110   .     S
C395   H410    1.110   .     S
C396   H414    1.081   .     S
C397   H415    1.081   .     S
C397   C339    1.388   1_655 S
C398   C615    1.326   1_545 S
C398   H632    1.088   1_545 S
C399   C506    1.326   .     S
C399   H525    1.088   .     S
C400   O428    1.294   .     A
C400   O430    1.291   .     A
C401   O429    1.294   .     A
C401   O431    1.291   .     A
Cu403  N422    2.021   .     S
Cu403  O431    1.951   .     S
Cu403  O427    1.947   .     S
Cu403  O423    1.953   .     S
Cu403  O428    1.965   .     S
Cu403  Cu404   2.690   .     S
Cu404  O430    1.951   .     S
Cu404  O426    1.947   .     S
Cu404  O429    1.965   .     S
Cu404  O425    1.953   .     S
Cu404  N421    2.021   .     S
H411   O432    0.990   .     S
H412   O424    0.990   .     S
H416   C506    1.088   .     S
H417   C615    1.088   1_545 S
H418   N745    1.029   .     S
N422   N745    1.294   .     S
N422   H743    1.029   .     S
C433   O480    1.285   .     A
C433   O477    1.293   .     A
C433   C452    1.425   .     S
C434   C436    1.410   .     A
C434   C449    1.521   .     S
C434   C445    1.414   .     A
C435   C456    1.410   .     A
C435   C455    1.446   .     S
C435   C437    1.390   .     A
C436   C454    1.446   .     S
C436   C438    1.390   .     A
C437   C439    1.395   .     A
C437   H459    1.083   .     S
C438   H467    1.083   .     S
C438   C440    1.395   .     A
C439   C441    1.417   .     A
C439   C446    1.414   .     A
C440   C442    1.417   .     A
C440   C447    1.414   .     A
C441   C443    1.421   .     A
C441   C496    1.412   .     S
C442   C445    1.421   .     A
C442   C495    1.412   1_455 S
C443   C451    1.406   .     A
C443   C456    1.414   .     A
C444   O481    1.285   .     A
C444   O479    1.293   .     A
C444   C453    1.425   .     S
C445   C450    1.406   .     A
C446   O486    1.380   .     S
C446   C504    1.388   .     S
C447   O478    1.380   .     S
C447   C505    1.388   1_455 S
C448   H460    1.110   .     S
C448   H461    1.110   .     S
C448   C456    1.521   .     S
C448   H474    1.107   .     S
C449   H462    1.107   .     S
C449   H463    1.110   .     S
C449   H464    1.110   .     S
C450   H468    1.081   .     S
C450   C500    1.388   1_455 S
C451   H469    1.081   .     S
C451   C501    1.388   .     S
C453   C560    1.326   .     S
C453   H579    1.088   .     S
C454   O482    1.294   .     A
C454   O484    1.291   .     A
C455   O483    1.294   .     A
C455   O485    1.291   .     A
Cu457  N476    2.021   .     S
Cu457  O485    1.951   .     S
Cu457  O481    1.947   .     S
Cu457  O477    1.953   .     S
Cu457  O482    1.965   .     S
Cu457  Cu458   2.690   .     S
Cu458  O484    1.951   .     S
Cu458  O480    1.947   .     S
Cu458  O483    1.965   .     S
Cu458  O479    1.953   .     S
Cu458  N475    2.021   .     S
H465   O486    0.990   .     S
H466   O478    0.990   .     S
H470   C560    1.088   .     S
H472   N799    1.029   .     S
N476   N799    1.294   .     S
N476   H797    1.029   .     S
C487   O534    1.285   .     A
C487   O531    1.293   .     A
C487   C506    1.425   .     S
C488   C490    1.410   .     A
C488   C503    1.521   .     S
C488   C499    1.414   .     A
C489   C510    1.410   .     A
C489   C509    1.446   .     S
C489   C491    1.390   .     A
C490   C508    1.446   .     S
C490   C492    1.390   .     A
C491   C493    1.395   .     A
C491   H513    1.083   .     S
C492   H521    1.083   .     S
C492   C494    1.395   .     A
C493   C495    1.417   .     A
C493   C500    1.414   .     A
C494   C496    1.417   .     A
C494   C501    1.414   .     A
C495   C497    1.421   .     A
C495   C442    1.412   1_655 S
C496   C499    1.421   .     A
C497   C505    1.406   .     A
C497   C510    1.414   .     A
C498   O535    1.285   .     A
C498   O533    1.293   .     A
C498   C507    1.425   .     S
C499   C504    1.406   .     A
C500   O540    1.380   .     S
C500   C450    1.388   1_655 S
C501   O532    1.380   .     S
C502   H514    1.110   .     S
C502   H515    1.110   .     S
C502   C510    1.521   .     S
C502   H528    1.107   .     S
C503   H516    1.107   .     S
C503   H517    1.110   .     S
C503   H518    1.110   .     S
C504   H522    1.081   .     S
C505   H523    1.081   .     S
C505   C447    1.388   1_655 S
C507   C614    1.326   .     S
C507   H633    1.088   .     S
C508   O536    1.294   .     A
C508   O538    1.291   .     A
C509   O537    1.294   .     A
C509   O539    1.291   .     A
Cu511  N530    2.021   .     S
Cu511  O539    1.951   .     S
Cu511  O535    1.947   .     S
Cu511  O531    1.953   .     S
Cu511  O536    1.965   .     S
Cu511  Cu512   2.690   .     S
Cu512  O538    1.951   .     S
Cu512  O534    1.947   .     S
Cu512  O537    1.965   .     S
Cu512  O533    1.953   .     S
Cu512  N529    2.021   .     S
H519   O540    0.990   .     S
H520   O532    0.990   .     S
H524   C614    1.088   .     S
H526   N853    1.029   .     S
N530   N853    1.294   .     S
N530   H851    1.029   .     S
C541   O588    1.285   .     A
C541   O585    1.293   .     A
C541   C560    1.425   .     S
C542   C544    1.410   .     A
C542   C557    1.521   .     S
C542   C553    1.414   .     A
C543   C564    1.410   .     A
C543   C563    1.446   .     S
C543   C545    1.390   .     A
C544   C562    1.446   .     S
C544   C546    1.390   .     A
C545   C547    1.395   .     A
C545   H567    1.083   .     S
C546   H575    1.083   .     S
C546   C548    1.395   .     A
C547   C549    1.417   .     A
C547   C554    1.414   .     A
C548   C550    1.417   .     A
C548   C555    1.414   .     A
C549   C551    1.421   .     A
C549   C604    1.412   .     S
C550   C553    1.421   .     A
C550   C603    1.412   1_455 S
C551   C559    1.406   .     A
C551   C564    1.414   .     A
C552   O589    1.285   .     A
C552   O587    1.293   .     A
C552   C561    1.425   .     S
C553   C558    1.406   .     A
C554   O594    1.380   .     S
C554   C612    1.388   .     S
C555   O586    1.380   .     S
C555   C613    1.388   1_455 S
C556   H568    1.110   .     S
C556   H569    1.110   .     S
C556   C564    1.521   .     S
C556   H582    1.107   .     S
C557   H570    1.107   .     S
C557   H571    1.110   .     S
C557   H572    1.110   .     S
C558   H576    1.081   .     S
C558   C608    1.388   1_455 S
C559   H577    1.081   .     S
C559   C609    1.388   .     S
C561   C344    1.326   1_565 S
C561   H363    1.088   1_565 S
C562   O590    1.294   .     A
C562   O592    1.291   .     A
C563   O591    1.294   .     A
C563   O593    1.291   .     A
Cu565  N584    2.021   .     S
Cu565  O593    1.951   .     S
Cu565  O589    1.947   .     S
Cu565  O585    1.953   .     S
Cu565  O590    1.965   .     S
Cu565  Cu566   2.690   .     S
Cu566  O592    1.951   .     S
Cu566  O588    1.947   .     S
Cu566  O591    1.965   .     S
Cu566  O587    1.953   .     S
Cu566  N583    2.021   .     S
H573   O594    0.990   .     S
H574   O586    0.990   .     S
H578   C344    1.088   1_565 S
H580   N907    1.029   .     S
N584   N907    1.294   .     S
N584   H905    1.029   .     S
C595   O642    1.285   .     A
C595   O639    1.293   .     A
C595   C614    1.425   .     S
C596   C598    1.410   .     A
C596   C611    1.521   .     S
C596   C607    1.414   .     A
C597   C618    1.410   .     A
C597   C617    1.446   .     S
C597   C599    1.390   .     A
C598   C616    1.446   .     S
C598   C600    1.390   .     A
C599   C601    1.395   .     A
C599   H621    1.083   .     S
C600   H629    1.083   .     S
C600   C602    1.395   .     A
C601   C603    1.417   .     A
C601   C608    1.414   .     A
C602   C604    1.417   .     A
C602   C609    1.414   .     A
C603   C605    1.421   .     A
C603   C550    1.412   1_655 S
C604   C607    1.421   .     A
C605   C613    1.406   .     A
C605   C618    1.414   .     A
C606   O643    1.285   .     A
C606   O641    1.293   .     A
C606   C615    1.425   .     S
C607   C612    1.406   .     A
C608   O648    1.380   .     S
C608   C558    1.388   1_655 S
C609   O640    1.380   .     S
C610   H622    1.110   .     S
C610   H623    1.110   .     S
C610   C618    1.521   .     S
C610   H636    1.107   .     S
C611   H624    1.107   .     S
C611   H625    1.110   .     S
C611   H626    1.110   .     S
C612   H630    1.081   .     S
C613   H631    1.081   .     S
C613   C555    1.388   1_655 S
C615   C398    1.326   1_565 S
C615   H417    1.088   1_565 S
C616   O644    1.294   .     A
C616   O646    1.291   .     A
C617   O645    1.294   .     A
C617   O647    1.291   .     A
Cu619  N638    2.021   .     S
Cu619  O647    1.951   .     S
Cu619  O643    1.947   .     S
Cu619  O639    1.953   .     S
Cu619  O644    1.965   .     S
Cu619  Cu620   2.690   .     S
Cu620  O646    1.951   .     S
Cu620  O642    1.947   .     S
Cu620  O645    1.965   .     S
Cu620  O641    1.953   .     S
Cu620  N637    2.021   .     S
H627   O648    0.990   .     S
H628   O640    0.990   .     S
H632   C398    1.088   1_565 S
H634   N961    1.029   .     S
N638   N961    1.294   .     S
N638   H959    1.029   .     S
C649   O696    1.285   .     A
C649   O693    1.293   .     A
C649   C668    1.425   .     S
C650   C652    1.410   .     A
C650   C665    1.521   .     S
C650   C661    1.414   .     A
C651   C672    1.410   .     A
C651   C671    1.446   .     S
C651   C653    1.390   .     A
C652   C670    1.446   .     S
C652   C654    1.390   .     A
C653   C655    1.395   .     A
C653   H675    1.083   .     S
C654   H683    1.083   .     S
C654   C656    1.395   .     A
C655   C657    1.417   .     A
C655   C662    1.414   .     A
C656   C658    1.417   .     A
C656   C663    1.414   .     A
C657   C659    1.421   .     A
C657   C712    1.412   .     S
C658   C661    1.421   .     A
C658   C711    1.412   1_455 S
C659   C667    1.406   .     A
C659   C672    1.414   .     A
C660   O697    1.285   .     A
C660   O695    1.293   .     A
C660   C669    1.425   .     S
C661   C666    1.406   .     A
C662   O702    1.380   .     S
C662   C720    1.388   .     S
C663   O694    1.380   .     S
C663   C721    1.388   1_455 S
C664   H676    1.110   .     S
C664   H677    1.110   .     S
C664   C672    1.521   .     S
C664   H690    1.107   .     S
C665   H678    1.107   .     S
C665   H679    1.110   .     S
C665   H680    1.110   .     S
C666   H684    1.081   .     S
C666   C716    1.388   1_455 S
C667   H685    1.081   .     S
C667   C717    1.388   .     S
C668   C885    1.326   1_545 S
C668   H902    1.088   1_545 S
C669   C776    1.326   .     S
C669   H795    1.088   .     S
C670   O698    1.294   .     A
C670   O700    1.291   .     A
C671   O699    1.294   .     A
C671   O701    1.291   .     A
Cu673  N692    2.021   .     S
Cu673  O701    1.951   .     S
Cu673  O697    1.947   .     S
Cu673  O693    1.953   .     S
Cu673  O698    1.965   .     S
Cu673  Cu674   2.690   .     S
Cu674  O700    1.951   .     S
Cu674  O696    1.947   .     S
Cu674  O699    1.965   .     S
Cu674  O695    1.953   .     S
Cu674  N691    2.021   .     S
H681   O702    0.990   .     S
H682   O694    0.990   .     S
H686   C776    1.088   .     S
H687   C885    1.088   1_545 S
H688   N43     1.029   1_556 S
N692   N43     1.294   1_556 S
N692   H41     1.029   1_556 S
C703   O750    1.285   .     A
C703   O747    1.293   .     A
C703   C722    1.425   .     S
C704   C706    1.410   .     A
C704   C719    1.521   .     S
C704   C715    1.414   .     A
C705   C726    1.410   .     A
C705   C725    1.446   .     S
C705   C707    1.390   .     A
C706   C724    1.446   .     S
C706   C708    1.390   .     A
C707   C709    1.395   .     A
C707   H729    1.083   .     S
C708   H737    1.083   .     S
C708   C710    1.395   .     A
C709   C711    1.417   .     A
C709   C716    1.414   .     A
C710   C712    1.417   .     A
C710   C717    1.414   .     A
C711   C713    1.421   .     A
C711   C658    1.412   1_655 S
C712   C715    1.421   .     A
C713   C721    1.406   .     A
C713   C726    1.414   .     A
C714   O751    1.285   .     A
C714   O749    1.293   .     A
C714   C723    1.425   .     S
C715   C720    1.406   .     A
C716   O756    1.380   .     S
C716   C666    1.388   1_655 S
C717   O748    1.380   .     S
C718   H730    1.110   .     S
C718   H731    1.110   .     S
C718   C726    1.521   .     S
C718   H744    1.107   .     S
C719   H732    1.107   .     S
C719   H733    1.110   .     S
C719   H734    1.110   .     S
C720   H738    1.081   .     S
C721   H739    1.081   .     S
C721   C663    1.388   1_655 S
C722   C939    1.326   1_545 S
C722   H956    1.088   1_545 S
C723   C830    1.326   .     S
C723   H849    1.088   .     S
C724   O752    1.294   .     A
C724   O754    1.291   .     A
C725   O753    1.294   .     A
C725   O755    1.291   .     A
Cu727  N746    2.021   .     S
Cu727  O755    1.951   .     S
Cu727  O751    1.947   .     S
Cu727  O747    1.953   .     S
Cu727  O752    1.965   .     S
Cu727  Cu728   2.690   .     S
Cu728  O754    1.951   .     S
Cu728  O750    1.947   .     S
Cu728  O753    1.965   .     S
Cu728  O749    1.953   .     S
Cu728  N745    2.021   .     S
H735   O756    0.990   .     S
H736   O748    0.990   .     S
H740   C830    1.088   .     S
H741   C939    1.088   1_545 S
H742   N97     1.029   1_556 S
N746   N97     1.294   1_556 S
N746   H95     1.029   1_556 S
C757   O804    1.285   .     A
C757   O801    1.293   .     A
C757   C776    1.425   .     S
C758   C760    1.410   .     A
C758   C773    1.521   .     S
C758   C769    1.414   .     A
C759   C780    1.410   .     A
C759   C779    1.446   .     S
C759   C761    1.390   .     A
C760   C778    1.446   .     S
C760   C762    1.390   .     A
C761   C763    1.395   .     A
C761   H783    1.083   .     S
C762   H791    1.083   .     S
C762   C764    1.395   .     A
C763   C765    1.417   .     A
C763   C770    1.414   .     A
C764   C766    1.417   .     A
C764   C771    1.414   .     A
C765   C767    1.421   .     A
C765   C820    1.412   .     S
C766   C769    1.421   .     A
C766   C819    1.412   1_455 S
C767   C775    1.406   .     A
C767   C780    1.414   .     A
C768   O805    1.285   .     A
C768   O803    1.293   .     A
C768   C777    1.425   .     S
C769   C774    1.406   .     A
C770   O810    1.380   .     S
C770   C828    1.388   .     S
C771   O802    1.380   .     S
C771   C829    1.388   1_455 S
C772   H784    1.110   .     S
C772   H785    1.110   .     S
C772   C780    1.521   .     S
C772   H798    1.107   .     S
C773   H786    1.107   .     S
C773   H787    1.110   .     S
C773   H788    1.110   .     S
C774   H792    1.081   .     S
C774   C824    1.388   1_455 S
C775   H793    1.081   .     S
C775   C825    1.388   .     S
C777   C884    1.326   .     S
C777   H903    1.088   .     S
C778   O806    1.294   .     A
C778   O808    1.291   .     A
C779   O807    1.294   .     A
C779   O809    1.291   .     A
Cu781  N800    2.021   .     S
Cu781  O809    1.951   .     S
Cu781  O805    1.947   .     S
Cu781  O801    1.953   .     S
Cu781  O806    1.965   .     S
Cu781  Cu782   2.690   .     S
Cu782  O808    1.951   .     S
Cu782  O804    1.947   .     S
Cu782  O807    1.965   .     S
Cu782  O803    1.953   .     S
Cu782  N799    2.021   .     S
H789   O810    0.990   .     S
H790   O802    0.990   .     S
H794   C884    1.088   .     S
H796   N151    1.029   1_556 S
N800   N151    1.294   1_556 S
N800   H149    1.029   1_556 S
C811   O858    1.285   .     A
C811   O855    1.293   .     A
C811   C830    1.425   .     S
C812   C814    1.410   .     A
C812   C827    1.521   .     S
C812   C823    1.414   .     A
C813   C834    1.410   .     A
C813   C833    1.446   .     S
C813   C815    1.390   .     A
C814   C832    1.446   .     S
C814   C816    1.390   .     A
C815   C817    1.395   .     A
C815   H837    1.083   .     S
C816   H845    1.083   .     S
C816   C818    1.395   .     A
C817   C819    1.417   .     A
C817   C824    1.414   .     A
C818   C820    1.417   .     A
C818   C825    1.414   .     A
C819   C821    1.421   .     A
C819   C766    1.412   1_655 S
C820   C823    1.421   .     A
C821   C829    1.406   .     A
C821   C834    1.414   .     A
C822   O859    1.285   .     A
C822   O857    1.293   .     A
C822   C831    1.425   .     S
C823   C828    1.406   .     A
C824   O864    1.380   .     S
C824   C774    1.388   1_655 S
C825   O856    1.380   .     S
C826   H838    1.110   .     S
C826   H839    1.110   .     S
C826   C834    1.521   .     S
C826   H852    1.107   .     S
C827   H840    1.107   .     S
C827   H841    1.110   .     S
C827   H842    1.110   .     S
C828   H846    1.081   .     S
C829   H847    1.081   .     S
C829   C771    1.388   1_655 S
C831   C938    1.326   .     S
C831   H957    1.088   .     S
C832   O860    1.294   .     A
C832   O862    1.291   .     A
C833   O861    1.294   .     A
C833   O863    1.291   .     A
Cu835  N854    2.021   .     S
Cu835  O863    1.951   .     S
Cu835  O859    1.947   .     S
Cu835  O855    1.953   .     S
Cu835  O860    1.965   .     S
Cu835  Cu836   2.690   .     S
Cu836  O862    1.951   .     S
Cu836  O858    1.947   .     S
Cu836  O861    1.965   .     S
Cu836  O857    1.953   .     S
Cu836  N853    2.021   .     S
H843   O864    0.990   .     S
H844   O856    0.990   .     S
H848   C938    1.088   .     S
H850   N205    1.029   1_556 S
N854   N205    1.294   1_556 S
N854   H203    1.029   1_556 S
C865   O912    1.285   .     A
C865   O909    1.293   .     A
C865   C884    1.425   .     S
C866   C868    1.410   .     A
C866   C881    1.521   .     S
C866   C877    1.414   .     A
C867   C888    1.410   .     A
C867   C887    1.446   .     S
C867   C869    1.390   .     A
C868   C886    1.446   .     S
C868   C870    1.390   .     A
C869   C871    1.395   .     A
C869   H891    1.083   .     S
C870   H899    1.083   .     S
C870   C872    1.395   .     A
C871   C873    1.417   .     A
C871   C878    1.414   .     A
C872   C874    1.417   .     A
C872   C879    1.414   .     A
C873   C875    1.421   .     A
C873   C928    1.412   .     S
C874   C877    1.421   .     A
C874   C927    1.412   1_455 S
C875   C883    1.406   .     A
C875   C888    1.414   .     A
C876   O913    1.285   .     A
C876   O911    1.293   .     A
C876   C885    1.425   .     S
C877   C882    1.406   .     A
C878   O918    1.380   .     S
C878   C936    1.388   .     S
C879   O910    1.380   .     S
C879   C937    1.388   1_455 S
C880   H892    1.110   .     S
C880   H893    1.110   .     S
C880   C888    1.521   .     S
C880   H906    1.107   .     S
C881   H894    1.107   .     S
C881   H895    1.110   .     S
C881   H896    1.110   .     S
C882   H900    1.081   .     S
C882   C932    1.388   1_455 S
C883   H901    1.081   .     S
C883   C933    1.388   .     S
C885   C668    1.326   1_565 S
C885   H687    1.088   1_565 S
C886   O914    1.294   .     A
C886   O916    1.291   .     A
C887   O915    1.294   .     A
C887   O917    1.291   .     A
Cu889  N908    2.021   .     S
Cu889  O917    1.951   .     S
Cu889  O913    1.947   .     S
Cu889  O909    1.953   .     S
Cu889  O914    1.965   .     S
Cu889  Cu890   2.690   .     S
Cu890  O916    1.951   .     S
Cu890  O912    1.947   .     S
Cu890  O915    1.965   .     S
Cu890  O911    1.953   .     S
Cu890  N907    2.021   .     S
H897   O918    0.990   .     S
H898   O910    0.990   .     S
H902   C668    1.088   1_565 S
H904   N259    1.029   1_556 S
N908   N259    1.294   1_556 S
N908   H257    1.029   1_556 S
C919   O966    1.285   .     A
C919   O963    1.293   .     A
C919   C938    1.425   .     S
C920   C922    1.410   .     A
C920   C935    1.521   .     S
C920   C931    1.414   .     A
C921   C942    1.410   .     A
C921   C941    1.446   .     S
C921   C923    1.390   .     A
C922   C940    1.446   .     S
C922   C924    1.390   .     A
C923   C925    1.395   .     A
C923   H945    1.083   .     S
C924   H953    1.083   .     S
C924   C926    1.395   .     A
C925   C927    1.417   .     A
C925   C932    1.414   .     A
C926   C928    1.417   .     A
C926   C933    1.414   .     A
C927   C929    1.421   .     A
C927   C874    1.412   1_655 S
C928   C931    1.421   .     A
C929   C937    1.406   .     A
C929   C942    1.414   .     A
C930   O967    1.285   .     A
C930   O965    1.293   .     A
C930   C939    1.425   .     S
C931   C936    1.406   .     A
C932   O972    1.380   .     S
C932   C882    1.388   1_655 S
C933   O964    1.380   .     S
C934   H946    1.110   .     S
C934   H947    1.110   .     S
C934   C942    1.521   .     S
C934   H960    1.107   .     S
C935   H948    1.107   .     S
C935   H949    1.110   .     S
C935   H950    1.110   .     S
C936   H954    1.081   .     S
C937   H955    1.081   .     S
C937   C879    1.388   1_655 S
C939   C722    1.326   1_565 S
C939   H741    1.088   1_565 S
C940   O968    1.294   .     A
C940   O970    1.291   .     A
C941   O969    1.294   .     A
C941   O971    1.291   .     A
Cu943  N962    2.021   .     S
Cu943  O971    1.951   .     S
Cu943  O967    1.947   .     S
Cu943  O963    1.953   .     S
Cu943  O968    1.965   .     S
Cu943  Cu944   2.690   .     S
Cu944  O970    1.951   .     S
Cu944  O966    1.947   .     S
Cu944  O969    1.965   .     S
Cu944  O965    1.953   .     S
Cu944  N961    2.021   .     S
H951   O972    0.990   .     S
H952   O964    0.990   .     S
H956   C722    1.088   1_565 S
H958   N313    1.029   1_556 S
N962   N313    1.294   1_556 S
N962   H311    1.029   1_556 S
