data_str_m2_o1_o16_pcu_sym.4
_audit_creation_date              2020-01-03
_audit_creation_method            'Materials Studio'
_symmetry_space_group_name_H-M    'P1'
_symmetry_Int_Tables_number       1
_symmetry_cell_setting            triclinic
loop_
_symmetry_equiv_pos_as_xyz
  x,y,z
_cell_length_a                    29.2093
_cell_length_b                    32.8250
_cell_length_c                    26.8183
_cell_angle_alpha                 93.3385
_cell_angle_beta                  76.0228
_cell_angle_gamma                 88.9057
loop_
_atom_site_label
_atom_site_type_symbol
_atom_site_fract_x
_atom_site_fract_y
_atom_site_fract_z
_atom_site_U_iso_or_equiv
_atom_site_adp_type
_atom_site_occupancy
C1     C     0.16653   0.24588   0.24931   0.00000  Uiso   1.00
C2     C     0.13130   0.15070   0.40342   0.00000  Uiso   1.00
C3     C     0.20981   0.31096   0.24012   0.00000  Uiso   1.00
C4     C     0.14247   0.16101   0.34841   0.00000  Uiso   1.00
C5     C     0.20918   0.02022   0.25126   0.00000  Uiso   1.00
C6     C     0.16635   0.04332   0.25985   0.00000  Uiso   1.00
C7     C     0.12344   0.02347   0.27154   0.00000  Uiso   1.00
C8     C     0.12358   0.31415   0.26725   0.00000  Uiso   1.00
C9     C     0.16636   0.29101   0.25042   0.00000  Uiso   1.00
C10    C     0.30191   0.19655   0.27750   0.00000  Uiso   1.00
C11    C     0.01776   0.19598   0.27844   0.00000  Uiso   1.00
C12    C     0.15319   0.15383   0.48513   0.00000  Uiso   1.00
C13    C     0.03139   0.13880   0.21929   0.00000  Uiso   1.00
C14    C     0.31450   0.13798   0.22038   0.00000  Uiso   1.00
C15    C     0.16635   0.08783   0.25385   0.00000  Uiso   1.00
C16    C     0.19167   0.16803   0.15050   0.00000  Uiso   1.00
C17    C     0.26113   0.18790   0.01407   0.00000  Uiso   1.00
C18    C     0.20568   0.16989   0.09378   0.00000  Uiso   1.00
C19    C     0.08511   0.14292   0.42993   0.00000  Uiso   1.00
C20    C     0.07110   0.15070   0.48331   0.00000  Uiso   1.00
C21    C     0.10560   0.16220   0.00971   0.00000  Uiso   1.00
C22    C     0.30378   0.21911   0.10114   0.00000  Uiso   1.00
C23    C     0.16629   0.14781   0.43142   0.00000  Uiso   1.00
C24    C     0.04778   0.04167   0.26752   0.00000  Uiso   1.00
C25    C     0.25565   0.23150   0.35028   0.00000  Uiso   1.00
C26    C     0.03202   0.22706   0.35255   0.00000  Uiso   1.00
C27    C     0.06531   0.12854   0.13497   0.00000  Uiso   1.00
C28    C     0.31325   0.07415   0.17495   0.00000  Uiso   1.00
C29    C     0.31048   0.12370   0.36166   0.00000  Uiso   1.00
C30    C     0.06332   0.07970   0.41013   0.00000  Uiso   1.00
C31    C     0.29195   0.29841   0.22781   0.00000  Uiso   1.00
C32    C     0.18880   0.15559   0.01178   0.00000  Uiso   1.00
C33    C     0.23438   0.16453   0.48532   0.00000  Uiso   1.00
C34    C     0.24955   0.14853   0.43309   0.00000  Uiso   1.00
C35    C     0.21333   0.13518   0.40846   0.00000  Uiso   1.00
C36    C     0.18134   0.14760   0.06367   0.00000  Uiso   1.00
C37    C     0.24374   0.19329   0.06889   0.00000  Uiso   1.00
Cu38   Cu    0.11978   0.16666   0.25000   0.00000  Uiso   1.00
Cu39   Cu    0.21355   0.16667   0.25000   0.00000  Uiso   1.00
H40    H     0.31153   0.18689   0.10786   0.00000  Uiso   1.00
H41    H     0.27057   0.20733   0.36935   0.00000  Uiso   1.00
H42    H     0.21683   0.22917   0.35869   0.00000  Uiso   1.00
H43    H     0.06640   0.23529   0.36033   0.00000  Uiso   1.00
H44    H     0.02332   0.19653   0.36710   0.00000  Uiso   1.00
H45    H     0.00588   0.25017   0.37506   0.00000  Uiso   1.00
H46    H     0.07693   0.10330   0.10517   0.00000  Uiso   1.00
H47    H     0.08958   0.15374   0.12983   0.00000  Uiso   1.00
H48    H     0.03174   0.14068   0.12847   0.00000  Uiso   1.00
H49    H     0.32552   0.06215   0.20715   0.00000  Uiso   1.00
H50    H     0.00770   0.07001   0.13874   0.00000  Uiso   1.00
H51    H     0.30896   0.23801   0.13479   0.00000  Uiso   1.00
H52    H     0.28412   0.05527   0.16790   0.00000  Uiso   1.00
H53    H     0.29176   0.13703   0.33525   0.00000  Uiso   1.00
H54    H     0.30528   0.09038   0.36413   0.00000  Uiso   1.00
H55    H     0.01458   0.12790   0.34291   0.00000  Uiso   1.00
H56    H     0.29918   0.21158   0.45376   0.00000  Uiso   1.00
H57    H     0.15262   0.09609   0.05298   0.00000  Uiso   1.00
H58    H     0.05540   0.07217   0.45122   0.00000  Uiso   1.00
H59    H     0.09993   0.06910   0.39010   0.00000  Uiso   1.00
H60    H     0.03870   0.06235   0.39211   0.00000  Uiso   1.00
H61    H     0.06183   0.19561   0.06252   0.00000  Uiso   1.00
H62    H     0.32861   0.22981   0.06671   0.00000  Uiso   1.00
H63    H     0.02335   0.14059   0.04457   0.00000  Uiso   1.00
H64    H     0.19284   0.09275   0.36514   0.00000  Uiso   1.00
H65    H     0.28587   0.30564   0.27002   0.00000  Uiso   1.00
H66    H     0.30957   0.32337   0.20522   0.00000  Uiso   1.00
H67    H     0.31694   0.27167   0.21780   0.00000  Uiso   1.00
H68    H     0.24156   0.05574   0.28936   0.00000  Uiso   1.00
H69    H     0.06259   0.03615   0.22520   0.00000  Uiso   1.00
H70    H     0.02618   0.07037   0.27427   0.00000  Uiso   1.00
H71    H     0.02343   0.01734   0.28272   0.00000  Uiso   1.00
H72    H     0.07397   0.28728   0.24713   0.00000  Uiso   1.00
H73    H     0.26232   0.26150   0.36792   0.00000  Uiso   1.00
N74    N     0.04931   0.16666   0.24998   0.00000  Uiso   1.00
N75    N     0.28402   0.16669   0.24999   0.00000  Uiso   1.00
O76    O     0.12708   0.22678   0.25000   0.00000  Uiso   1.00
O77    O     0.24968   0.03831   0.25692   0.00000  Uiso   1.00
O78    O     0.08263   0.04604   0.29548   0.00000  Uiso   1.00
O79    O     0.08138   0.29554   0.28044   0.00000  Uiso   1.00
O80    O     0.27421   0.23124   0.29663   0.00000  Uiso   1.00
O81    O     0.03510   0.22984   0.29954   0.00000  Uiso   1.00
O82    O     0.06257   0.11360   0.18372   0.00000  Uiso   1.00
O83    O     0.29634   0.11503   0.18451   0.00000  Uiso   1.00
O84    O     0.29818   0.14398   0.41132   0.00000  Uiso   1.00
O85    O     0.29919   0.20989   0.49044   0.00000  Uiso   1.00
O86    O     0.15919   0.11302   0.08219   0.00000  Uiso   1.00
O87    O     0.20627   0.22679   0.25000   0.00000  Uiso   1.00
O88    O     0.05626   0.12183   0.40505   0.00000  Uiso   1.00
O89    O     0.09494   0.18574   0.05534   0.00000  Uiso   1.00
O90    O     0.02480   0.14494   0.00807   0.00000  Uiso   1.00
O91    O     0.22249   0.10602   0.36766   0.00000  Uiso   1.00
O92    O     0.25020   0.28840   0.21293   0.00000  Uiso   1.00
O93    O     0.10775   0.16665   0.32549   0.00000  Uiso   1.00
O94    O     0.18694   0.16666   0.32549   0.00000  Uiso   1.00
O95    O     0.12706   0.10654   0.24999   0.00000  Uiso   1.00
O96    O     0.20625   0.10655   0.24999   0.00000  Uiso   1.00
O97    O     0.14640   0.16667   0.17451   0.00000  Uiso   1.00
O98    O     0.22559   0.16668   0.17451   0.00000  Uiso   1.00
O99    O     0.25717   0.22554   0.09727   0.00000  Uiso   1.00
C100   C     0.49987   0.24588   0.24931   0.00000  Uiso   1.00
C101   C     0.46463   0.15070   0.40342   0.00000  Uiso   1.00
C102   C     0.54314   0.31096   0.24012   0.00000  Uiso   1.00
C103   C     0.47580   0.16101   0.34841   0.00000  Uiso   1.00
C104   C     0.54251   0.02022   0.25126   0.00000  Uiso   1.00
C105   C     0.49969   0.04332   0.25985   0.00000  Uiso   1.00
C106   C     0.45677   0.02347   0.27154   0.00000  Uiso   1.00
C107   C     0.45691   0.31415   0.26725   0.00000  Uiso   1.00
C108   C     0.49969   0.29101   0.25042   0.00000  Uiso   1.00
C109   C     0.63524   0.19655   0.27750   0.00000  Uiso   1.00
C110   C     0.35109   0.19598   0.27844   0.00000  Uiso   1.00
C111   C     0.48652   0.15383   0.48513   0.00000  Uiso   1.00
C112   C     0.36472   0.13880   0.21929   0.00000  Uiso   1.00
C113   C     0.64783   0.13798   0.22038   0.00000  Uiso   1.00
C114   C     0.49968   0.08783   0.25385   0.00000  Uiso   1.00
C115   C     0.52501   0.16803   0.15050   0.00000  Uiso   1.00
C116   C     0.59446   0.18790   0.01407   0.00000  Uiso   1.00
C117   C     0.53902   0.16989   0.09378   0.00000  Uiso   1.00
C118   C     0.41844   0.14292   0.42993   0.00000  Uiso   1.00
C119   C     0.40443   0.15070   0.48331   0.00000  Uiso   1.00
C120   C     0.43893   0.16220   0.00971   0.00000  Uiso   1.00
C121   C     0.63711   0.21911   0.10114   0.00000  Uiso   1.00
C122   C     0.49962   0.14781   0.43142   0.00000  Uiso   1.00
C123   C     0.38111   0.04167   0.26752   0.00000  Uiso   1.00
C124   C     0.58899   0.23150   0.35028   0.00000  Uiso   1.00
C125   C     0.36535   0.22706   0.35255   0.00000  Uiso   1.00
C126   C     0.39865   0.12854   0.13497   0.00000  Uiso   1.00
C127   C     0.64658   0.07415   0.17495   0.00000  Uiso   1.00
C128   C     0.64381   0.12370   0.36166   0.00000  Uiso   1.00
C129   C     0.39665   0.07970   0.41013   0.00000  Uiso   1.00
C130   C     0.62528   0.29841   0.22781   0.00000  Uiso   1.00
C131   C     0.52214   0.15559   0.01178   0.00000  Uiso   1.00
C132   C     0.56771   0.16453   0.48532   0.00000  Uiso   1.00
C133   C     0.58289   0.14853   0.43309   0.00000  Uiso   1.00
C134   C     0.54666   0.13518   0.40846   0.00000  Uiso   1.00
C135   C     0.51468   0.14760   0.06367   0.00000  Uiso   1.00
C136   C     0.57707   0.19329   0.06889   0.00000  Uiso   1.00
Cu137  Cu    0.45311   0.16666   0.25000   0.00000  Uiso   1.00
Cu138  Cu    0.54689   0.16667   0.25000   0.00000  Uiso   1.00
H139   H     0.64487   0.18689   0.10786   0.00000  Uiso   1.00
H140   H     0.60390   0.20733   0.36935   0.00000  Uiso   1.00
H141   H     0.55016   0.22917   0.35869   0.00000  Uiso   1.00
H142   H     0.39974   0.23529   0.36033   0.00000  Uiso   1.00
H143   H     0.35665   0.19653   0.36710   0.00000  Uiso   1.00
H144   H     0.33921   0.25017   0.37506   0.00000  Uiso   1.00
H145   H     0.41026   0.10330   0.10517   0.00000  Uiso   1.00
H146   H     0.42291   0.15374   0.12983   0.00000  Uiso   1.00
H147   H     0.36508   0.14068   0.12847   0.00000  Uiso   1.00
H148   H     0.65886   0.06215   0.20715   0.00000  Uiso   1.00
H149   H     0.34103   0.07001   0.13874   0.00000  Uiso   1.00
H150   H     0.64229   0.23801   0.13479   0.00000  Uiso   1.00
H151   H     0.61746   0.05527   0.16790   0.00000  Uiso   1.00
H152   H     0.62509   0.13703   0.33525   0.00000  Uiso   1.00
H153   H     0.63861   0.09038   0.36413   0.00000  Uiso   1.00
H154   H     0.34792   0.12790   0.34291   0.00000  Uiso   1.00
H155   H     0.63252   0.21158   0.45376   0.00000  Uiso   1.00
H156   H     0.48596   0.09609   0.05298   0.00000  Uiso   1.00
H157   H     0.38874   0.07217   0.45122   0.00000  Uiso   1.00
H158   H     0.43327   0.06910   0.39010   0.00000  Uiso   1.00
H159   H     0.37204   0.06235   0.39211   0.00000  Uiso   1.00
H160   H     0.39516   0.19561   0.06252   0.00000  Uiso   1.00
H161   H     0.66194   0.22981   0.06671   0.00000  Uiso   1.00
H162   H     0.35668   0.14059   0.04457   0.00000  Uiso   1.00
H163   H     0.52617   0.09275   0.36514   0.00000  Uiso   1.00
H164   H     0.61920   0.30564   0.27002   0.00000  Uiso   1.00
H165   H     0.64291   0.32337   0.20522   0.00000  Uiso   1.00
H166   H     0.65028   0.27167   0.21780   0.00000  Uiso   1.00
H167   H     0.57489   0.05574   0.28936   0.00000  Uiso   1.00
H168   H     0.39592   0.03615   0.22520   0.00000  Uiso   1.00
H169   H     0.35952   0.07037   0.27427   0.00000  Uiso   1.00
H170   H     0.35676   0.01734   0.28272   0.00000  Uiso   1.00
H171   H     0.40730   0.28728   0.24713   0.00000  Uiso   1.00
H172   H     0.59565   0.26150   0.36792   0.00000  Uiso   1.00
N173   N     0.38265   0.16666   0.24998   0.00000  Uiso   1.00
N174   N     0.61735   0.16669   0.24999   0.00000  Uiso   1.00
O175   O     0.46042   0.22678   0.25000   0.00000  Uiso   1.00
O176   O     0.58301   0.03831   0.25692   0.00000  Uiso   1.00
O177   O     0.41596   0.04604   0.29548   0.00000  Uiso   1.00
O178   O     0.41471   0.29554   0.28044   0.00000  Uiso   1.00
O179   O     0.60755   0.23124   0.29663   0.00000  Uiso   1.00
O180   O     0.36843   0.22984   0.29954   0.00000  Uiso   1.00
O181   O     0.39590   0.11360   0.18372   0.00000  Uiso   1.00
O182   O     0.62967   0.11503   0.18451   0.00000  Uiso   1.00
O183   O     0.63152   0.14398   0.41132   0.00000  Uiso   1.00
O184   O     0.63252   0.20989   0.49044   0.00000  Uiso   1.00
O185   O     0.49252   0.11302   0.08219   0.00000  Uiso   1.00
O186   O     0.53961   0.22679   0.25000   0.00000  Uiso   1.00
O187   O     0.38960   0.12183   0.40505   0.00000  Uiso   1.00
O188   O     0.42827   0.18574   0.05534   0.00000  Uiso   1.00
O189   O     0.35813   0.14494   0.00807   0.00000  Uiso   1.00
O190   O     0.55583   0.10602   0.36766   0.00000  Uiso   1.00
O191   O     0.58353   0.28840   0.21293   0.00000  Uiso   1.00
O192   O     0.44108   0.16665   0.32549   0.00000  Uiso   1.00
O193   O     0.52027   0.16666   0.32549   0.00000  Uiso   1.00
O194   O     0.46039   0.10654   0.24999   0.00000  Uiso   1.00
O195   O     0.53958   0.10655   0.24999   0.00000  Uiso   1.00
O196   O     0.47973   0.16667   0.17451   0.00000  Uiso   1.00
O197   O     0.55892   0.16668   0.17451   0.00000  Uiso   1.00
O198   O     0.59050   0.22554   0.09727   0.00000  Uiso   1.00
C199   C     0.83320   0.24588   0.24931   0.00000  Uiso   1.00
C200   C     0.79796   0.15070   0.40342   0.00000  Uiso   1.00
C201   C     0.87648   0.31096   0.24012   0.00000  Uiso   1.00
C202   C     0.80914   0.16101   0.34841   0.00000  Uiso   1.00
C203   C     0.87585   0.02022   0.25126   0.00000  Uiso   1.00
C204   C     0.83302   0.04332   0.25985   0.00000  Uiso   1.00
C205   C     0.79010   0.02347   0.27154   0.00000  Uiso   1.00
C206   C     0.79024   0.31415   0.26725   0.00000  Uiso   1.00
C207   C     0.83302   0.29101   0.25042   0.00000  Uiso   1.00
C208   C     0.96857   0.19655   0.27750   0.00000  Uiso   1.00
C209   C     0.68443   0.19598   0.27844   0.00000  Uiso   1.00
C210   C     0.81986   0.15383   0.48513   0.00000  Uiso   1.00
C211   C     0.69805   0.13880   0.21929   0.00000  Uiso   1.00
C212   C     0.98116   0.13798   0.22038   0.00000  Uiso   1.00
C213   C     0.83301   0.08783   0.25385   0.00000  Uiso   1.00
C214   C     0.85834   0.16803   0.15050   0.00000  Uiso   1.00
C215   C     0.92779   0.18790   0.01407   0.00000  Uiso   1.00
C216   C     0.87235   0.16989   0.09378   0.00000  Uiso   1.00
C217   C     0.75178   0.14292   0.42993   0.00000  Uiso   1.00
C218   C     0.73776   0.15070   0.48331   0.00000  Uiso   1.00
C219   C     0.77227   0.16220   0.00971   0.00000  Uiso   1.00
C220   C     0.97045   0.21911   0.10114   0.00000  Uiso   1.00
C221   C     0.83295   0.14781   0.43142   0.00000  Uiso   1.00
C222   C     0.71444   0.04167   0.26752   0.00000  Uiso   1.00
C223   C     0.92232   0.23150   0.35028   0.00000  Uiso   1.00
C224   C     0.69868   0.22706   0.35255   0.00000  Uiso   1.00
C225   C     0.73198   0.12854   0.13497   0.00000  Uiso   1.00
C226   C     0.97992   0.07415   0.17495   0.00000  Uiso   1.00
C227   C     0.97714   0.12370   0.36166   0.00000  Uiso   1.00
C228   C     0.72999   0.07970   0.41013   0.00000  Uiso   1.00
C229   C     0.95861   0.29841   0.22781   0.00000  Uiso   1.00
C230   C     0.85547   0.15559   0.01178   0.00000  Uiso   1.00
C231   C     0.90104   0.16453   0.48532   0.00000  Uiso   1.00
C232   C     0.91622   0.14853   0.43309   0.00000  Uiso   1.00
C233   C     0.88000   0.13518   0.40846   0.00000  Uiso   1.00
C234   C     0.84801   0.14760   0.06367   0.00000  Uiso   1.00
C235   C     0.91041   0.19329   0.06889   0.00000  Uiso   1.00
Cu236  Cu    0.78645   0.16666   0.25000   0.00000  Uiso   1.00
Cu237  Cu    0.88022   0.16667   0.25000   0.00000  Uiso   1.00
H238   H     0.97820   0.18689   0.10786   0.00000  Uiso   1.00
H239   H     0.93723   0.20733   0.36935   0.00000  Uiso   1.00
H240   H     0.88349   0.22917   0.35869   0.00000  Uiso   1.00
H241   H     0.73307   0.23529   0.36033   0.00000  Uiso   1.00
H242   H     0.68999   0.19653   0.36710   0.00000  Uiso   1.00
H243   H     0.67255   0.25017   0.37506   0.00000  Uiso   1.00
H244   H     0.74360   0.10330   0.10517   0.00000  Uiso   1.00
H245   H     0.75624   0.15374   0.12983   0.00000  Uiso   1.00
H246   H     0.69841   0.14068   0.12847   0.00000  Uiso   1.00
H247   H     0.99219   0.06215   0.20715   0.00000  Uiso   1.00
H248   H     0.67436   0.07001   0.13874   0.00000  Uiso   1.00
H249   H     0.97562   0.23801   0.13479   0.00000  Uiso   1.00
H250   H     0.95079   0.05527   0.16790   0.00000  Uiso   1.00
H251   H     0.95843   0.13703   0.33525   0.00000  Uiso   1.00
H252   H     0.97194   0.09038   0.36413   0.00000  Uiso   1.00
H253   H     0.68125   0.12790   0.34291   0.00000  Uiso   1.00
H254   H     0.96585   0.21158   0.45376   0.00000  Uiso   1.00
H255   H     0.81929   0.09609   0.05298   0.00000  Uiso   1.00
H256   H     0.72207   0.07217   0.45122   0.00000  Uiso   1.00
H257   H     0.76660   0.06910   0.39010   0.00000  Uiso   1.00
H258   H     0.70537   0.06235   0.39211   0.00000  Uiso   1.00
H259   H     0.72850   0.19561   0.06252   0.00000  Uiso   1.00
H260   H     0.99528   0.22981   0.06671   0.00000  Uiso   1.00
H261   H     0.69002   0.14059   0.04457   0.00000  Uiso   1.00
H262   H     0.85950   0.09275   0.36514   0.00000  Uiso   1.00
H263   H     0.95254   0.30564   0.27002   0.00000  Uiso   1.00
H264   H     0.97624   0.32337   0.20522   0.00000  Uiso   1.00
H265   H     0.98361   0.27167   0.21780   0.00000  Uiso   1.00
H266   H     0.90822   0.05574   0.28936   0.00000  Uiso   1.00
H267   H     0.72926   0.03615   0.22520   0.00000  Uiso   1.00
H268   H     0.69285   0.07037   0.27427   0.00000  Uiso   1.00
H269   H     0.69010   0.01734   0.28272   0.00000  Uiso   1.00
H270   H     0.74063   0.28728   0.24713   0.00000  Uiso   1.00
H271   H     0.92898   0.26150   0.36792   0.00000  Uiso   1.00
N272   N     0.71598   0.16666   0.24998   0.00000  Uiso   1.00
N273   N     0.95069   0.16669   0.24999   0.00000  Uiso   1.00
O274   O     0.79375   0.22678   0.25000   0.00000  Uiso   1.00
O275   O     0.91634   0.03831   0.25692   0.00000  Uiso   1.00
O276   O     0.74930   0.04604   0.29548   0.00000  Uiso   1.00
O277   O     0.74805   0.29554   0.28044   0.00000  Uiso   1.00
O278   O     0.94088   0.23124   0.29663   0.00000  Uiso   1.00
O279   O     0.70176   0.22984   0.29954   0.00000  Uiso   1.00
O280   O     0.72923   0.11360   0.18372   0.00000  Uiso   1.00
O281   O     0.96301   0.11503   0.18451   0.00000  Uiso   1.00
O282   O     0.96485   0.14398   0.41132   0.00000  Uiso   1.00
O283   O     0.96586   0.20989   0.49044   0.00000  Uiso   1.00
O284   O     0.82585   0.11302   0.08219   0.00000  Uiso   1.00
O285   O     0.87294   0.22679   0.25000   0.00000  Uiso   1.00
O286   O     0.72293   0.12183   0.40505   0.00000  Uiso   1.00
O287   O     0.76161   0.18574   0.05534   0.00000  Uiso   1.00
O288   O     0.69147   0.14494   0.00807   0.00000  Uiso   1.00
O289   O     0.88916   0.10602   0.36766   0.00000  Uiso   1.00
O290   O     0.91686   0.28840   0.21293   0.00000  Uiso   1.00
O291   O     0.77441   0.16665   0.32549   0.00000  Uiso   1.00
O292   O     0.85360   0.16666   0.32549   0.00000  Uiso   1.00
O293   O     0.79373   0.10654   0.24999   0.00000  Uiso   1.00
O294   O     0.87292   0.10655   0.24999   0.00000  Uiso   1.00
O295   O     0.81306   0.16667   0.17451   0.00000  Uiso   1.00
O296   O     0.89225   0.16668   0.17451   0.00000  Uiso   1.00
O297   O     0.92384   0.22554   0.09727   0.00000  Uiso   1.00
C298   C     0.16653   0.57921   0.24931   0.00000  Uiso   1.00
C299   C     0.13130   0.48403   0.40342   0.00000  Uiso   1.00
C300   C     0.20981   0.64430   0.24012   0.00000  Uiso   1.00
C301   C     0.14247   0.49434   0.34841   0.00000  Uiso   1.00
C302   C     0.20918   0.35355   0.25126   0.00000  Uiso   1.00
C303   C     0.16635   0.37665   0.25985   0.00000  Uiso   1.00
C304   C     0.12344   0.35680   0.27154   0.00000  Uiso   1.00
C305   C     0.12358   0.64748   0.26725   0.00000  Uiso   1.00
C306   C     0.16636   0.62435   0.25042   0.00000  Uiso   1.00
C307   C     0.30191   0.52988   0.27750   0.00000  Uiso   1.00
C308   C     0.01776   0.52932   0.27844   0.00000  Uiso   1.00
C309   C     0.15319   0.48716   0.48513   0.00000  Uiso   1.00
C310   C     0.03139   0.47213   0.21929   0.00000  Uiso   1.00
C311   C     0.31450   0.47131   0.22038   0.00000  Uiso   1.00
C312   C     0.16635   0.42117   0.25385   0.00000  Uiso   1.00
C313   C     0.19167   0.50137   0.15050   0.00000  Uiso   1.00
C314   C     0.26113   0.52123   0.01407   0.00000  Uiso   1.00
C315   C     0.20568   0.50323   0.09378   0.00000  Uiso   1.00
C316   C     0.08511   0.47625   0.42993   0.00000  Uiso   1.00
C317   C     0.07110   0.48403   0.48331   0.00000  Uiso   1.00
C318   C     0.10560   0.49553   0.00971   0.00000  Uiso   1.00
C319   C     0.30378   0.55245   0.10114   0.00000  Uiso   1.00
C320   C     0.16629   0.48114   0.43142   0.00000  Uiso   1.00
C321   C     0.04778   0.37500   0.26752   0.00000  Uiso   1.00
C322   C     0.25565   0.56483   0.35028   0.00000  Uiso   1.00
C323   C     0.03202   0.56039   0.35255   0.00000  Uiso   1.00
C324   C     0.06531   0.46188   0.13497   0.00000  Uiso   1.00
C325   C     0.31325   0.40748   0.17495   0.00000  Uiso   1.00
C326   C     0.31048   0.45704   0.36166   0.00000  Uiso   1.00
C327   C     0.06332   0.41303   0.41013   0.00000  Uiso   1.00
C328   C     0.29195   0.63174   0.22781   0.00000  Uiso   1.00
C329   C     0.18880   0.48893   0.01178   0.00000  Uiso   1.00
C330   C     0.23438   0.49786   0.48532   0.00000  Uiso   1.00
C331   C     0.24955   0.48186   0.43309   0.00000  Uiso   1.00
C332   C     0.21333   0.46851   0.40846   0.00000  Uiso   1.00
C333   C     0.18134   0.48094   0.06367   0.00000  Uiso   1.00
C334   C     0.24374   0.52663   0.06889   0.00000  Uiso   1.00
Cu335  Cu    0.11978   0.49999   0.25000   0.00000  Uiso   1.00
Cu336  Cu    0.21355   0.50001   0.25000   0.00000  Uiso   1.00
H337   H     0.31153   0.52023   0.10786   0.00000  Uiso   1.00
H338   H     0.27057   0.54067   0.36935   0.00000  Uiso   1.00
H339   H     0.21683   0.56250   0.35869   0.00000  Uiso   1.00
H340   H     0.06640   0.56862   0.36033   0.00000  Uiso   1.00
H341   H     0.02332   0.52987   0.36710   0.00000  Uiso   1.00
H342   H     0.00588   0.58350   0.37506   0.00000  Uiso   1.00
H343   H     0.07693   0.43663   0.10517   0.00000  Uiso   1.00
H344   H     0.08958   0.48707   0.12983   0.00000  Uiso   1.00
H345   H     0.03174   0.47401   0.12847   0.00000  Uiso   1.00
H346   H     0.32552   0.39548   0.20715   0.00000  Uiso   1.00
H347   H     0.00770   0.40335   0.13874   0.00000  Uiso   1.00
H348   H     0.30896   0.57134   0.13479   0.00000  Uiso   1.00
H349   H     0.28412   0.38861   0.16790   0.00000  Uiso   1.00
H350   H     0.29176   0.47037   0.33525   0.00000  Uiso   1.00
H351   H     0.30528   0.42372   0.36413   0.00000  Uiso   1.00
H352   H     0.01458   0.46123   0.34291   0.00000  Uiso   1.00
H353   H     0.29918   0.54492   0.45376   0.00000  Uiso   1.00
H354   H     0.15262   0.42942   0.05298   0.00000  Uiso   1.00
H355   H     0.05540   0.40550   0.45122   0.00000  Uiso   1.00
H356   H     0.09993   0.40244   0.39010   0.00000  Uiso   1.00
H357   H     0.03870   0.39568   0.39211   0.00000  Uiso   1.00
H358   H     0.06183   0.52895   0.06252   0.00000  Uiso   1.00
H359   H     0.32861   0.56314   0.06671   0.00000  Uiso   1.00
H360   H     0.02335   0.47392   0.04457   0.00000  Uiso   1.00
H361   H     0.19284   0.42608   0.36514   0.00000  Uiso   1.00
H362   H     0.28587   0.63898   0.27002   0.00000  Uiso   1.00
H363   H     0.30957   0.65670   0.20522   0.00000  Uiso   1.00
H364   H     0.31694   0.60500   0.21780   0.00000  Uiso   1.00
H365   H     0.24156   0.38907   0.28936   0.00000  Uiso   1.00
H366   H     0.06259   0.36949   0.22520   0.00000  Uiso   1.00
H367   H     0.02618   0.40370   0.27427   0.00000  Uiso   1.00
H368   H     0.02343   0.35067   0.28272   0.00000  Uiso   1.00
H369   H     0.07397   0.62061   0.24713   0.00000  Uiso   1.00
H370   H     0.26232   0.59483   0.36792   0.00000  Uiso   1.00
N371   N     0.04931   0.49999   0.24998   0.00000  Uiso   1.00
N372   N     0.28402   0.50002   0.24999   0.00000  Uiso   1.00
O373   O     0.12708   0.56011   0.25000   0.00000  Uiso   1.00
O374   O     0.24968   0.37164   0.25692   0.00000  Uiso   1.00
O375   O     0.08263   0.37937   0.29548   0.00000  Uiso   1.00
O376   O     0.08138   0.62887   0.28044   0.00000  Uiso   1.00
O377   O     0.27421   0.56458   0.29663   0.00000  Uiso   1.00
O378   O     0.03510   0.56318   0.29954   0.00000  Uiso   1.00
O379   O     0.06257   0.44693   0.18372   0.00000  Uiso   1.00
O380   O     0.29634   0.44837   0.18451   0.00000  Uiso   1.00
O381   O     0.29818   0.47731   0.41132   0.00000  Uiso   1.00
O382   O     0.29919   0.54322   0.49044   0.00000  Uiso   1.00
O383   O     0.15919   0.44635   0.08219   0.00000  Uiso   1.00
O384   O     0.20627   0.56012   0.25000   0.00000  Uiso   1.00
O385   O     0.05626   0.45516   0.40505   0.00000  Uiso   1.00
O386   O     0.09494   0.51908   0.05534   0.00000  Uiso   1.00
O387   O     0.02480   0.47827   0.00807   0.00000  Uiso   1.00
O388   O     0.22249   0.43935   0.36766   0.00000  Uiso   1.00
O389   O     0.25020   0.62173   0.21293   0.00000  Uiso   1.00
O390   O     0.10775   0.49998   0.32549   0.00000  Uiso   1.00
O391   O     0.18694   0.49999   0.32549   0.00000  Uiso   1.00
O392   O     0.12706   0.43988   0.24999   0.00000  Uiso   1.00
O393   O     0.20625   0.43989   0.24999   0.00000  Uiso   1.00
O394   O     0.14640   0.50001   0.17451   0.00000  Uiso   1.00
O395   O     0.22559   0.50002   0.17451   0.00000  Uiso   1.00
O396   O     0.25717   0.55887   0.09727   0.00000  Uiso   1.00
C397   C     0.49987   0.57921   0.24931   0.00000  Uiso   1.00
C398   C     0.46463   0.48403   0.40342   0.00000  Uiso   1.00
C399   C     0.54314   0.64430   0.24012   0.00000  Uiso   1.00
C400   C     0.47580   0.49434   0.34841   0.00000  Uiso   1.00
C401   C     0.54251   0.35355   0.25126   0.00000  Uiso   1.00
C402   C     0.49969   0.37665   0.25985   0.00000  Uiso   1.00
C403   C     0.45677   0.35680   0.27154   0.00000  Uiso   1.00
C404   C     0.45691   0.64748   0.26725   0.00000  Uiso   1.00
C405   C     0.49969   0.62435   0.25042   0.00000  Uiso   1.00
C406   C     0.63524   0.52988   0.27750   0.00000  Uiso   1.00
C407   C     0.35109   0.52932   0.27844   0.00000  Uiso   1.00
C408   C     0.48652   0.48716   0.48513   0.00000  Uiso   1.00
C409   C     0.36472   0.47213   0.21929   0.00000  Uiso   1.00
C410   C     0.64783   0.47131   0.22038   0.00000  Uiso   1.00
C411   C     0.49968   0.42117   0.25385   0.00000  Uiso   1.00
C412   C     0.52501   0.50137   0.15050   0.00000  Uiso   1.00
C413   C     0.59446   0.52123   0.01407   0.00000  Uiso   1.00
C414   C     0.53902   0.50323   0.09378   0.00000  Uiso   1.00
C415   C     0.41844   0.47625   0.42993   0.00000  Uiso   1.00
C416   C     0.40443   0.48403   0.48331   0.00000  Uiso   1.00
C417   C     0.43893   0.49553   0.00971   0.00000  Uiso   1.00
C418   C     0.63711   0.55245   0.10114   0.00000  Uiso   1.00
C419   C     0.49962   0.48114   0.43142   0.00000  Uiso   1.00
C420   C     0.38111   0.37500   0.26752   0.00000  Uiso   1.00
C421   C     0.58899   0.56483   0.35028   0.00000  Uiso   1.00
C422   C     0.36535   0.56039   0.35255   0.00000  Uiso   1.00
C423   C     0.39865   0.46188   0.13497   0.00000  Uiso   1.00
C424   C     0.64658   0.40748   0.17495   0.00000  Uiso   1.00
C425   C     0.64381   0.45704   0.36166   0.00000  Uiso   1.00
C426   C     0.39665   0.41303   0.41013   0.00000  Uiso   1.00
C427   C     0.62528   0.63174   0.22781   0.00000  Uiso   1.00
C428   C     0.52214   0.48893   0.01178   0.00000  Uiso   1.00
C429   C     0.56771   0.49786   0.48532   0.00000  Uiso   1.00
C430   C     0.58289   0.48186   0.43309   0.00000  Uiso   1.00
C431   C     0.54666   0.46851   0.40846   0.00000  Uiso   1.00
C432   C     0.51468   0.48094   0.06367   0.00000  Uiso   1.00
C433   C     0.57707   0.52663   0.06889   0.00000  Uiso   1.00
Cu434  Cu    0.45311   0.49999   0.25000   0.00000  Uiso   1.00
Cu435  Cu    0.54689   0.50001   0.25000   0.00000  Uiso   1.00
H436   H     0.64487   0.52023   0.10786   0.00000  Uiso   1.00
H437   H     0.60390   0.54067   0.36935   0.00000  Uiso   1.00
H438   H     0.55016   0.56250   0.35869   0.00000  Uiso   1.00
H439   H     0.39974   0.56862   0.36033   0.00000  Uiso   1.00
H440   H     0.35665   0.52987   0.36710   0.00000  Uiso   1.00
H441   H     0.33921   0.58350   0.37506   0.00000  Uiso   1.00
H442   H     0.41026   0.43663   0.10517   0.00000  Uiso   1.00
H443   H     0.42291   0.48707   0.12983   0.00000  Uiso   1.00
H444   H     0.36508   0.47401   0.12847   0.00000  Uiso   1.00
H445   H     0.65886   0.39548   0.20715   0.00000  Uiso   1.00
H446   H     0.34103   0.40335   0.13874   0.00000  Uiso   1.00
H447   H     0.64229   0.57134   0.13479   0.00000  Uiso   1.00
H448   H     0.61746   0.38861   0.16790   0.00000  Uiso   1.00
H449   H     0.62509   0.47037   0.33525   0.00000  Uiso   1.00
H450   H     0.63861   0.42372   0.36413   0.00000  Uiso   1.00
H451   H     0.34792   0.46123   0.34291   0.00000  Uiso   1.00
H452   H     0.63252   0.54492   0.45376   0.00000  Uiso   1.00
H453   H     0.48596   0.42942   0.05298   0.00000  Uiso   1.00
H454   H     0.38874   0.40550   0.45122   0.00000  Uiso   1.00
H455   H     0.43327   0.40244   0.39010   0.00000  Uiso   1.00
H456   H     0.37204   0.39568   0.39211   0.00000  Uiso   1.00
H457   H     0.39516   0.52895   0.06252   0.00000  Uiso   1.00
H458   H     0.66194   0.56314   0.06671   0.00000  Uiso   1.00
H459   H     0.35668   0.47392   0.04457   0.00000  Uiso   1.00
H460   H     0.52617   0.42608   0.36514   0.00000  Uiso   1.00
H461   H     0.61920   0.63898   0.27002   0.00000  Uiso   1.00
H462   H     0.64291   0.65670   0.20522   0.00000  Uiso   1.00
H463   H     0.65028   0.60500   0.21780   0.00000  Uiso   1.00
H464   H     0.57489   0.38907   0.28936   0.00000  Uiso   1.00
H465   H     0.39592   0.36949   0.22520   0.00000  Uiso   1.00
H466   H     0.35952   0.40370   0.27427   0.00000  Uiso   1.00
H467   H     0.35676   0.35067   0.28272   0.00000  Uiso   1.00
H468   H     0.40730   0.62061   0.24713   0.00000  Uiso   1.00
H469   H     0.59565   0.59483   0.36792   0.00000  Uiso   1.00
N470   N     0.38265   0.49999   0.24998   0.00000  Uiso   1.00
N471   N     0.61735   0.50002   0.24999   0.00000  Uiso   1.00
O472   O     0.46042   0.56011   0.25000   0.00000  Uiso   1.00
O473   O     0.58301   0.37164   0.25692   0.00000  Uiso   1.00
O474   O     0.41596   0.37937   0.29548   0.00000  Uiso   1.00
O475   O     0.41471   0.62887   0.28044   0.00000  Uiso   1.00
O476   O     0.60755   0.56458   0.29663   0.00000  Uiso   1.00
O477   O     0.36843   0.56318   0.29954   0.00000  Uiso   1.00
O478   O     0.39590   0.44693   0.18372   0.00000  Uiso   1.00
O479   O     0.62967   0.44837   0.18451   0.00000  Uiso   1.00
O480   O     0.63152   0.47731   0.41132   0.00000  Uiso   1.00
O481   O     0.63252   0.54322   0.49044   0.00000  Uiso   1.00
O482   O     0.49252   0.44635   0.08219   0.00000  Uiso   1.00
O483   O     0.53961   0.56012   0.25000   0.00000  Uiso   1.00
O484   O     0.38960   0.45516   0.40505   0.00000  Uiso   1.00
O485   O     0.42827   0.51908   0.05534   0.00000  Uiso   1.00
O486   O     0.35813   0.47827   0.00807   0.00000  Uiso   1.00
O487   O     0.55583   0.43935   0.36766   0.00000  Uiso   1.00
O488   O     0.58353   0.62173   0.21293   0.00000  Uiso   1.00
O489   O     0.44108   0.49998   0.32549   0.00000  Uiso   1.00
O490   O     0.52027   0.49999   0.32549   0.00000  Uiso   1.00
O491   O     0.46039   0.43988   0.24999   0.00000  Uiso   1.00
O492   O     0.53958   0.43989   0.24999   0.00000  Uiso   1.00
O493   O     0.47973   0.50001   0.17451   0.00000  Uiso   1.00
O494   O     0.55892   0.50002   0.17451   0.00000  Uiso   1.00
O495   O     0.59050   0.55887   0.09727   0.00000  Uiso   1.00
C496   C     0.83320   0.57921   0.24931   0.00000  Uiso   1.00
C497   C     0.79796   0.48403   0.40342   0.00000  Uiso   1.00
C498   C     0.87648   0.64430   0.24012   0.00000  Uiso   1.00
C499   C     0.80914   0.49434   0.34841   0.00000  Uiso   1.00
C500   C     0.87585   0.35355   0.25126   0.00000  Uiso   1.00
C501   C     0.83302   0.37665   0.25985   0.00000  Uiso   1.00
C502   C     0.79010   0.35680   0.27154   0.00000  Uiso   1.00
C503   C     0.79024   0.64748   0.26725   0.00000  Uiso   1.00
C504   C     0.83302   0.62435   0.25042   0.00000  Uiso   1.00
C505   C     0.96857   0.52988   0.27750   0.00000  Uiso   1.00
C506   C     0.68443   0.52932   0.27844   0.00000  Uiso   1.00
C507   C     0.81986   0.48716   0.48513   0.00000  Uiso   1.00
C508   C     0.69805   0.47213   0.21929   0.00000  Uiso   1.00
C509   C     0.98116   0.47131   0.22038   0.00000  Uiso   1.00
C510   C     0.83301   0.42117   0.25385   0.00000  Uiso   1.00
C511   C     0.85834   0.50137   0.15050   0.00000  Uiso   1.00
C512   C     0.92779   0.52123   0.01407   0.00000  Uiso   1.00
C513   C     0.87235   0.50323   0.09378   0.00000  Uiso   1.00
C514   C     0.75178   0.47625   0.42993   0.00000  Uiso   1.00
C515   C     0.73776   0.48403   0.48331   0.00000  Uiso   1.00
C516   C     0.77227   0.49553   0.00971   0.00000  Uiso   1.00
C517   C     0.97045   0.55245   0.10114   0.00000  Uiso   1.00
C518   C     0.83295   0.48114   0.43142   0.00000  Uiso   1.00
C519   C     0.71444   0.37500   0.26752   0.00000  Uiso   1.00
C520   C     0.92232   0.56483   0.35028   0.00000  Uiso   1.00
C521   C     0.69868   0.56039   0.35255   0.00000  Uiso   1.00
C522   C     0.73198   0.46188   0.13497   0.00000  Uiso   1.00
C523   C     0.97992   0.40748   0.17495   0.00000  Uiso   1.00
C524   C     0.97714   0.45704   0.36166   0.00000  Uiso   1.00
C525   C     0.72999   0.41303   0.41013   0.00000  Uiso   1.00
C526   C     0.95861   0.63174   0.22781   0.00000  Uiso   1.00
C527   C     0.85547   0.48893   0.01178   0.00000  Uiso   1.00
C528   C     0.90104   0.49786   0.48532   0.00000  Uiso   1.00
C529   C     0.91622   0.48186   0.43309   0.00000  Uiso   1.00
C530   C     0.88000   0.46851   0.40846   0.00000  Uiso   1.00
C531   C     0.84801   0.48094   0.06367   0.00000  Uiso   1.00
C532   C     0.91041   0.52663   0.06889   0.00000  Uiso   1.00
Cu533  Cu    0.78645   0.49999   0.25000   0.00000  Uiso   1.00
Cu534  Cu    0.88022   0.50001   0.25000   0.00000  Uiso   1.00
H535   H     0.97820   0.52023   0.10786   0.00000  Uiso   1.00
H536   H     0.93723   0.54067   0.36935   0.00000  Uiso   1.00
H537   H     0.88349   0.56250   0.35869   0.00000  Uiso   1.00
H538   H     0.73307   0.56862   0.36033   0.00000  Uiso   1.00
H539   H     0.68999   0.52987   0.36710   0.00000  Uiso   1.00
H540   H     0.67255   0.58350   0.37506   0.00000  Uiso   1.00
H541   H     0.74360   0.43663   0.10517   0.00000  Uiso   1.00
H542   H     0.75624   0.48707   0.12983   0.00000  Uiso   1.00
H543   H     0.69841   0.47401   0.12847   0.00000  Uiso   1.00
H544   H     0.99219   0.39548   0.20715   0.00000  Uiso   1.00
H545   H     0.67436   0.40335   0.13874   0.00000  Uiso   1.00
H546   H     0.97562   0.57134   0.13479   0.00000  Uiso   1.00
H547   H     0.95079   0.38861   0.16790   0.00000  Uiso   1.00
H548   H     0.95843   0.47037   0.33525   0.00000  Uiso   1.00
H549   H     0.97194   0.42372   0.36413   0.00000  Uiso   1.00
H550   H     0.68125   0.46123   0.34291   0.00000  Uiso   1.00
H551   H     0.96585   0.54492   0.45376   0.00000  Uiso   1.00
H552   H     0.81929   0.42942   0.05298   0.00000  Uiso   1.00
H553   H     0.72207   0.40550   0.45122   0.00000  Uiso   1.00
H554   H     0.76660   0.40244   0.39010   0.00000  Uiso   1.00
H555   H     0.70537   0.39568   0.39211   0.00000  Uiso   1.00
H556   H     0.72850   0.52895   0.06252   0.00000  Uiso   1.00
H557   H     0.99528   0.56314   0.06671   0.00000  Uiso   1.00
H558   H     0.69002   0.47392   0.04457   0.00000  Uiso   1.00
H559   H     0.85950   0.42608   0.36514   0.00000  Uiso   1.00
H560   H     0.95254   0.63898   0.27002   0.00000  Uiso   1.00
H561   H     0.97624   0.65670   0.20522   0.00000  Uiso   1.00
H562   H     0.98361   0.60500   0.21780   0.00000  Uiso   1.00
H563   H     0.90822   0.38907   0.28936   0.00000  Uiso   1.00
H564   H     0.72926   0.36949   0.22520   0.00000  Uiso   1.00
H565   H     0.69285   0.40370   0.27427   0.00000  Uiso   1.00
H566   H     0.69010   0.35067   0.28272   0.00000  Uiso   1.00
H567   H     0.74063   0.62061   0.24713   0.00000  Uiso   1.00
H568   H     0.92898   0.59483   0.36792   0.00000  Uiso   1.00
N569   N     0.71598   0.49999   0.24998   0.00000  Uiso   1.00
N570   N     0.95069   0.50002   0.24999   0.00000  Uiso   1.00
O571   O     0.79375   0.56011   0.25000   0.00000  Uiso   1.00
O572   O     0.91634   0.37164   0.25692   0.00000  Uiso   1.00
O573   O     0.74930   0.37937   0.29548   0.00000  Uiso   1.00
O574   O     0.74805   0.62887   0.28044   0.00000  Uiso   1.00
O575   O     0.94088   0.56458   0.29663   0.00000  Uiso   1.00
O576   O     0.70176   0.56318   0.29954   0.00000  Uiso   1.00
O577   O     0.72923   0.44693   0.18372   0.00000  Uiso   1.00
O578   O     0.96301   0.44837   0.18451   0.00000  Uiso   1.00
O579   O     0.96485   0.47731   0.41132   0.00000  Uiso   1.00
O580   O     0.96586   0.54322   0.49044   0.00000  Uiso   1.00
O581   O     0.82585   0.44635   0.08219   0.00000  Uiso   1.00
O582   O     0.87294   0.56012   0.25000   0.00000  Uiso   1.00
O583   O     0.72293   0.45516   0.40505   0.00000  Uiso   1.00
O584   O     0.76161   0.51908   0.05534   0.00000  Uiso   1.00
O585   O     0.69147   0.47827   0.00807   0.00000  Uiso   1.00
O586   O     0.88916   0.43935   0.36766   0.00000  Uiso   1.00
O587   O     0.91686   0.62173   0.21293   0.00000  Uiso   1.00
O588   O     0.77441   0.49998   0.32549   0.00000  Uiso   1.00
O589   O     0.85360   0.49999   0.32549   0.00000  Uiso   1.00
O590   O     0.79373   0.43988   0.24999   0.00000  Uiso   1.00
O591   O     0.87292   0.43989   0.24999   0.00000  Uiso   1.00
O592   O     0.81306   0.50001   0.17451   0.00000  Uiso   1.00
O593   O     0.89225   0.50002   0.17451   0.00000  Uiso   1.00
O594   O     0.92384   0.55887   0.09727   0.00000  Uiso   1.00
C595   C     0.16653   0.91254   0.24931   0.00000  Uiso   1.00
C596   C     0.13130   0.81737   0.40342   0.00000  Uiso   1.00
C597   C     0.20981   0.97763   0.24012   0.00000  Uiso   1.00
C598   C     0.14247   0.82768   0.34841   0.00000  Uiso   1.00
C599   C     0.20918   0.68688   0.25126   0.00000  Uiso   1.00
C600   C     0.16635   0.70998   0.25985   0.00000  Uiso   1.00
C601   C     0.12344   0.69013   0.27154   0.00000  Uiso   1.00
C602   C     0.12358   0.98081   0.26725   0.00000  Uiso   1.00
C603   C     0.16636   0.95768   0.25042   0.00000  Uiso   1.00
C604   C     0.30191   0.86322   0.27750   0.00000  Uiso   1.00
C605   C     0.01776   0.86265   0.27844   0.00000  Uiso   1.00
C606   C     0.15319   0.82049   0.48513   0.00000  Uiso   1.00
C607   C     0.03139   0.80546   0.21929   0.00000  Uiso   1.00
C608   C     0.31450   0.80465   0.22038   0.00000  Uiso   1.00
C609   C     0.16635   0.75450   0.25385   0.00000  Uiso   1.00
C610   C     0.19167   0.83470   0.15050   0.00000  Uiso   1.00
C611   C     0.26113   0.85456   0.01407   0.00000  Uiso   1.00
C612   C     0.20568   0.83656   0.09378   0.00000  Uiso   1.00
C613   C     0.08511   0.80959   0.42993   0.00000  Uiso   1.00
C614   C     0.07110   0.81737   0.48331   0.00000  Uiso   1.00
C615   C     0.10560   0.82886   0.00971   0.00000  Uiso   1.00
C616   C     0.30378   0.88578   0.10114   0.00000  Uiso   1.00
C617   C     0.16629   0.81448   0.43142   0.00000  Uiso   1.00
C618   C     0.04778   0.70833   0.26752   0.00000  Uiso   1.00
C619   C     0.25565   0.89817   0.35028   0.00000  Uiso   1.00
C620   C     0.03202   0.89373   0.35255   0.00000  Uiso   1.00
C621   C     0.06531   0.79521   0.13497   0.00000  Uiso   1.00
C622   C     0.31325   0.74081   0.17495   0.00000  Uiso   1.00
C623   C     0.31048   0.79037   0.36166   0.00000  Uiso   1.00
C624   C     0.06332   0.74636   0.41013   0.00000  Uiso   1.00
C625   C     0.29195   0.96508   0.22781   0.00000  Uiso   1.00
C626   C     0.18880   0.82226   0.01178   0.00000  Uiso   1.00
C627   C     0.23438   0.83119   0.48532   0.00000  Uiso   1.00
C628   C     0.24955   0.81519   0.43309   0.00000  Uiso   1.00
C629   C     0.21333   0.80185   0.40846   0.00000  Uiso   1.00
C630   C     0.18134   0.81427   0.06367   0.00000  Uiso   1.00
C631   C     0.24374   0.85996   0.06889   0.00000  Uiso   1.00
Cu632  Cu    0.11978   0.83333   0.25000   0.00000  Uiso   1.00
Cu633  Cu    0.21355   0.83334   0.25000   0.00000  Uiso   1.00
H634   H     0.31153   0.85356   0.10786   0.00000  Uiso   1.00
H635   H     0.27057   0.87400   0.36935   0.00000  Uiso   1.00
H636   H     0.21683   0.89583   0.35869   0.00000  Uiso   1.00
H637   H     0.06640   0.90195   0.36033   0.00000  Uiso   1.00
H638   H     0.02332   0.86320   0.36710   0.00000  Uiso   1.00
H639   H     0.00588   0.91684   0.37506   0.00000  Uiso   1.00
H640   H     0.07693   0.76997   0.10517   0.00000  Uiso   1.00
H641   H     0.08958   0.82040   0.12983   0.00000  Uiso   1.00
H642   H     0.03174   0.80735   0.12847   0.00000  Uiso   1.00
H643   H     0.32552   0.72881   0.20715   0.00000  Uiso   1.00
H644   H     0.00770   0.73668   0.13874   0.00000  Uiso   1.00
H645   H     0.30896   0.90467   0.13479   0.00000  Uiso   1.00
H646   H     0.28412   0.72194   0.16790   0.00000  Uiso   1.00
H647   H     0.29176   0.80370   0.33525   0.00000  Uiso   1.00
H648   H     0.30528   0.75705   0.36413   0.00000  Uiso   1.00
H649   H     0.01458   0.79456   0.34291   0.00000  Uiso   1.00
H650   H     0.29918   0.87825   0.45376   0.00000  Uiso   1.00
H651   H     0.15262   0.76276   0.05298   0.00000  Uiso   1.00
H652   H     0.05540   0.73883   0.45122   0.00000  Uiso   1.00
H653   H     0.09993   0.73577   0.39010   0.00000  Uiso   1.00
H654   H     0.03870   0.72901   0.39211   0.00000  Uiso   1.00
H655   H     0.06183   0.86228   0.06252   0.00000  Uiso   1.00
H656   H     0.32861   0.89648   0.06671   0.00000  Uiso   1.00
H657   H     0.02335   0.80726   0.04457   0.00000  Uiso   1.00
H658   H     0.19284   0.75942   0.36514   0.00000  Uiso   1.00
H659   H     0.28587   0.97231   0.27002   0.00000  Uiso   1.00
H660   H     0.30957   0.99004   0.20522   0.00000  Uiso   1.00
H661   H     0.31694   0.93834   0.21780   0.00000  Uiso   1.00
H662   H     0.24156   0.72241   0.28936   0.00000  Uiso   1.00
H663   H     0.06259   0.70282   0.22520   0.00000  Uiso   1.00
H664   H     0.02618   0.73703   0.27427   0.00000  Uiso   1.00
H665   H     0.02343   0.68401   0.28272   0.00000  Uiso   1.00
H666   H     0.07397   0.95394   0.24713   0.00000  Uiso   1.00
H667   H     0.26232   0.92817   0.36792   0.00000  Uiso   1.00
N668   N     0.04931   0.83332   0.24998   0.00000  Uiso   1.00
N669   N     0.28402   0.83335   0.24999   0.00000  Uiso   1.00
O670   O     0.12708   0.89345   0.25000   0.00000  Uiso   1.00
O671   O     0.24968   0.70498   0.25692   0.00000  Uiso   1.00
O672   O     0.08263   0.71271   0.29548   0.00000  Uiso   1.00
O673   O     0.08138   0.96220   0.28044   0.00000  Uiso   1.00
O674   O     0.27421   0.89791   0.29663   0.00000  Uiso   1.00
O675   O     0.03510   0.89651   0.29954   0.00000  Uiso   1.00
O676   O     0.06257   0.78026   0.18372   0.00000  Uiso   1.00
O677   O     0.29634   0.78170   0.18451   0.00000  Uiso   1.00
O678   O     0.29818   0.81064   0.41132   0.00000  Uiso   1.00
O679   O     0.29919   0.87656   0.49044   0.00000  Uiso   1.00
O680   O     0.15919   0.77969   0.08219   0.00000  Uiso   1.00
O681   O     0.20627   0.89346   0.25000   0.00000  Uiso   1.00
O682   O     0.05626   0.78850   0.40505   0.00000  Uiso   1.00
O683   O     0.09494   0.85241   0.05534   0.00000  Uiso   1.00
O684   O     0.02480   0.81160   0.00807   0.00000  Uiso   1.00
O685   O     0.22249   0.77268   0.36766   0.00000  Uiso   1.00
O686   O     0.25020   0.95506   0.21293   0.00000  Uiso   1.00
O687   O     0.10775   0.83332   0.32549   0.00000  Uiso   1.00
O688   O     0.18694   0.83333   0.32549   0.00000  Uiso   1.00
O689   O     0.12706   0.77321   0.24999   0.00000  Uiso   1.00
O690   O     0.20625   0.77322   0.24999   0.00000  Uiso   1.00
O691   O     0.14640   0.83334   0.17451   0.00000  Uiso   1.00
O692   O     0.22559   0.83335   0.17451   0.00000  Uiso   1.00
O693   O     0.25717   0.89220   0.09727   0.00000  Uiso   1.00
C694   C     0.49987   0.91254   0.24931   0.00000  Uiso   1.00
C695   C     0.46463   0.81737   0.40342   0.00000  Uiso   1.00
C696   C     0.54314   0.97763   0.24012   0.00000  Uiso   1.00
C697   C     0.47580   0.82768   0.34841   0.00000  Uiso   1.00
C698   C     0.54251   0.68688   0.25126   0.00000  Uiso   1.00
C699   C     0.49969   0.70998   0.25985   0.00000  Uiso   1.00
C700   C     0.45677   0.69013   0.27154   0.00000  Uiso   1.00
C701   C     0.45691   0.98081   0.26725   0.00000  Uiso   1.00
C702   C     0.49969   0.95768   0.25042   0.00000  Uiso   1.00
C703   C     0.63524   0.86322   0.27750   0.00000  Uiso   1.00
C704   C     0.35109   0.86265   0.27844   0.00000  Uiso   1.00
C705   C     0.48652   0.82049   0.48513   0.00000  Uiso   1.00
C706   C     0.36472   0.80546   0.21929   0.00000  Uiso   1.00
C707   C     0.64783   0.80465   0.22038   0.00000  Uiso   1.00
C708   C     0.49968   0.75450   0.25385   0.00000  Uiso   1.00
C709   C     0.52501   0.83470   0.15050   0.00000  Uiso   1.00
C710   C     0.59446   0.85456   0.01407   0.00000  Uiso   1.00
C711   C     0.53902   0.83656   0.09378   0.00000  Uiso   1.00
C712   C     0.41844   0.80959   0.42993   0.00000  Uiso   1.00
C713   C     0.40443   0.81737   0.48331   0.00000  Uiso   1.00
C714   C     0.43893   0.82886   0.00971   0.00000  Uiso   1.00
C715   C     0.63711   0.88578   0.10114   0.00000  Uiso   1.00
C716   C     0.49962   0.81448   0.43142   0.00000  Uiso   1.00
C717   C     0.38111   0.70833   0.26752   0.00000  Uiso   1.00
C718   C     0.58899   0.89817   0.35028   0.00000  Uiso   1.00
C719   C     0.36535   0.89373   0.35255   0.00000  Uiso   1.00
C720   C     0.39865   0.79521   0.13497   0.00000  Uiso   1.00
C721   C     0.64658   0.74081   0.17495   0.00000  Uiso   1.00
C722   C     0.64381   0.79037   0.36166   0.00000  Uiso   1.00
C723   C     0.39665   0.74636   0.41013   0.00000  Uiso   1.00
C724   C     0.62528   0.96508   0.22781   0.00000  Uiso   1.00
C725   C     0.52214   0.82226   0.01178   0.00000  Uiso   1.00
C726   C     0.56771   0.83119   0.48532   0.00000  Uiso   1.00
C727   C     0.58289   0.81519   0.43309   0.00000  Uiso   1.00
C728   C     0.54666   0.80185   0.40846   0.00000  Uiso   1.00
C729   C     0.51468   0.81427   0.06367   0.00000  Uiso   1.00
C730   C     0.57707   0.85996   0.06889   0.00000  Uiso   1.00
Cu731  Cu    0.45311   0.83333   0.25000   0.00000  Uiso   1.00
Cu732  Cu    0.54689   0.83334   0.25000   0.00000  Uiso   1.00
H733   H     0.64487   0.85356   0.10786   0.00000  Uiso   1.00
H734   H     0.60390   0.87400   0.36935   0.00000  Uiso   1.00
H735   H     0.55016   0.89583   0.35869   0.00000  Uiso   1.00
H736   H     0.39974   0.90195   0.36033   0.00000  Uiso   1.00
H737   H     0.35665   0.86320   0.36710   0.00000  Uiso   1.00
H738   H     0.33921   0.91684   0.37506   0.00000  Uiso   1.00
H739   H     0.41026   0.76997   0.10517   0.00000  Uiso   1.00
H740   H     0.42291   0.82040   0.12983   0.00000  Uiso   1.00
H741   H     0.36508   0.80735   0.12847   0.00000  Uiso   1.00
H742   H     0.65886   0.72881   0.20715   0.00000  Uiso   1.00
H743   H     0.34103   0.73668   0.13874   0.00000  Uiso   1.00
H744   H     0.64229   0.90467   0.13479   0.00000  Uiso   1.00
H745   H     0.61746   0.72194   0.16790   0.00000  Uiso   1.00
H746   H     0.62509   0.80370   0.33525   0.00000  Uiso   1.00
H747   H     0.63861   0.75705   0.36413   0.00000  Uiso   1.00
H748   H     0.34792   0.79456   0.34291   0.00000  Uiso   1.00
H749   H     0.63252   0.87825   0.45376   0.00000  Uiso   1.00
H750   H     0.48596   0.76276   0.05298   0.00000  Uiso   1.00
H751   H     0.38874   0.73883   0.45122   0.00000  Uiso   1.00
H752   H     0.43327   0.73577   0.39010   0.00000  Uiso   1.00
H753   H     0.37204   0.72901   0.39211   0.00000  Uiso   1.00
H754   H     0.39516   0.86228   0.06252   0.00000  Uiso   1.00
H755   H     0.66194   0.89648   0.06671   0.00000  Uiso   1.00
H756   H     0.35668   0.80726   0.04457   0.00000  Uiso   1.00
H757   H     0.52617   0.75942   0.36514   0.00000  Uiso   1.00
H758   H     0.61920   0.97231   0.27002   0.00000  Uiso   1.00
H759   H     0.64291   0.99004   0.20522   0.00000  Uiso   1.00
H760   H     0.65028   0.93834   0.21780   0.00000  Uiso   1.00
H761   H     0.57489   0.72241   0.28936   0.00000  Uiso   1.00
H762   H     0.39592   0.70282   0.22520   0.00000  Uiso   1.00
H763   H     0.35952   0.73703   0.27427   0.00000  Uiso   1.00
H764   H     0.35676   0.68401   0.28272   0.00000  Uiso   1.00
H765   H     0.40730   0.95394   0.24713   0.00000  Uiso   1.00
H766   H     0.59565   0.92817   0.36792   0.00000  Uiso   1.00
N767   N     0.38265   0.83332   0.24998   0.00000  Uiso   1.00
N768   N     0.61735   0.83335   0.24999   0.00000  Uiso   1.00
O769   O     0.46042   0.89345   0.25000   0.00000  Uiso   1.00
O770   O     0.58301   0.70498   0.25692   0.00000  Uiso   1.00
O771   O     0.41596   0.71271   0.29548   0.00000  Uiso   1.00
O772   O     0.41471   0.96220   0.28044   0.00000  Uiso   1.00
O773   O     0.60755   0.89791   0.29663   0.00000  Uiso   1.00
O774   O     0.36843   0.89651   0.29954   0.00000  Uiso   1.00
O775   O     0.39590   0.78026   0.18372   0.00000  Uiso   1.00
O776   O     0.62967   0.78170   0.18451   0.00000  Uiso   1.00
O777   O     0.63152   0.81064   0.41132   0.00000  Uiso   1.00
O778   O     0.63252   0.87656   0.49044   0.00000  Uiso   1.00
O779   O     0.49252   0.77969   0.08219   0.00000  Uiso   1.00
O780   O     0.53961   0.89346   0.25000   0.00000  Uiso   1.00
O781   O     0.38960   0.78850   0.40505   0.00000  Uiso   1.00
O782   O     0.42827   0.85241   0.05534   0.00000  Uiso   1.00
O783   O     0.35813   0.81160   0.00807   0.00000  Uiso   1.00
O784   O     0.55583   0.77268   0.36766   0.00000  Uiso   1.00
O785   O     0.58353   0.95506   0.21293   0.00000  Uiso   1.00
O786   O     0.44108   0.83332   0.32549   0.00000  Uiso   1.00
O787   O     0.52027   0.83333   0.32549   0.00000  Uiso   1.00
O788   O     0.46039   0.77321   0.24999   0.00000  Uiso   1.00
O789   O     0.53958   0.77322   0.24999   0.00000  Uiso   1.00
O790   O     0.47973   0.83334   0.17451   0.00000  Uiso   1.00
O791   O     0.55892   0.83335   0.17451   0.00000  Uiso   1.00
O792   O     0.59050   0.89220   0.09727   0.00000  Uiso   1.00
C793   C     0.83320   0.91254   0.24931   0.00000  Uiso   1.00
C794   C     0.79796   0.81737   0.40342   0.00000  Uiso   1.00
C795   C     0.87648   0.97763   0.24012   0.00000  Uiso   1.00
C796   C     0.80914   0.82768   0.34841   0.00000  Uiso   1.00
C797   C     0.87585   0.68688   0.25126   0.00000  Uiso   1.00
C798   C     0.83302   0.70998   0.25985   0.00000  Uiso   1.00
C799   C     0.79010   0.69013   0.27154   0.00000  Uiso   1.00
C800   C     0.79024   0.98081   0.26725   0.00000  Uiso   1.00
C801   C     0.83302   0.95768   0.25042   0.00000  Uiso   1.00
C802   C     0.96857   0.86322   0.27750   0.00000  Uiso   1.00
C803   C     0.68443   0.86265   0.27844   0.00000  Uiso   1.00
C804   C     0.81986   0.82049   0.48513   0.00000  Uiso   1.00
C805   C     0.69805   0.80546   0.21929   0.00000  Uiso   1.00
C806   C     0.98116   0.80465   0.22038   0.00000  Uiso   1.00
C807   C     0.83301   0.75450   0.25385   0.00000  Uiso   1.00
C808   C     0.85834   0.83470   0.15050   0.00000  Uiso   1.00
C809   C     0.92779   0.85456   0.01407   0.00000  Uiso   1.00
C810   C     0.87235   0.83656   0.09378   0.00000  Uiso   1.00
C811   C     0.75178   0.80959   0.42993   0.00000  Uiso   1.00
C812   C     0.73776   0.81737   0.48331   0.00000  Uiso   1.00
C813   C     0.77227   0.82886   0.00971   0.00000  Uiso   1.00
C814   C     0.97045   0.88578   0.10114   0.00000  Uiso   1.00
C815   C     0.83295   0.81448   0.43142   0.00000  Uiso   1.00
C816   C     0.71444   0.70833   0.26752   0.00000  Uiso   1.00
C817   C     0.92232   0.89817   0.35028   0.00000  Uiso   1.00
C818   C     0.69868   0.89373   0.35255   0.00000  Uiso   1.00
C819   C     0.73198   0.79521   0.13497   0.00000  Uiso   1.00
C820   C     0.97992   0.74081   0.17495   0.00000  Uiso   1.00
C821   C     0.97714   0.79037   0.36166   0.00000  Uiso   1.00
C822   C     0.72999   0.74636   0.41013   0.00000  Uiso   1.00
C823   C     0.95861   0.96508   0.22781   0.00000  Uiso   1.00
C824   C     0.85547   0.82226   0.01178   0.00000  Uiso   1.00
C825   C     0.90104   0.83119   0.48532   0.00000  Uiso   1.00
C826   C     0.91622   0.81519   0.43309   0.00000  Uiso   1.00
C827   C     0.88000   0.80185   0.40846   0.00000  Uiso   1.00
C828   C     0.84801   0.81427   0.06367   0.00000  Uiso   1.00
C829   C     0.91041   0.85996   0.06889   0.00000  Uiso   1.00
Cu830  Cu    0.78645   0.83333   0.25000   0.00000  Uiso   1.00
Cu831  Cu    0.88022   0.83334   0.25000   0.00000  Uiso   1.00
H832   H     0.97820   0.85356   0.10786   0.00000  Uiso   1.00
H833   H     0.93723   0.87400   0.36935   0.00000  Uiso   1.00
H834   H     0.88349   0.89583   0.35869   0.00000  Uiso   1.00
H835   H     0.73307   0.90195   0.36033   0.00000  Uiso   1.00
H836   H     0.68999   0.86320   0.36710   0.00000  Uiso   1.00
H837   H     0.67255   0.91684   0.37506   0.00000  Uiso   1.00
H838   H     0.74360   0.76997   0.10517   0.00000  Uiso   1.00
H839   H     0.75624   0.82040   0.12983   0.00000  Uiso   1.00
H840   H     0.69841   0.80735   0.12847   0.00000  Uiso   1.00
H841   H     0.99219   0.72881   0.20715   0.00000  Uiso   1.00
H842   H     0.67436   0.73668   0.13874   0.00000  Uiso   1.00
H843   H     0.97562   0.90467   0.13479   0.00000  Uiso   1.00
H844   H     0.95079   0.72194   0.16790   0.00000  Uiso   1.00
H845   H     0.95843   0.80370   0.33525   0.00000  Uiso   1.00
H846   H     0.97194   0.75705   0.36413   0.00000  Uiso   1.00
H847   H     0.68125   0.79456   0.34291   0.00000  Uiso   1.00
H848   H     0.96585   0.87825   0.45376   0.00000  Uiso   1.00
H849   H     0.81929   0.76276   0.05298   0.00000  Uiso   1.00
H850   H     0.72207   0.73883   0.45122   0.00000  Uiso   1.00
H851   H     0.76660   0.73577   0.39010   0.00000  Uiso   1.00
H852   H     0.70537   0.72901   0.39211   0.00000  Uiso   1.00
H853   H     0.72850   0.86228   0.06252   0.00000  Uiso   1.00
H854   H     0.99528   0.89648   0.06671   0.00000  Uiso   1.00
H855   H     0.69002   0.80726   0.04457   0.00000  Uiso   1.00
H856   H     0.85950   0.75942   0.36514   0.00000  Uiso   1.00
H857   H     0.95254   0.97231   0.27002   0.00000  Uiso   1.00
H858   H     0.97624   0.99004   0.20522   0.00000  Uiso   1.00
H859   H     0.98361   0.93834   0.21780   0.00000  Uiso   1.00
H860   H     0.90822   0.72241   0.28936   0.00000  Uiso   1.00
H861   H     0.72926   0.70282   0.22520   0.00000  Uiso   1.00
H862   H     0.69285   0.73703   0.27427   0.00000  Uiso   1.00
H863   H     0.69010   0.68401   0.28272   0.00000  Uiso   1.00
H864   H     0.74063   0.95394   0.24713   0.00000  Uiso   1.00
H865   H     0.92898   0.92817   0.36792   0.00000  Uiso   1.00
N866   N     0.71598   0.83332   0.24998   0.00000  Uiso   1.00
N867   N     0.95069   0.83335   0.24999   0.00000  Uiso   1.00
O868   O     0.79375   0.89345   0.25000   0.00000  Uiso   1.00
O869   O     0.91634   0.70498   0.25692   0.00000  Uiso   1.00
O870   O     0.74930   0.71271   0.29548   0.00000  Uiso   1.00
O871   O     0.74805   0.96220   0.28044   0.00000  Uiso   1.00
O872   O     0.94088   0.89791   0.29663   0.00000  Uiso   1.00
O873   O     0.70176   0.89651   0.29954   0.00000  Uiso   1.00
O874   O     0.72923   0.78026   0.18372   0.00000  Uiso   1.00
O875   O     0.96301   0.78170   0.18451   0.00000  Uiso   1.00
O876   O     0.96485   0.81064   0.41132   0.00000  Uiso   1.00
O877   O     0.96586   0.87656   0.49044   0.00000  Uiso   1.00
O878   O     0.82585   0.77969   0.08219   0.00000  Uiso   1.00
O879   O     0.87294   0.89346   0.25000   0.00000  Uiso   1.00
O880   O     0.72293   0.78850   0.40505   0.00000  Uiso   1.00
O881   O     0.76161   0.85241   0.05534   0.00000  Uiso   1.00
O882   O     0.69147   0.81160   0.00807   0.00000  Uiso   1.00
O883   O     0.88916   0.77268   0.36766   0.00000  Uiso   1.00
O884   O     0.91686   0.95506   0.21293   0.00000  Uiso   1.00
O885   O     0.77441   0.83332   0.32549   0.00000  Uiso   1.00
O886   O     0.85360   0.83333   0.32549   0.00000  Uiso   1.00
O887   O     0.79373   0.77321   0.24999   0.00000  Uiso   1.00
O888   O     0.87292   0.77322   0.24999   0.00000  Uiso   1.00
O889   O     0.81306   0.83334   0.17451   0.00000  Uiso   1.00
O890   O     0.89225   0.83335   0.17451   0.00000  Uiso   1.00
O891   O     0.92384   0.89220   0.09727   0.00000  Uiso   1.00
C892   C     0.16653   0.24588   0.74931   0.00000  Uiso   1.00
C893   C     0.13130   0.15070   0.90342   0.00000  Uiso   1.00
C894   C     0.20981   0.31096   0.74012   0.00000  Uiso   1.00
C895   C     0.14247   0.16101   0.84841   0.00000  Uiso   1.00
C896   C     0.20918   0.02022   0.75126   0.00000  Uiso   1.00
C897   C     0.16635   0.04332   0.75985   0.00000  Uiso   1.00
C898   C     0.12344   0.02347   0.77154   0.00000  Uiso   1.00
C899   C     0.12358   0.31415   0.76725   0.00000  Uiso   1.00
C900   C     0.16636   0.29101   0.75042   0.00000  Uiso   1.00
C901   C     0.30191   0.19655   0.77750   0.00000  Uiso   1.00
C902   C     0.01776   0.19598   0.77844   0.00000  Uiso   1.00
C903   C     0.15319   0.15383   0.98513   0.00000  Uiso   1.00
C904   C     0.03139   0.13880   0.71929   0.00000  Uiso   1.00
C905   C     0.31450   0.13798   0.72038   0.00000  Uiso   1.00
C906   C     0.16635   0.08783   0.75385   0.00000  Uiso   1.00
C907   C     0.19167   0.16803   0.65050   0.00000  Uiso   1.00
C908   C     0.26113   0.18790   0.51407   0.00000  Uiso   1.00
C909   C     0.20568   0.16989   0.59378   0.00000  Uiso   1.00
C910   C     0.08511   0.14292   0.92993   0.00000  Uiso   1.00
C911   C     0.07110   0.15070   0.98331   0.00000  Uiso   1.00
C912   C     0.10560   0.16220   0.50971   0.00000  Uiso   1.00
C913   C     0.30378   0.21911   0.60114   0.00000  Uiso   1.00
C914   C     0.16629   0.14781   0.93142   0.00000  Uiso   1.00
C915   C     0.04778   0.04167   0.76752   0.00000  Uiso   1.00
C916   C     0.25565   0.23150   0.85028   0.00000  Uiso   1.00
C917   C     0.03202   0.22706   0.85255   0.00000  Uiso   1.00
C918   C     0.06531   0.12854   0.63497   0.00000  Uiso   1.00
C919   C     0.31325   0.07415   0.67495   0.00000  Uiso   1.00
C920   C     0.31048   0.12370   0.86166   0.00000  Uiso   1.00
C921   C     0.06332   0.07970   0.91013   0.00000  Uiso   1.00
C922   C     0.29195   0.29841   0.72781   0.00000  Uiso   1.00
C923   C     0.18880   0.15559   0.51178   0.00000  Uiso   1.00
C924   C     0.23438   0.16453   0.98532   0.00000  Uiso   1.00
C925   C     0.24955   0.14853   0.93309   0.00000  Uiso   1.00
C926   C     0.21333   0.13518   0.90846   0.00000  Uiso   1.00
C927   C     0.18134   0.14760   0.56367   0.00000  Uiso   1.00
C928   C     0.24374   0.19329   0.56889   0.00000  Uiso   1.00
Cu929  Cu    0.11978   0.16666   0.75000   0.00000  Uiso   1.00
Cu930  Cu    0.21355   0.16667   0.75000   0.00000  Uiso   1.00
H931   H     0.31153   0.18689   0.60786   0.00000  Uiso   1.00
H932   H     0.27057   0.20733   0.86935   0.00000  Uiso   1.00
H933   H     0.21683   0.22917   0.85869   0.00000  Uiso   1.00
H934   H     0.06640   0.23529   0.86033   0.00000  Uiso   1.00
H935   H     0.02332   0.19653   0.86710   0.00000  Uiso   1.00
H936   H     0.00588   0.25017   0.87506   0.00000  Uiso   1.00
H937   H     0.07693   0.10330   0.60517   0.00000  Uiso   1.00
H938   H     0.08958   0.15374   0.62983   0.00000  Uiso   1.00
H939   H     0.03174   0.14068   0.62847   0.00000  Uiso   1.00
H940   H     0.32552   0.06215   0.70715   0.00000  Uiso   1.00
H941   H     0.00770   0.07001   0.63874   0.00000  Uiso   1.00
H942   H     0.30896   0.23801   0.63479   0.00000  Uiso   1.00
H943   H     0.28412   0.05527   0.66790   0.00000  Uiso   1.00
H944   H     0.29176   0.13703   0.83525   0.00000  Uiso   1.00
H945   H     0.30528   0.09038   0.86413   0.00000  Uiso   1.00
H946   H     0.01458   0.12790   0.84291   0.00000  Uiso   1.00
H947   H     0.29918   0.21158   0.95376   0.00000  Uiso   1.00
H948   H     0.15262   0.09609   0.55298   0.00000  Uiso   1.00
H949   H     0.05540   0.07217   0.95122   0.00000  Uiso   1.00
H950   H     0.09993   0.06910   0.89010   0.00000  Uiso   1.00
H951   H     0.03870   0.06235   0.89211   0.00000  Uiso   1.00
H952   H     0.06183   0.19561   0.56252   0.00000  Uiso   1.00
H953   H     0.32861   0.22981   0.56671   0.00000  Uiso   1.00
H954   H     0.02335   0.14059   0.54457   0.00000  Uiso   1.00
H955   H     0.19284   0.09275   0.86514   0.00000  Uiso   1.00
H956   H     0.28587   0.30564   0.77002   0.00000  Uiso   1.00
H957   H     0.30957   0.32337   0.70522   0.00000  Uiso   1.00
H958   H     0.31694   0.27167   0.71780   0.00000  Uiso   1.00
H959   H     0.24156   0.05574   0.78936   0.00000  Uiso   1.00
H960   H     0.06259   0.03615   0.72520   0.00000  Uiso   1.00
H961   H     0.02618   0.07037   0.77427   0.00000  Uiso   1.00
H962   H     0.02343   0.01734   0.78272   0.00000  Uiso   1.00
H963   H     0.07397   0.28728   0.74713   0.00000  Uiso   1.00
H964   H     0.26232   0.26150   0.86792   0.00000  Uiso   1.00
N965   N     0.04931   0.16666   0.74998   0.00000  Uiso   1.00
N966   N     0.28402   0.16669   0.74999   0.00000  Uiso   1.00
O967   O     0.12708   0.22678   0.75000   0.00000  Uiso   1.00
O968   O     0.24968   0.03831   0.75692   0.00000  Uiso   1.00
O969   O     0.08263   0.04604   0.79548   0.00000  Uiso   1.00
O970   O     0.08138   0.29554   0.78044   0.00000  Uiso   1.00
O971   O     0.27421   0.23124   0.79663   0.00000  Uiso   1.00
O972   O     0.03510   0.22984   0.79954   0.00000  Uiso   1.00
O973   O     0.06257   0.11360   0.68372   0.00000  Uiso   1.00
O974   O     0.29634   0.11503   0.68451   0.00000  Uiso   1.00
O975   O     0.29818   0.14398   0.91132   0.00000  Uiso   1.00
O976   O     0.29919   0.20989   0.99044   0.00000  Uiso   1.00
O977   O     0.15919   0.11302   0.58219   0.00000  Uiso   1.00
O978   O     0.20627   0.22679   0.75000   0.00000  Uiso   1.00
O979   O     0.05626   0.12183   0.90505   0.00000  Uiso   1.00
O980   O     0.09494   0.18574   0.55534   0.00000  Uiso   1.00
O981   O     0.02480   0.14494   0.50807   0.00000  Uiso   1.00
O982   O     0.22249   0.10602   0.86766   0.00000  Uiso   1.00
O983   O     0.25020   0.28840   0.71293   0.00000  Uiso   1.00
O984   O     0.10775   0.16665   0.82549   0.00000  Uiso   1.00
O985   O     0.18694   0.16666   0.82549   0.00000  Uiso   1.00
O986   O     0.12706   0.10654   0.74999   0.00000  Uiso   1.00
O987   O     0.20625   0.10655   0.74999   0.00000  Uiso   1.00
O988   O     0.14640   0.16667   0.67451   0.00000  Uiso   1.00
O989   O     0.22559   0.16668   0.67451   0.00000  Uiso   1.00
O990   O     0.25717   0.22554   0.59727   0.00000  Uiso   1.00
C991   C     0.49987   0.24588   0.74931   0.00000  Uiso   1.00
C992   C     0.46463   0.15070   0.90342   0.00000  Uiso   1.00
C993   C     0.54314   0.31096   0.74012   0.00000  Uiso   1.00
C994   C     0.47580   0.16101   0.84841   0.00000  Uiso   1.00
C995   C     0.54251   0.02022   0.75126   0.00000  Uiso   1.00
C996   C     0.49969   0.04332   0.75985   0.00000  Uiso   1.00
C997   C     0.45677   0.02347   0.77154   0.00000  Uiso   1.00
C998   C     0.45691   0.31415   0.76725   0.00000  Uiso   1.00
C999   C     0.49969   0.29101   0.75042   0.00000  Uiso   1.00
C1000  C     0.63524   0.19655   0.77750   0.00000  Uiso   1.00
C1001  C     0.35109   0.19598   0.77844   0.00000  Uiso   1.00
C1002  C     0.48652   0.15383   0.98513   0.00000  Uiso   1.00
C1003  C     0.36472   0.13880   0.71929   0.00000  Uiso   1.00
C1004  C     0.64783   0.13798   0.72038   0.00000  Uiso   1.00
C1005  C     0.49968   0.08783   0.75385   0.00000  Uiso   1.00
C1006  C     0.52501   0.16803   0.65050   0.00000  Uiso   1.00
C1007  C     0.59446   0.18790   0.51407   0.00000  Uiso   1.00
C1008  C     0.53902   0.16989   0.59378   0.00000  Uiso   1.00
C1009  C     0.41844   0.14292   0.92993   0.00000  Uiso   1.00
C1010  C     0.40443   0.15070   0.98331   0.00000  Uiso   1.00
C1011  C     0.43893   0.16220   0.50971   0.00000  Uiso   1.00
C1012  C     0.63711   0.21911   0.60114   0.00000  Uiso   1.00
C1013  C     0.49962   0.14781   0.93142   0.00000  Uiso   1.00
C1014  C     0.38111   0.04167   0.76752   0.00000  Uiso   1.00
C1015  C     0.58899   0.23150   0.85028   0.00000  Uiso   1.00
C1016  C     0.36535   0.22706   0.85255   0.00000  Uiso   1.00
C1017  C     0.39865   0.12854   0.63497   0.00000  Uiso   1.00
C1018  C     0.64658   0.07415   0.67495   0.00000  Uiso   1.00
C1019  C     0.64381   0.12370   0.86166   0.00000  Uiso   1.00
C1020  C     0.39665   0.07970   0.91013   0.00000  Uiso   1.00
C1021  C     0.62528   0.29841   0.72781   0.00000  Uiso   1.00
C1022  C     0.52214   0.15559   0.51178   0.00000  Uiso   1.00
C1023  C     0.56771   0.16453   0.98532   0.00000  Uiso   1.00
C1024  C     0.58289   0.14853   0.93309   0.00000  Uiso   1.00
C1025  C     0.54666   0.13518   0.90846   0.00000  Uiso   1.00
C1026  C     0.51468   0.14760   0.56367   0.00000  Uiso   1.00
C1027  C     0.57707   0.19329   0.56889   0.00000  Uiso   1.00
Cu1028 Cu    0.45311   0.16666   0.75000   0.00000  Uiso   1.00
Cu1029 Cu    0.54689   0.16667   0.75000   0.00000  Uiso   1.00
H1030  H     0.64487   0.18689   0.60786   0.00000  Uiso   1.00
H1031  H     0.60390   0.20733   0.86935   0.00000  Uiso   1.00
H1032  H     0.55016   0.22917   0.85869   0.00000  Uiso   1.00
H1033  H     0.39974   0.23529   0.86033   0.00000  Uiso   1.00
H1034  H     0.35665   0.19653   0.86710   0.00000  Uiso   1.00
H1035  H     0.33921   0.25017   0.87506   0.00000  Uiso   1.00
H1036  H     0.41026   0.10330   0.60517   0.00000  Uiso   1.00
H1037  H     0.42291   0.15374   0.62983   0.00000  Uiso   1.00
H1038  H     0.36508   0.14068   0.62847   0.00000  Uiso   1.00
H1039  H     0.65886   0.06215   0.70715   0.00000  Uiso   1.00
H1040  H     0.34103   0.07001   0.63874   0.00000  Uiso   1.00
H1041  H     0.64229   0.23801   0.63479   0.00000  Uiso   1.00
H1042  H     0.61746   0.05527   0.66790   0.00000  Uiso   1.00
H1043  H     0.62509   0.13703   0.83525   0.00000  Uiso   1.00
H1044  H     0.63861   0.09038   0.86413   0.00000  Uiso   1.00
H1045  H     0.34792   0.12790   0.84291   0.00000  Uiso   1.00
H1046  H     0.63252   0.21158   0.95376   0.00000  Uiso   1.00
H1047  H     0.48596   0.09609   0.55298   0.00000  Uiso   1.00
H1048  H     0.38874   0.07217   0.95122   0.00000  Uiso   1.00
H1049  H     0.43327   0.06910   0.89010   0.00000  Uiso   1.00
H1050  H     0.37204   0.06235   0.89211   0.00000  Uiso   1.00
H1051  H     0.39516   0.19561   0.56252   0.00000  Uiso   1.00
H1052  H     0.66194   0.22981   0.56671   0.00000  Uiso   1.00
H1053  H     0.35668   0.14059   0.54457   0.00000  Uiso   1.00
H1054  H     0.52617   0.09275   0.86514   0.00000  Uiso   1.00
H1055  H     0.61920   0.30564   0.77002   0.00000  Uiso   1.00
H1056  H     0.64291   0.32337   0.70522   0.00000  Uiso   1.00
H1057  H     0.65028   0.27167   0.71780   0.00000  Uiso   1.00
H1058  H     0.57489   0.05574   0.78936   0.00000  Uiso   1.00
H1059  H     0.39592   0.03615   0.72520   0.00000  Uiso   1.00
H1060  H     0.35952   0.07037   0.77427   0.00000  Uiso   1.00
H1061  H     0.35676   0.01734   0.78272   0.00000  Uiso   1.00
H1062  H     0.40730   0.28728   0.74713   0.00000  Uiso   1.00
H1063  H     0.59565   0.26150   0.86792   0.00000  Uiso   1.00
N1064  N     0.38265   0.16666   0.74998   0.00000  Uiso   1.00
N1065  N     0.61735   0.16669   0.74999   0.00000  Uiso   1.00
O1066  O     0.46042   0.22678   0.75000   0.00000  Uiso   1.00
O1067  O     0.58301   0.03831   0.75692   0.00000  Uiso   1.00
O1068  O     0.41596   0.04604   0.79548   0.00000  Uiso   1.00
O1069  O     0.41471   0.29554   0.78044   0.00000  Uiso   1.00
O1070  O     0.60755   0.23124   0.79663   0.00000  Uiso   1.00
O1071  O     0.36843   0.22984   0.79954   0.00000  Uiso   1.00
O1072  O     0.39590   0.11360   0.68372   0.00000  Uiso   1.00
O1073  O     0.62967   0.11503   0.68451   0.00000  Uiso   1.00
O1074  O     0.63152   0.14398   0.91132   0.00000  Uiso   1.00
O1075  O     0.63252   0.20989   0.99044   0.00000  Uiso   1.00
O1076  O     0.49252   0.11302   0.58219   0.00000  Uiso   1.00
O1077  O     0.53961   0.22679   0.75000   0.00000  Uiso   1.00
O1078  O     0.38960   0.12183   0.90505   0.00000  Uiso   1.00
O1079  O     0.42827   0.18574   0.55534   0.00000  Uiso   1.00
O1080  O     0.35813   0.14494   0.50807   0.00000  Uiso   1.00
O1081  O     0.55583   0.10602   0.86766   0.00000  Uiso   1.00
O1082  O     0.58353   0.28840   0.71293   0.00000  Uiso   1.00
O1083  O     0.44108   0.16665   0.82549   0.00000  Uiso   1.00
O1084  O     0.52027   0.16666   0.82549   0.00000  Uiso   1.00
O1085  O     0.46039   0.10654   0.74999   0.00000  Uiso   1.00
O1086  O     0.53958   0.10655   0.74999   0.00000  Uiso   1.00
O1087  O     0.47973   0.16667   0.67451   0.00000  Uiso   1.00
O1088  O     0.55892   0.16668   0.67451   0.00000  Uiso   1.00
O1089  O     0.59050   0.22554   0.59727   0.00000  Uiso   1.00
C1090  C     0.83320   0.24588   0.74931   0.00000  Uiso   1.00
C1091  C     0.79796   0.15070   0.90342   0.00000  Uiso   1.00
C1092  C     0.87648   0.31096   0.74012   0.00000  Uiso   1.00
C1093  C     0.80914   0.16101   0.84841   0.00000  Uiso   1.00
C1094  C     0.87585   0.02022   0.75126   0.00000  Uiso   1.00
C1095  C     0.83302   0.04332   0.75985   0.00000  Uiso   1.00
C1096  C     0.79010   0.02347   0.77154   0.00000  Uiso   1.00
C1097  C     0.79024   0.31415   0.76725   0.00000  Uiso   1.00
C1098  C     0.83302   0.29101   0.75042   0.00000  Uiso   1.00
C1099  C     0.96857   0.19655   0.77750   0.00000  Uiso   1.00
C1100  C     0.68443   0.19598   0.77844   0.00000  Uiso   1.00
C1101  C     0.81986   0.15383   0.98513   0.00000  Uiso   1.00
C1102  C     0.69805   0.13880   0.71929   0.00000  Uiso   1.00
C1103  C     0.98116   0.13798   0.72038   0.00000  Uiso   1.00
C1104  C     0.83301   0.08783   0.75385   0.00000  Uiso   1.00
C1105  C     0.85834   0.16803   0.65050   0.00000  Uiso   1.00
C1106  C     0.92779   0.18790   0.51407   0.00000  Uiso   1.00
C1107  C     0.87235   0.16989   0.59378   0.00000  Uiso   1.00
C1108  C     0.75178   0.14292   0.92993   0.00000  Uiso   1.00
C1109  C     0.73776   0.15070   0.98331   0.00000  Uiso   1.00
C1110  C     0.77227   0.16220   0.50971   0.00000  Uiso   1.00
C1111  C     0.97045   0.21911   0.60114   0.00000  Uiso   1.00
C1112  C     0.83295   0.14781   0.93142   0.00000  Uiso   1.00
C1113  C     0.71444   0.04167   0.76752   0.00000  Uiso   1.00
C1114  C     0.92232   0.23150   0.85028   0.00000  Uiso   1.00
C1115  C     0.69868   0.22706   0.85255   0.00000  Uiso   1.00
C1116  C     0.73198   0.12854   0.63497   0.00000  Uiso   1.00
C1117  C     0.97992   0.07415   0.67495   0.00000  Uiso   1.00
C1118  C     0.97714   0.12370   0.86166   0.00000  Uiso   1.00
C1119  C     0.72999   0.07970   0.91013   0.00000  Uiso   1.00
C1120  C     0.95861   0.29841   0.72781   0.00000  Uiso   1.00
C1121  C     0.85547   0.15559   0.51178   0.00000  Uiso   1.00
C1122  C     0.90104   0.16453   0.98532   0.00000  Uiso   1.00
C1123  C     0.91622   0.14853   0.93309   0.00000  Uiso   1.00
C1124  C     0.88000   0.13518   0.90846   0.00000  Uiso   1.00
C1125  C     0.84801   0.14760   0.56367   0.00000  Uiso   1.00
C1126  C     0.91041   0.19329   0.56889   0.00000  Uiso   1.00
Cu1127 Cu    0.78645   0.16666   0.75000   0.00000  Uiso   1.00
Cu1128 Cu    0.88022   0.16667   0.75000   0.00000  Uiso   1.00
H1129  H     0.97820   0.18689   0.60786   0.00000  Uiso   1.00
H1130  H     0.93723   0.20733   0.86935   0.00000  Uiso   1.00
H1131  H     0.88349   0.22917   0.85869   0.00000  Uiso   1.00
H1132  H     0.73307   0.23529   0.86033   0.00000  Uiso   1.00
H1133  H     0.68999   0.19653   0.86710   0.00000  Uiso   1.00
H1134  H     0.67255   0.25017   0.87506   0.00000  Uiso   1.00
H1135  H     0.74360   0.10330   0.60517   0.00000  Uiso   1.00
H1136  H     0.75624   0.15374   0.62983   0.00000  Uiso   1.00
H1137  H     0.69841   0.14068   0.62847   0.00000  Uiso   1.00
H1138  H     0.99219   0.06215   0.70715   0.00000  Uiso   1.00
H1139  H     0.67436   0.07001   0.63874   0.00000  Uiso   1.00
H1140  H     0.97562   0.23801   0.63479   0.00000  Uiso   1.00
H1141  H     0.95079   0.05527   0.66790   0.00000  Uiso   1.00
H1142  H     0.95843   0.13703   0.83525   0.00000  Uiso   1.00
H1143  H     0.97194   0.09038   0.86413   0.00000  Uiso   1.00
H1144  H     0.68125   0.12790   0.84291   0.00000  Uiso   1.00
H1145  H     0.96585   0.21158   0.95376   0.00000  Uiso   1.00
H1146  H     0.81929   0.09609   0.55298   0.00000  Uiso   1.00
H1147  H     0.72207   0.07217   0.95122   0.00000  Uiso   1.00
H1148  H     0.76660   0.06910   0.89010   0.00000  Uiso   1.00
H1149  H     0.70537   0.06235   0.89211   0.00000  Uiso   1.00
H1150  H     0.72850   0.19561   0.56252   0.00000  Uiso   1.00
H1151  H     0.99528   0.22981   0.56671   0.00000  Uiso   1.00
H1152  H     0.69002   0.14059   0.54457   0.00000  Uiso   1.00
H1153  H     0.85950   0.09275   0.86514   0.00000  Uiso   1.00
H1154  H     0.95254   0.30564   0.77002   0.00000  Uiso   1.00
H1155  H     0.97624   0.32337   0.70522   0.00000  Uiso   1.00
H1156  H     0.98361   0.27167   0.71780   0.00000  Uiso   1.00
H1157  H     0.90822   0.05574   0.78936   0.00000  Uiso   1.00
H1158  H     0.72926   0.03615   0.72520   0.00000  Uiso   1.00
H1159  H     0.69285   0.07037   0.77427   0.00000  Uiso   1.00
H1160  H     0.69010   0.01734   0.78272   0.00000  Uiso   1.00
H1161  H     0.74063   0.28728   0.74713   0.00000  Uiso   1.00
H1162  H     0.92898   0.26150   0.86792   0.00000  Uiso   1.00
N1163  N     0.71598   0.16666   0.74998   0.00000  Uiso   1.00
N1164  N     0.95069   0.16669   0.74999   0.00000  Uiso   1.00
O1165  O     0.79375   0.22678   0.75000   0.00000  Uiso   1.00
O1166  O     0.91634   0.03831   0.75692   0.00000  Uiso   1.00
O1167  O     0.74930   0.04604   0.79548   0.00000  Uiso   1.00
O1168  O     0.74805   0.29554   0.78044   0.00000  Uiso   1.00
O1169  O     0.94088   0.23124   0.79663   0.00000  Uiso   1.00
O1170  O     0.70176   0.22984   0.79954   0.00000  Uiso   1.00
O1171  O     0.72923   0.11360   0.68372   0.00000  Uiso   1.00
O1172  O     0.96301   0.11503   0.68451   0.00000  Uiso   1.00
O1173  O     0.96485   0.14398   0.91132   0.00000  Uiso   1.00
O1174  O     0.96586   0.20989   0.99044   0.00000  Uiso   1.00
O1175  O     0.82585   0.11302   0.58219   0.00000  Uiso   1.00
O1176  O     0.87294   0.22679   0.75000   0.00000  Uiso   1.00
O1177  O     0.72293   0.12183   0.90505   0.00000  Uiso   1.00
O1178  O     0.76161   0.18574   0.55534   0.00000  Uiso   1.00
O1179  O     0.69147   0.14494   0.50807   0.00000  Uiso   1.00
O1180  O     0.88916   0.10602   0.86766   0.00000  Uiso   1.00
O1181  O     0.91686   0.28840   0.71293   0.00000  Uiso   1.00
O1182  O     0.77441   0.16665   0.82549   0.00000  Uiso   1.00
O1183  O     0.85360   0.16666   0.82549   0.00000  Uiso   1.00
O1184  O     0.79373   0.10654   0.74999   0.00000  Uiso   1.00
O1185  O     0.87292   0.10655   0.74999   0.00000  Uiso   1.00
O1186  O     0.81306   0.16667   0.67451   0.00000  Uiso   1.00
O1187  O     0.89225   0.16668   0.67451   0.00000  Uiso   1.00
O1188  O     0.92384   0.22554   0.59727   0.00000  Uiso   1.00
C1189  C     0.16653   0.57921   0.74931   0.00000  Uiso   1.00
C1190  C     0.13130   0.48403   0.90342   0.00000  Uiso   1.00
C1191  C     0.20981   0.64430   0.74012   0.00000  Uiso   1.00
C1192  C     0.14247   0.49434   0.84841   0.00000  Uiso   1.00
C1193  C     0.20918   0.35355   0.75126   0.00000  Uiso   1.00
C1194  C     0.16635   0.37665   0.75985   0.00000  Uiso   1.00
C1195  C     0.12344   0.35680   0.77154   0.00000  Uiso   1.00
C1196  C     0.12358   0.64748   0.76725   0.00000  Uiso   1.00
C1197  C     0.16636   0.62435   0.75042   0.00000  Uiso   1.00
C1198  C     0.30191   0.52988   0.77750   0.00000  Uiso   1.00
C1199  C     0.01776   0.52932   0.77844   0.00000  Uiso   1.00
C1200  C     0.15319   0.48716   0.98513   0.00000  Uiso   1.00
C1201  C     0.03139   0.47213   0.71929   0.00000  Uiso   1.00
C1202  C     0.31450   0.47131   0.72038   0.00000  Uiso   1.00
C1203  C     0.16635   0.42117   0.75385   0.00000  Uiso   1.00
C1204  C     0.19167   0.50137   0.65050   0.00000  Uiso   1.00
C1205  C     0.26113   0.52123   0.51407   0.00000  Uiso   1.00
C1206  C     0.20568   0.50323   0.59378   0.00000  Uiso   1.00
C1207  C     0.08511   0.47625   0.92993   0.00000  Uiso   1.00
C1208  C     0.07110   0.48403   0.98331   0.00000  Uiso   1.00
C1209  C     0.10560   0.49553   0.50971   0.00000  Uiso   1.00
C1210  C     0.30378   0.55245   0.60114   0.00000  Uiso   1.00
C1211  C     0.16629   0.48114   0.93142   0.00000  Uiso   1.00
C1212  C     0.04778   0.37500   0.76752   0.00000  Uiso   1.00
C1213  C     0.25565   0.56483   0.85028   0.00000  Uiso   1.00
C1214  C     0.03202   0.56039   0.85255   0.00000  Uiso   1.00
C1215  C     0.06531   0.46188   0.63497   0.00000  Uiso   1.00
C1216  C     0.31325   0.40748   0.67495   0.00000  Uiso   1.00
C1217  C     0.31048   0.45704   0.86166   0.00000  Uiso   1.00
C1218  C     0.06332   0.41303   0.91013   0.00000  Uiso   1.00
C1219  C     0.29195   0.63174   0.72781   0.00000  Uiso   1.00
C1220  C     0.18880   0.48893   0.51178   0.00000  Uiso   1.00
C1221  C     0.23438   0.49786   0.98532   0.00000  Uiso   1.00
C1222  C     0.24955   0.48186   0.93309   0.00000  Uiso   1.00
C1223  C     0.21333   0.46851   0.90846   0.00000  Uiso   1.00
C1224  C     0.18134   0.48094   0.56367   0.00000  Uiso   1.00
C1225  C     0.24374   0.52663   0.56889   0.00000  Uiso   1.00
Cu1226 Cu    0.11978   0.49999   0.75000   0.00000  Uiso   1.00
Cu1227 Cu    0.21355   0.50001   0.75000   0.00000  Uiso   1.00
H1228  H     0.31153   0.52023   0.60786   0.00000  Uiso   1.00
H1229  H     0.27057   0.54067   0.86935   0.00000  Uiso   1.00
H1230  H     0.21683   0.56250   0.85869   0.00000  Uiso   1.00
H1231  H     0.06640   0.56862   0.86033   0.00000  Uiso   1.00
H1232  H     0.02332   0.52987   0.86710   0.00000  Uiso   1.00
H1233  H     0.00588   0.58350   0.87506   0.00000  Uiso   1.00
H1234  H     0.07693   0.43663   0.60517   0.00000  Uiso   1.00
H1235  H     0.08958   0.48707   0.62983   0.00000  Uiso   1.00
H1236  H     0.03174   0.47401   0.62847   0.00000  Uiso   1.00
H1237  H     0.32552   0.39548   0.70715   0.00000  Uiso   1.00
H1238  H     0.00770   0.40335   0.63874   0.00000  Uiso   1.00
H1239  H     0.30896   0.57134   0.63479   0.00000  Uiso   1.00
H1240  H     0.28412   0.38861   0.66790   0.00000  Uiso   1.00
H1241  H     0.29176   0.47037   0.83525   0.00000  Uiso   1.00
H1242  H     0.30528   0.42372   0.86413   0.00000  Uiso   1.00
H1243  H     0.01458   0.46123   0.84291   0.00000  Uiso   1.00
H1244  H     0.29918   0.54492   0.95376   0.00000  Uiso   1.00
H1245  H     0.15262   0.42942   0.55298   0.00000  Uiso   1.00
H1246  H     0.05540   0.40550   0.95122   0.00000  Uiso   1.00
H1247  H     0.09993   0.40244   0.89010   0.00000  Uiso   1.00
H1248  H     0.03870   0.39568   0.89211   0.00000  Uiso   1.00
H1249  H     0.06183   0.52895   0.56252   0.00000  Uiso   1.00
H1250  H     0.32861   0.56314   0.56671   0.00000  Uiso   1.00
H1251  H     0.02335   0.47392   0.54457   0.00000  Uiso   1.00
H1252  H     0.19284   0.42608   0.86514   0.00000  Uiso   1.00
H1253  H     0.28587   0.63898   0.77002   0.00000  Uiso   1.00
H1254  H     0.30957   0.65670   0.70522   0.00000  Uiso   1.00
H1255  H     0.31694   0.60500   0.71780   0.00000  Uiso   1.00
H1256  H     0.24156   0.38907   0.78936   0.00000  Uiso   1.00
H1257  H     0.06259   0.36949   0.72520   0.00000  Uiso   1.00
H1258  H     0.02618   0.40370   0.77427   0.00000  Uiso   1.00
H1259  H     0.02343   0.35067   0.78272   0.00000  Uiso   1.00
H1260  H     0.07397   0.62061   0.74713   0.00000  Uiso   1.00
H1261  H     0.26232   0.59483   0.86792   0.00000  Uiso   1.00
N1262  N     0.04931   0.49999   0.74998   0.00000  Uiso   1.00
N1263  N     0.28402   0.50002   0.74999   0.00000  Uiso   1.00
O1264  O     0.12708   0.56011   0.75000   0.00000  Uiso   1.00
O1265  O     0.24968   0.37164   0.75692   0.00000  Uiso   1.00
O1266  O     0.08263   0.37937   0.79548   0.00000  Uiso   1.00
O1267  O     0.08138   0.62887   0.78044   0.00000  Uiso   1.00
O1268  O     0.27421   0.56458   0.79663   0.00000  Uiso   1.00
O1269  O     0.03510   0.56318   0.79954   0.00000  Uiso   1.00
O1270  O     0.06257   0.44693   0.68372   0.00000  Uiso   1.00
O1271  O     0.29634   0.44837   0.68451   0.00000  Uiso   1.00
O1272  O     0.29818   0.47731   0.91132   0.00000  Uiso   1.00
O1273  O     0.29919   0.54322   0.99044   0.00000  Uiso   1.00
O1274  O     0.15919   0.44635   0.58219   0.00000  Uiso   1.00
O1275  O     0.20627   0.56012   0.75000   0.00000  Uiso   1.00
O1276  O     0.05626   0.45516   0.90505   0.00000  Uiso   1.00
O1277  O     0.09494   0.51908   0.55534   0.00000  Uiso   1.00
O1278  O     0.02480   0.47827   0.50807   0.00000  Uiso   1.00
O1279  O     0.22249   0.43935   0.86766   0.00000  Uiso   1.00
O1280  O     0.25020   0.62173   0.71293   0.00000  Uiso   1.00
O1281  O     0.10775   0.49998   0.82549   0.00000  Uiso   1.00
O1282  O     0.18694   0.49999   0.82549   0.00000  Uiso   1.00
O1283  O     0.12706   0.43988   0.74999   0.00000  Uiso   1.00
O1284  O     0.20625   0.43989   0.74999   0.00000  Uiso   1.00
O1285  O     0.14640   0.50001   0.67451   0.00000  Uiso   1.00
O1286  O     0.22559   0.50002   0.67451   0.00000  Uiso   1.00
O1287  O     0.25717   0.55887   0.59727   0.00000  Uiso   1.00
C1288  C     0.49987   0.57921   0.74931   0.00000  Uiso   1.00
C1289  C     0.46463   0.48403   0.90342   0.00000  Uiso   1.00
C1290  C     0.54314   0.64430   0.74012   0.00000  Uiso   1.00
C1291  C     0.47580   0.49434   0.84841   0.00000  Uiso   1.00
C1292  C     0.54251   0.35355   0.75126   0.00000  Uiso   1.00
C1293  C     0.49969   0.37665   0.75985   0.00000  Uiso   1.00
C1294  C     0.45677   0.35680   0.77154   0.00000  Uiso   1.00
C1295  C     0.45691   0.64748   0.76725   0.00000  Uiso   1.00
C1296  C     0.49969   0.62435   0.75042   0.00000  Uiso   1.00
C1297  C     0.63524   0.52988   0.77750   0.00000  Uiso   1.00
C1298  C     0.35109   0.52932   0.77844   0.00000  Uiso   1.00
C1299  C     0.48652   0.48716   0.98513   0.00000  Uiso   1.00
C1300  C     0.36472   0.47213   0.71929   0.00000  Uiso   1.00
C1301  C     0.64783   0.47131   0.72038   0.00000  Uiso   1.00
C1302  C     0.49968   0.42117   0.75385   0.00000  Uiso   1.00
C1303  C     0.52501   0.50137   0.65050   0.00000  Uiso   1.00
C1304  C     0.59446   0.52123   0.51407   0.00000  Uiso   1.00
C1305  C     0.53902   0.50323   0.59378   0.00000  Uiso   1.00
C1306  C     0.41844   0.47625   0.92993   0.00000  Uiso   1.00
C1307  C     0.40443   0.48403   0.98331   0.00000  Uiso   1.00
C1308  C     0.43893   0.49553   0.50971   0.00000  Uiso   1.00
C1309  C     0.63711   0.55245   0.60114   0.00000  Uiso   1.00
C1310  C     0.49962   0.48114   0.93142   0.00000  Uiso   1.00
C1311  C     0.38111   0.37500   0.76752   0.00000  Uiso   1.00
C1312  C     0.58899   0.56483   0.85028   0.00000  Uiso   1.00
C1313  C     0.36535   0.56039   0.85255   0.00000  Uiso   1.00
C1314  C     0.39865   0.46188   0.63497   0.00000  Uiso   1.00
C1315  C     0.64658   0.40748   0.67495   0.00000  Uiso   1.00
C1316  C     0.64381   0.45704   0.86166   0.00000  Uiso   1.00
C1317  C     0.39665   0.41303   0.91013   0.00000  Uiso   1.00
C1318  C     0.62528   0.63174   0.72781   0.00000  Uiso   1.00
C1319  C     0.52214   0.48893   0.51178   0.00000  Uiso   1.00
C1320  C     0.56771   0.49786   0.98532   0.00000  Uiso   1.00
C1321  C     0.58289   0.48186   0.93309   0.00000  Uiso   1.00
C1322  C     0.54666   0.46851   0.90846   0.00000  Uiso   1.00
C1323  C     0.51468   0.48094   0.56367   0.00000  Uiso   1.00
C1324  C     0.57707   0.52663   0.56889   0.00000  Uiso   1.00
Cu1325 Cu    0.45311   0.49999   0.75000   0.00000  Uiso   1.00
Cu1326 Cu    0.54689   0.50001   0.75000   0.00000  Uiso   1.00
H1327  H     0.64487   0.52023   0.60786   0.00000  Uiso   1.00
H1328  H     0.60390   0.54067   0.86935   0.00000  Uiso   1.00
H1329  H     0.55016   0.56250   0.85869   0.00000  Uiso   1.00
H1330  H     0.39974   0.56862   0.86033   0.00000  Uiso   1.00
H1331  H     0.35665   0.52987   0.86710   0.00000  Uiso   1.00
H1332  H     0.33921   0.58350   0.87506   0.00000  Uiso   1.00
H1333  H     0.41026   0.43663   0.60517   0.00000  Uiso   1.00
H1334  H     0.42291   0.48707   0.62983   0.00000  Uiso   1.00
H1335  H     0.36508   0.47401   0.62847   0.00000  Uiso   1.00
H1336  H     0.65886   0.39548   0.70715   0.00000  Uiso   1.00
H1337  H     0.34103   0.40335   0.63874   0.00000  Uiso   1.00
H1338  H     0.64229   0.57134   0.63479   0.00000  Uiso   1.00
H1339  H     0.61746   0.38861   0.66790   0.00000  Uiso   1.00
H1340  H     0.62509   0.47037   0.83525   0.00000  Uiso   1.00
H1341  H     0.63861   0.42372   0.86413   0.00000  Uiso   1.00
H1342  H     0.34792   0.46123   0.84291   0.00000  Uiso   1.00
H1343  H     0.63252   0.54492   0.95376   0.00000  Uiso   1.00
H1344  H     0.48596   0.42942   0.55298   0.00000  Uiso   1.00
H1345  H     0.38874   0.40550   0.95122   0.00000  Uiso   1.00
H1346  H     0.43327   0.40244   0.89010   0.00000  Uiso   1.00
H1347  H     0.37204   0.39568   0.89211   0.00000  Uiso   1.00
H1348  H     0.39516   0.52895   0.56252   0.00000  Uiso   1.00
H1349  H     0.66194   0.56314   0.56671   0.00000  Uiso   1.00
H1350  H     0.35668   0.47392   0.54457   0.00000  Uiso   1.00
H1351  H     0.52617   0.42608   0.86514   0.00000  Uiso   1.00
H1352  H     0.61920   0.63898   0.77002   0.00000  Uiso   1.00
H1353  H     0.64291   0.65670   0.70522   0.00000  Uiso   1.00
H1354  H     0.65028   0.60500   0.71780   0.00000  Uiso   1.00
H1355  H     0.57489   0.38907   0.78936   0.00000  Uiso   1.00
H1356  H     0.39592   0.36949   0.72520   0.00000  Uiso   1.00
H1357  H     0.35952   0.40370   0.77427   0.00000  Uiso   1.00
H1358  H     0.35676   0.35067   0.78272   0.00000  Uiso   1.00
H1359  H     0.40730   0.62061   0.74713   0.00000  Uiso   1.00
H1360  H     0.59565   0.59483   0.86792   0.00000  Uiso   1.00
N1361  N     0.38265   0.49999   0.74998   0.00000  Uiso   1.00
N1362  N     0.61735   0.50002   0.74999   0.00000  Uiso   1.00
O1363  O     0.46042   0.56011   0.75000   0.00000  Uiso   1.00
O1364  O     0.58301   0.37164   0.75692   0.00000  Uiso   1.00
O1365  O     0.41596   0.37937   0.79548   0.00000  Uiso   1.00
O1366  O     0.41471   0.62887   0.78044   0.00000  Uiso   1.00
O1367  O     0.60755   0.56458   0.79663   0.00000  Uiso   1.00
O1368  O     0.36843   0.56318   0.79954   0.00000  Uiso   1.00
O1369  O     0.39590   0.44693   0.68372   0.00000  Uiso   1.00
O1370  O     0.62967   0.44837   0.68451   0.00000  Uiso   1.00
O1371  O     0.63152   0.47731   0.91132   0.00000  Uiso   1.00
O1372  O     0.63252   0.54322   0.99044   0.00000  Uiso   1.00
O1373  O     0.49252   0.44635   0.58219   0.00000  Uiso   1.00
O1374  O     0.53961   0.56012   0.75000   0.00000  Uiso   1.00
O1375  O     0.38960   0.45516   0.90505   0.00000  Uiso   1.00
O1376  O     0.42827   0.51908   0.55534   0.00000  Uiso   1.00
O1377  O     0.35813   0.47827   0.50807   0.00000  Uiso   1.00
O1378  O     0.55583   0.43935   0.86766   0.00000  Uiso   1.00
O1379  O     0.58353   0.62173   0.71293   0.00000  Uiso   1.00
O1380  O     0.44108   0.49998   0.82549   0.00000  Uiso   1.00
O1381  O     0.52027   0.49999   0.82549   0.00000  Uiso   1.00
O1382  O     0.46039   0.43988   0.74999   0.00000  Uiso   1.00
O1383  O     0.53958   0.43989   0.74999   0.00000  Uiso   1.00
O1384  O     0.47973   0.50001   0.67451   0.00000  Uiso   1.00
O1385  O     0.55892   0.50002   0.67451   0.00000  Uiso   1.00
O1386  O     0.59050   0.55887   0.59727   0.00000  Uiso   1.00
C1387  C     0.83320   0.57921   0.74931   0.00000  Uiso   1.00
C1388  C     0.79796   0.48403   0.90342   0.00000  Uiso   1.00
C1389  C     0.87648   0.64430   0.74012   0.00000  Uiso   1.00
C1390  C     0.80914   0.49434   0.84841   0.00000  Uiso   1.00
C1391  C     0.87585   0.35355   0.75126   0.00000  Uiso   1.00
C1392  C     0.83302   0.37665   0.75985   0.00000  Uiso   1.00
C1393  C     0.79010   0.35680   0.77154   0.00000  Uiso   1.00
C1394  C     0.79024   0.64748   0.76725   0.00000  Uiso   1.00
C1395  C     0.83302   0.62435   0.75042   0.00000  Uiso   1.00
C1396  C     0.96857   0.52988   0.77750   0.00000  Uiso   1.00
C1397  C     0.68443   0.52932   0.77844   0.00000  Uiso   1.00
C1398  C     0.81986   0.48716   0.98513   0.00000  Uiso   1.00
C1399  C     0.69805   0.47213   0.71929   0.00000  Uiso   1.00
C1400  C     0.98116   0.47131   0.72038   0.00000  Uiso   1.00
C1401  C     0.83301   0.42117   0.75385   0.00000  Uiso   1.00
C1402  C     0.85834   0.50137   0.65050   0.00000  Uiso   1.00
C1403  C     0.92779   0.52123   0.51407   0.00000  Uiso   1.00
C1404  C     0.87235   0.50323   0.59378   0.00000  Uiso   1.00
C1405  C     0.75178   0.47625   0.92993   0.00000  Uiso   1.00
C1406  C     0.73776   0.48403   0.98331   0.00000  Uiso   1.00
C1407  C     0.77227   0.49553   0.50971   0.00000  Uiso   1.00
C1408  C     0.97045   0.55245   0.60114   0.00000  Uiso   1.00
C1409  C     0.83295   0.48114   0.93142   0.00000  Uiso   1.00
C1410  C     0.71444   0.37500   0.76752   0.00000  Uiso   1.00
C1411  C     0.92232   0.56483   0.85028   0.00000  Uiso   1.00
C1412  C     0.69868   0.56039   0.85255   0.00000  Uiso   1.00
C1413  C     0.73198   0.46188   0.63497   0.00000  Uiso   1.00
C1414  C     0.97992   0.40748   0.67495   0.00000  Uiso   1.00
C1415  C     0.97714   0.45704   0.86166   0.00000  Uiso   1.00
C1416  C     0.72999   0.41303   0.91013   0.00000  Uiso   1.00
C1417  C     0.95861   0.63174   0.72781   0.00000  Uiso   1.00
C1418  C     0.85547   0.48893   0.51178   0.00000  Uiso   1.00
C1419  C     0.90104   0.49786   0.98532   0.00000  Uiso   1.00
C1420  C     0.91622   0.48186   0.93309   0.00000  Uiso   1.00
C1421  C     0.88000   0.46851   0.90846   0.00000  Uiso   1.00
C1422  C     0.84801   0.48094   0.56367   0.00000  Uiso   1.00
C1423  C     0.91041   0.52663   0.56889   0.00000  Uiso   1.00
Cu1424 Cu    0.78645   0.49999   0.75000   0.00000  Uiso   1.00
Cu1425 Cu    0.88022   0.50001   0.75000   0.00000  Uiso   1.00
H1426  H     0.97820   0.52023   0.60786   0.00000  Uiso   1.00
H1427  H     0.93723   0.54067   0.86935   0.00000  Uiso   1.00
H1428  H     0.88349   0.56250   0.85869   0.00000  Uiso   1.00
H1429  H     0.73307   0.56862   0.86033   0.00000  Uiso   1.00
H1430  H     0.68999   0.52987   0.86710   0.00000  Uiso   1.00
H1431  H     0.67255   0.58350   0.87506   0.00000  Uiso   1.00
H1432  H     0.74360   0.43663   0.60517   0.00000  Uiso   1.00
H1433  H     0.75624   0.48707   0.62983   0.00000  Uiso   1.00
H1434  H     0.69841   0.47401   0.62847   0.00000  Uiso   1.00
H1435  H     0.99219   0.39548   0.70715   0.00000  Uiso   1.00
H1436  H     0.67436   0.40335   0.63874   0.00000  Uiso   1.00
H1437  H     0.97562   0.57134   0.63479   0.00000  Uiso   1.00
H1438  H     0.95079   0.38861   0.66790   0.00000  Uiso   1.00
H1439  H     0.95843   0.47037   0.83525   0.00000  Uiso   1.00
H1440  H     0.97194   0.42372   0.86413   0.00000  Uiso   1.00
H1441  H     0.68125   0.46123   0.84291   0.00000  Uiso   1.00
H1442  H     0.96585   0.54492   0.95376   0.00000  Uiso   1.00
H1443  H     0.81929   0.42942   0.55298   0.00000  Uiso   1.00
H1444  H     0.72207   0.40550   0.95122   0.00000  Uiso   1.00
H1445  H     0.76660   0.40244   0.89010   0.00000  Uiso   1.00
H1446  H     0.70537   0.39568   0.89211   0.00000  Uiso   1.00
H1447  H     0.72850   0.52895   0.56252   0.00000  Uiso   1.00
H1448  H     0.99528   0.56314   0.56671   0.00000  Uiso   1.00
H1449  H     0.69002   0.47392   0.54457   0.00000  Uiso   1.00
H1450  H     0.85950   0.42608   0.86514   0.00000  Uiso   1.00
H1451  H     0.95254   0.63898   0.77002   0.00000  Uiso   1.00
H1452  H     0.97624   0.65670   0.70522   0.00000  Uiso   1.00
H1453  H     0.98361   0.60500   0.71780   0.00000  Uiso   1.00
H1454  H     0.90822   0.38907   0.78936   0.00000  Uiso   1.00
H1455  H     0.72926   0.36949   0.72520   0.00000  Uiso   1.00
H1456  H     0.69285   0.40370   0.77427   0.00000  Uiso   1.00
H1457  H     0.69010   0.35067   0.78272   0.00000  Uiso   1.00
H1458  H     0.74063   0.62061   0.74713   0.00000  Uiso   1.00
H1459  H     0.92898   0.59483   0.86792   0.00000  Uiso   1.00
N1460  N     0.71598   0.49999   0.74998   0.00000  Uiso   1.00
N1461  N     0.95069   0.50002   0.74999   0.00000  Uiso   1.00
O1462  O     0.79375   0.56011   0.75000   0.00000  Uiso   1.00
O1463  O     0.91634   0.37164   0.75692   0.00000  Uiso   1.00
O1464  O     0.74930   0.37937   0.79548   0.00000  Uiso   1.00
O1465  O     0.74805   0.62887   0.78044   0.00000  Uiso   1.00
O1466  O     0.94088   0.56458   0.79663   0.00000  Uiso   1.00
O1467  O     0.70176   0.56318   0.79954   0.00000  Uiso   1.00
O1468  O     0.72923   0.44693   0.68372   0.00000  Uiso   1.00
O1469  O     0.96301   0.44837   0.68451   0.00000  Uiso   1.00
O1470  O     0.96485   0.47731   0.91132   0.00000  Uiso   1.00
O1471  O     0.96586   0.54322   0.99044   0.00000  Uiso   1.00
O1472  O     0.82585   0.44635   0.58219   0.00000  Uiso   1.00
O1473  O     0.87294   0.56012   0.75000   0.00000  Uiso   1.00
O1474  O     0.72293   0.45516   0.90505   0.00000  Uiso   1.00
O1475  O     0.76161   0.51908   0.55534   0.00000  Uiso   1.00
O1476  O     0.69147   0.47827   0.50807   0.00000  Uiso   1.00
O1477  O     0.88916   0.43935   0.86766   0.00000  Uiso   1.00
O1478  O     0.91686   0.62173   0.71293   0.00000  Uiso   1.00
O1479  O     0.77441   0.49998   0.82549   0.00000  Uiso   1.00
O1480  O     0.85360   0.49999   0.82549   0.00000  Uiso   1.00
O1481  O     0.79373   0.43988   0.74999   0.00000  Uiso   1.00
O1482  O     0.87292   0.43989   0.74999   0.00000  Uiso   1.00
O1483  O     0.81306   0.50001   0.67451   0.00000  Uiso   1.00
O1484  O     0.89225   0.50002   0.67451   0.00000  Uiso   1.00
O1485  O     0.92384   0.55887   0.59727   0.00000  Uiso   1.00
C1486  C     0.16653   0.91254   0.74931   0.00000  Uiso   1.00
C1487  C     0.13130   0.81737   0.90342   0.00000  Uiso   1.00
C1488  C     0.20981   0.97763   0.74012   0.00000  Uiso   1.00
C1489  C     0.14247   0.82768   0.84841   0.00000  Uiso   1.00
C1490  C     0.20918   0.68688   0.75126   0.00000  Uiso   1.00
C1491  C     0.16635   0.70998   0.75985   0.00000  Uiso   1.00
C1492  C     0.12344   0.69013   0.77154   0.00000  Uiso   1.00
C1493  C     0.12358   0.98081   0.76725   0.00000  Uiso   1.00
C1494  C     0.16636   0.95768   0.75042   0.00000  Uiso   1.00
C1495  C     0.30191   0.86322   0.77750   0.00000  Uiso   1.00
C1496  C     0.01776   0.86265   0.77844   0.00000  Uiso   1.00
C1497  C     0.15319   0.82049   0.98513   0.00000  Uiso   1.00
C1498  C     0.03139   0.80546   0.71929   0.00000  Uiso   1.00
C1499  C     0.31450   0.80465   0.72038   0.00000  Uiso   1.00
C1500  C     0.16635   0.75450   0.75385   0.00000  Uiso   1.00
C1501  C     0.19167   0.83470   0.65050   0.00000  Uiso   1.00
C1502  C     0.26113   0.85456   0.51407   0.00000  Uiso   1.00
C1503  C     0.20568   0.83656   0.59378   0.00000  Uiso   1.00
C1504  C     0.08511   0.80959   0.92993   0.00000  Uiso   1.00
C1505  C     0.07110   0.81737   0.98331   0.00000  Uiso   1.00
C1506  C     0.10560   0.82886   0.50971   0.00000  Uiso   1.00
C1507  C     0.30378   0.88578   0.60114   0.00000  Uiso   1.00
C1508  C     0.16629   0.81448   0.93142   0.00000  Uiso   1.00
C1509  C     0.04778   0.70833   0.76752   0.00000  Uiso   1.00
C1510  C     0.25565   0.89817   0.85028   0.00000  Uiso   1.00
C1511  C     0.03202   0.89373   0.85255   0.00000  Uiso   1.00
C1512  C     0.06531   0.79521   0.63497   0.00000  Uiso   1.00
C1513  C     0.31325   0.74081   0.67495   0.00000  Uiso   1.00
C1514  C     0.31048   0.79037   0.86166   0.00000  Uiso   1.00
C1515  C     0.06332   0.74636   0.91013   0.00000  Uiso   1.00
C1516  C     0.29195   0.96508   0.72781   0.00000  Uiso   1.00
C1517  C     0.18880   0.82226   0.51178   0.00000  Uiso   1.00
C1518  C     0.23438   0.83119   0.98532   0.00000  Uiso   1.00
C1519  C     0.24955   0.81519   0.93309   0.00000  Uiso   1.00
C1520  C     0.21333   0.80185   0.90846   0.00000  Uiso   1.00
C1521  C     0.18134   0.81427   0.56367   0.00000  Uiso   1.00
C1522  C     0.24374   0.85996   0.56889   0.00000  Uiso   1.00
Cu1523 Cu    0.11978   0.83333   0.75000   0.00000  Uiso   1.00
Cu1524 Cu    0.21355   0.83334   0.75000   0.00000  Uiso   1.00
H1525  H     0.31153   0.85356   0.60786   0.00000  Uiso   1.00
H1526  H     0.27057   0.87400   0.86935   0.00000  Uiso   1.00
H1527  H     0.21683   0.89583   0.85869   0.00000  Uiso   1.00
H1528  H     0.06640   0.90195   0.86033   0.00000  Uiso   1.00
H1529  H     0.02332   0.86320   0.86710   0.00000  Uiso   1.00
H1530  H     0.00588   0.91684   0.87506   0.00000  Uiso   1.00
H1531  H     0.07693   0.76997   0.60517   0.00000  Uiso   1.00
H1532  H     0.08958   0.82040   0.62983   0.00000  Uiso   1.00
H1533  H     0.03174   0.80735   0.62847   0.00000  Uiso   1.00
H1534  H     0.32552   0.72881   0.70715   0.00000  Uiso   1.00
H1535  H     0.00770   0.73668   0.63874   0.00000  Uiso   1.00
H1536  H     0.30896   0.90467   0.63479   0.00000  Uiso   1.00
H1537  H     0.28412   0.72194   0.66790   0.00000  Uiso   1.00
H1538  H     0.29176   0.80370   0.83525   0.00000  Uiso   1.00
H1539  H     0.30528   0.75705   0.86413   0.00000  Uiso   1.00
H1540  H     0.01458   0.79456   0.84291   0.00000  Uiso   1.00
H1541  H     0.29918   0.87825   0.95376   0.00000  Uiso   1.00
H1542  H     0.15262   0.76276   0.55298   0.00000  Uiso   1.00
H1543  H     0.05540   0.73883   0.95122   0.00000  Uiso   1.00
H1544  H     0.09993   0.73577   0.89010   0.00000  Uiso   1.00
H1545  H     0.03870   0.72901   0.89211   0.00000  Uiso   1.00
H1546  H     0.06183   0.86228   0.56252   0.00000  Uiso   1.00
H1547  H     0.32861   0.89648   0.56671   0.00000  Uiso   1.00
H1548  H     0.02335   0.80726   0.54457   0.00000  Uiso   1.00
H1549  H     0.19284   0.75942   0.86514   0.00000  Uiso   1.00
H1550  H     0.28587   0.97231   0.77002   0.00000  Uiso   1.00
H1551  H     0.30957   0.99004   0.70522   0.00000  Uiso   1.00
H1552  H     0.31694   0.93834   0.71780   0.00000  Uiso   1.00
H1553  H     0.24156   0.72241   0.78936   0.00000  Uiso   1.00
H1554  H     0.06259   0.70282   0.72520   0.00000  Uiso   1.00
H1555  H     0.02618   0.73703   0.77427   0.00000  Uiso   1.00
H1556  H     0.02343   0.68401   0.78272   0.00000  Uiso   1.00
H1557  H     0.07397   0.95394   0.74713   0.00000  Uiso   1.00
H1558  H     0.26232   0.92817   0.86792   0.00000  Uiso   1.00
N1559  N     0.04931   0.83332   0.74998   0.00000  Uiso   1.00
N1560  N     0.28402   0.83335   0.74999   0.00000  Uiso   1.00
O1561  O     0.12708   0.89345   0.75000   0.00000  Uiso   1.00
O1562  O     0.24968   0.70498   0.75692   0.00000  Uiso   1.00
O1563  O     0.08263   0.71271   0.79548   0.00000  Uiso   1.00
O1564  O     0.08138   0.96220   0.78044   0.00000  Uiso   1.00
O1565  O     0.27421   0.89791   0.79663   0.00000  Uiso   1.00
O1566  O     0.03510   0.89651   0.79954   0.00000  Uiso   1.00
O1567  O     0.06257   0.78026   0.68372   0.00000  Uiso   1.00
O1568  O     0.29634   0.78170   0.68451   0.00000  Uiso   1.00
O1569  O     0.29818   0.81064   0.91132   0.00000  Uiso   1.00
O1570  O     0.29919   0.87656   0.99044   0.00000  Uiso   1.00
O1571  O     0.15919   0.77969   0.58219   0.00000  Uiso   1.00
O1572  O     0.20627   0.89346   0.75000   0.00000  Uiso   1.00
O1573  O     0.05626   0.78850   0.90505   0.00000  Uiso   1.00
O1574  O     0.09494   0.85241   0.55534   0.00000  Uiso   1.00
O1575  O     0.02480   0.81160   0.50807   0.00000  Uiso   1.00
O1576  O     0.22249   0.77268   0.86766   0.00000  Uiso   1.00
O1577  O     0.25020   0.95506   0.71293   0.00000  Uiso   1.00
O1578  O     0.10775   0.83332   0.82549   0.00000  Uiso   1.00
O1579  O     0.18694   0.83333   0.82549   0.00000  Uiso   1.00
O1580  O     0.12706   0.77321   0.74999   0.00000  Uiso   1.00
O1581  O     0.20625   0.77322   0.74999   0.00000  Uiso   1.00
O1582  O     0.14640   0.83334   0.67451   0.00000  Uiso   1.00
O1583  O     0.22559   0.83335   0.67451   0.00000  Uiso   1.00
O1584  O     0.25717   0.89220   0.59727   0.00000  Uiso   1.00
C1585  C     0.49987   0.91254   0.74931   0.00000  Uiso   1.00
C1586  C     0.46463   0.81737   0.90342   0.00000  Uiso   1.00
C1587  C     0.54314   0.97763   0.74012   0.00000  Uiso   1.00
C1588  C     0.47580   0.82768   0.84841   0.00000  Uiso   1.00
C1589  C     0.54251   0.68688   0.75126   0.00000  Uiso   1.00
C1590  C     0.49969   0.70998   0.75985   0.00000  Uiso   1.00
C1591  C     0.45677   0.69013   0.77154   0.00000  Uiso   1.00
C1592  C     0.45691   0.98081   0.76725   0.00000  Uiso   1.00
C1593  C     0.49969   0.95768   0.75042   0.00000  Uiso   1.00
C1594  C     0.63524   0.86322   0.77750   0.00000  Uiso   1.00
C1595  C     0.35109   0.86265   0.77844   0.00000  Uiso   1.00
C1596  C     0.48652   0.82049   0.98513   0.00000  Uiso   1.00
C1597  C     0.36472   0.80546   0.71929   0.00000  Uiso   1.00
C1598  C     0.64783   0.80465   0.72038   0.00000  Uiso   1.00
C1599  C     0.49968   0.75450   0.75385   0.00000  Uiso   1.00
C1600  C     0.52501   0.83470   0.65050   0.00000  Uiso   1.00
C1601  C     0.59446   0.85456   0.51407   0.00000  Uiso   1.00
C1602  C     0.53902   0.83656   0.59378   0.00000  Uiso   1.00
C1603  C     0.41844   0.80959   0.92993   0.00000  Uiso   1.00
C1604  C     0.40443   0.81737   0.98331   0.00000  Uiso   1.00
C1605  C     0.43893   0.82886   0.50971   0.00000  Uiso   1.00
C1606  C     0.63711   0.88578   0.60114   0.00000  Uiso   1.00
C1607  C     0.49962   0.81448   0.93142   0.00000  Uiso   1.00
C1608  C     0.38111   0.70833   0.76752   0.00000  Uiso   1.00
C1609  C     0.58899   0.89817   0.85028   0.00000  Uiso   1.00
C1610  C     0.36535   0.89373   0.85255   0.00000  Uiso   1.00
C1611  C     0.39865   0.79521   0.63497   0.00000  Uiso   1.00
C1612  C     0.64658   0.74081   0.67495   0.00000  Uiso   1.00
C1613  C     0.64381   0.79037   0.86166   0.00000  Uiso   1.00
C1614  C     0.39665   0.74636   0.91013   0.00000  Uiso   1.00
C1615  C     0.62528   0.96508   0.72781   0.00000  Uiso   1.00
C1616  C     0.52214   0.82226   0.51178   0.00000  Uiso   1.00
C1617  C     0.56771   0.83119   0.98532   0.00000  Uiso   1.00
C1618  C     0.58289   0.81519   0.93309   0.00000  Uiso   1.00
C1619  C     0.54666   0.80185   0.90846   0.00000  Uiso   1.00
C1620  C     0.51468   0.81427   0.56367   0.00000  Uiso   1.00
C1621  C     0.57707   0.85996   0.56889   0.00000  Uiso   1.00
Cu1622 Cu    0.45311   0.83333   0.75000   0.00000  Uiso   1.00
Cu1623 Cu    0.54689   0.83334   0.75000   0.00000  Uiso   1.00
H1624  H     0.64487   0.85356   0.60786   0.00000  Uiso   1.00
H1625  H     0.60390   0.87400   0.86935   0.00000  Uiso   1.00
H1626  H     0.55016   0.89583   0.85869   0.00000  Uiso   1.00
H1627  H     0.39974   0.90195   0.86033   0.00000  Uiso   1.00
H1628  H     0.35665   0.86320   0.86710   0.00000  Uiso   1.00
H1629  H     0.33921   0.91684   0.87506   0.00000  Uiso   1.00
H1630  H     0.41026   0.76997   0.60517   0.00000  Uiso   1.00
H1631  H     0.42291   0.82040   0.62983   0.00000  Uiso   1.00
H1632  H     0.36508   0.80735   0.62847   0.00000  Uiso   1.00
H1633  H     0.65886   0.72881   0.70715   0.00000  Uiso   1.00
H1634  H     0.34103   0.73668   0.63874   0.00000  Uiso   1.00
H1635  H     0.64229   0.90467   0.63479   0.00000  Uiso   1.00
H1636  H     0.61746   0.72194   0.66790   0.00000  Uiso   1.00
H1637  H     0.62509   0.80370   0.83525   0.00000  Uiso   1.00
H1638  H     0.63861   0.75705   0.86413   0.00000  Uiso   1.00
H1639  H     0.34792   0.79456   0.84291   0.00000  Uiso   1.00
H1640  H     0.63252   0.87825   0.95376   0.00000  Uiso   1.00
H1641  H     0.48596   0.76276   0.55298   0.00000  Uiso   1.00
H1642  H     0.38874   0.73883   0.95122   0.00000  Uiso   1.00
H1643  H     0.43327   0.73577   0.89010   0.00000  Uiso   1.00
H1644  H     0.37204   0.72901   0.89211   0.00000  Uiso   1.00
H1645  H     0.39516   0.86228   0.56252   0.00000  Uiso   1.00
H1646  H     0.66194   0.89648   0.56671   0.00000  Uiso   1.00
H1647  H     0.35668   0.80726   0.54457   0.00000  Uiso   1.00
H1648  H     0.52617   0.75942   0.86514   0.00000  Uiso   1.00
H1649  H     0.61920   0.97231   0.77002   0.00000  Uiso   1.00
H1650  H     0.64291   0.99004   0.70522   0.00000  Uiso   1.00
H1651  H     0.65028   0.93834   0.71780   0.00000  Uiso   1.00
H1652  H     0.57489   0.72241   0.78936   0.00000  Uiso   1.00
H1653  H     0.39592   0.70282   0.72520   0.00000  Uiso   1.00
H1654  H     0.35952   0.73703   0.77427   0.00000  Uiso   1.00
H1655  H     0.35676   0.68401   0.78272   0.00000  Uiso   1.00
H1656  H     0.40730   0.95394   0.74713   0.00000  Uiso   1.00
H1657  H     0.59565   0.92817   0.86792   0.00000  Uiso   1.00
N1658  N     0.38265   0.83332   0.74998   0.00000  Uiso   1.00
N1659  N     0.61735   0.83335   0.74999   0.00000  Uiso   1.00
O1660  O     0.46042   0.89345   0.75000   0.00000  Uiso   1.00
O1661  O     0.58301   0.70498   0.75692   0.00000  Uiso   1.00
O1662  O     0.41596   0.71271   0.79548   0.00000  Uiso   1.00
O1663  O     0.41471   0.96220   0.78044   0.00000  Uiso   1.00
O1664  O     0.60755   0.89791   0.79663   0.00000  Uiso   1.00
O1665  O     0.36843   0.89651   0.79954   0.00000  Uiso   1.00
O1666  O     0.39590   0.78026   0.68372   0.00000  Uiso   1.00
O1667  O     0.62967   0.78170   0.68451   0.00000  Uiso   1.00
O1668  O     0.63152   0.81064   0.91132   0.00000  Uiso   1.00
O1669  O     0.63252   0.87656   0.99044   0.00000  Uiso   1.00
O1670  O     0.49252   0.77969   0.58219   0.00000  Uiso   1.00
O1671  O     0.53961   0.89346   0.75000   0.00000  Uiso   1.00
O1672  O     0.38960   0.78850   0.90505   0.00000  Uiso   1.00
O1673  O     0.42827   0.85241   0.55534   0.00000  Uiso   1.00
O1674  O     0.35813   0.81160   0.50807   0.00000  Uiso   1.00
O1675  O     0.55583   0.77268   0.86766   0.00000  Uiso   1.00
O1676  O     0.58353   0.95506   0.71293   0.00000  Uiso   1.00
O1677  O     0.44108   0.83332   0.82549   0.00000  Uiso   1.00
O1678  O     0.52027   0.83333   0.82549   0.00000  Uiso   1.00
O1679  O     0.46039   0.77321   0.74999   0.00000  Uiso   1.00
O1680  O     0.53958   0.77322   0.74999   0.00000  Uiso   1.00
O1681  O     0.47973   0.83334   0.67451   0.00000  Uiso   1.00
O1682  O     0.55892   0.83335   0.67451   0.00000  Uiso   1.00
O1683  O     0.59050   0.89220   0.59727   0.00000  Uiso   1.00
C1684  C     0.83320   0.91254   0.74931   0.00000  Uiso   1.00
C1685  C     0.79796   0.81737   0.90342   0.00000  Uiso   1.00
C1686  C     0.87648   0.97763   0.74012   0.00000  Uiso   1.00
C1687  C     0.80914   0.82768   0.84841   0.00000  Uiso   1.00
C1688  C     0.87585   0.68688   0.75126   0.00000  Uiso   1.00
C1689  C     0.83302   0.70998   0.75985   0.00000  Uiso   1.00
C1690  C     0.79010   0.69013   0.77154   0.00000  Uiso   1.00
C1691  C     0.79024   0.98081   0.76725   0.00000  Uiso   1.00
C1692  C     0.83302   0.95768   0.75042   0.00000  Uiso   1.00
C1693  C     0.96857   0.86322   0.77750   0.00000  Uiso   1.00
C1694  C     0.68443   0.86265   0.77844   0.00000  Uiso   1.00
C1695  C     0.81986   0.82049   0.98513   0.00000  Uiso   1.00
C1696  C     0.69805   0.80546   0.71929   0.00000  Uiso   1.00
C1697  C     0.98116   0.80465   0.72038   0.00000  Uiso   1.00
C1698  C     0.83301   0.75450   0.75385   0.00000  Uiso   1.00
C1699  C     0.85834   0.83470   0.65050   0.00000  Uiso   1.00
C1700  C     0.92779   0.85456   0.51407   0.00000  Uiso   1.00
C1701  C     0.87235   0.83656   0.59378   0.00000  Uiso   1.00
C1702  C     0.75178   0.80959   0.92993   0.00000  Uiso   1.00
C1703  C     0.73776   0.81737   0.98331   0.00000  Uiso   1.00
C1704  C     0.77227   0.82886   0.50971   0.00000  Uiso   1.00
C1705  C     0.97045   0.88578   0.60114   0.00000  Uiso   1.00
C1706  C     0.83295   0.81448   0.93142   0.00000  Uiso   1.00
C1707  C     0.71444   0.70833   0.76752   0.00000  Uiso   1.00
C1708  C     0.92232   0.89817   0.85028   0.00000  Uiso   1.00
C1709  C     0.69868   0.89373   0.85255   0.00000  Uiso   1.00
C1710  C     0.73198   0.79521   0.63497   0.00000  Uiso   1.00
C1711  C     0.97992   0.74081   0.67495   0.00000  Uiso   1.00
C1712  C     0.97714   0.79037   0.86166   0.00000  Uiso   1.00
C1713  C     0.72999   0.74636   0.91013   0.00000  Uiso   1.00
C1714  C     0.95861   0.96508   0.72781   0.00000  Uiso   1.00
C1715  C     0.85547   0.82226   0.51178   0.00000  Uiso   1.00
C1716  C     0.90104   0.83119   0.98532   0.00000  Uiso   1.00
C1717  C     0.91622   0.81519   0.93309   0.00000  Uiso   1.00
C1718  C     0.88000   0.80185   0.90846   0.00000  Uiso   1.00
C1719  C     0.84801   0.81427   0.56367   0.00000  Uiso   1.00
C1720  C     0.91041   0.85996   0.56889   0.00000  Uiso   1.00
Cu1721 Cu    0.78645   0.83333   0.75000   0.00000  Uiso   1.00
Cu1722 Cu    0.88022   0.83334   0.75000   0.00000  Uiso   1.00
H1723  H     0.97820   0.85356   0.60786   0.00000  Uiso   1.00
H1724  H     0.93723   0.87400   0.86935   0.00000  Uiso   1.00
H1725  H     0.88349   0.89583   0.85869   0.00000  Uiso   1.00
H1726  H     0.73307   0.90195   0.86033   0.00000  Uiso   1.00
H1727  H     0.68999   0.86320   0.86710   0.00000  Uiso   1.00
H1728  H     0.67255   0.91684   0.87506   0.00000  Uiso   1.00
H1729  H     0.74360   0.76997   0.60517   0.00000  Uiso   1.00
H1730  H     0.75624   0.82040   0.62983   0.00000  Uiso   1.00
H1731  H     0.69841   0.80735   0.62847   0.00000  Uiso   1.00
H1732  H     0.99219   0.72881   0.70715   0.00000  Uiso   1.00
H1733  H     0.67436   0.73668   0.63874   0.00000  Uiso   1.00
H1734  H     0.97562   0.90467   0.63479   0.00000  Uiso   1.00
H1735  H     0.95079   0.72194   0.66790   0.00000  Uiso   1.00
H1736  H     0.95843   0.80370   0.83525   0.00000  Uiso   1.00
H1737  H     0.97194   0.75705   0.86413   0.00000  Uiso   1.00
H1738  H     0.68125   0.79456   0.84291   0.00000  Uiso   1.00
H1739  H     0.96585   0.87825   0.95376   0.00000  Uiso   1.00
H1740  H     0.81929   0.76276   0.55298   0.00000  Uiso   1.00
H1741  H     0.72207   0.73883   0.95122   0.00000  Uiso   1.00
H1742  H     0.76660   0.73577   0.89010   0.00000  Uiso   1.00
H1743  H     0.70537   0.72901   0.89211   0.00000  Uiso   1.00
H1744  H     0.72850   0.86228   0.56252   0.00000  Uiso   1.00
H1745  H     0.99528   0.89648   0.56671   0.00000  Uiso   1.00
H1746  H     0.69002   0.80726   0.54457   0.00000  Uiso   1.00
H1747  H     0.85950   0.75942   0.86514   0.00000  Uiso   1.00
H1748  H     0.95254   0.97231   0.77002   0.00000  Uiso   1.00
H1749  H     0.97624   0.99004   0.70522   0.00000  Uiso   1.00
H1750  H     0.98361   0.93834   0.71780   0.00000  Uiso   1.00
H1751  H     0.90822   0.72241   0.78936   0.00000  Uiso   1.00
H1752  H     0.72926   0.70282   0.72520   0.00000  Uiso   1.00
H1753  H     0.69285   0.73703   0.77427   0.00000  Uiso   1.00
H1754  H     0.69010   0.68401   0.78272   0.00000  Uiso   1.00
H1755  H     0.74063   0.95394   0.74713   0.00000  Uiso   1.00
H1756  H     0.92898   0.92817   0.86792   0.00000  Uiso   1.00
N1757  N     0.71598   0.83332   0.74998   0.00000  Uiso   1.00
N1758  N     0.95069   0.83335   0.74999   0.00000  Uiso   1.00
O1759  O     0.79375   0.89345   0.75000   0.00000  Uiso   1.00
O1760  O     0.91634   0.70498   0.75692   0.00000  Uiso   1.00
O1761  O     0.74930   0.71271   0.79548   0.00000  Uiso   1.00
O1762  O     0.74805   0.96220   0.78044   0.00000  Uiso   1.00
O1763  O     0.94088   0.89791   0.79663   0.00000  Uiso   1.00
O1764  O     0.70176   0.89651   0.79954   0.00000  Uiso   1.00
O1765  O     0.72923   0.78026   0.68372   0.00000  Uiso   1.00
O1766  O     0.96301   0.78170   0.68451   0.00000  Uiso   1.00
O1767  O     0.96485   0.81064   0.91132   0.00000  Uiso   1.00
O1768  O     0.96586   0.87656   0.99044   0.00000  Uiso   1.00
O1769  O     0.82585   0.77969   0.58219   0.00000  Uiso   1.00
O1770  O     0.87294   0.89346   0.75000   0.00000  Uiso   1.00
O1771  O     0.72293   0.78850   0.90505   0.00000  Uiso   1.00
O1772  O     0.76161   0.85241   0.55534   0.00000  Uiso   1.00
O1773  O     0.69147   0.81160   0.50807   0.00000  Uiso   1.00
O1774  O     0.88916   0.77268   0.86766   0.00000  Uiso   1.00
O1775  O     0.91686   0.95506   0.71293   0.00000  Uiso   1.00
O1776  O     0.77441   0.83332   0.82549   0.00000  Uiso   1.00
O1777  O     0.85360   0.83333   0.82549   0.00000  Uiso   1.00
O1778  O     0.79373   0.77321   0.74999   0.00000  Uiso   1.00
O1779  O     0.87292   0.77322   0.74999   0.00000  Uiso   1.00
O1780  O     0.81306   0.83334   0.67451   0.00000  Uiso   1.00
O1781  O     0.89225   0.83335   0.67451   0.00000  Uiso   1.00
O1782  O     0.92384   0.89220   0.59727   0.00000  Uiso   1.00
loop_
_geom_bond_atom_site_label_1
_geom_bond_atom_site_label_2
_geom_bond_distance
_geom_bond_site_symmetry_2
_ccdc_geom_bond_type
C1     O87     1.313   .     A
C1     C9      1.480   .     S
C1     O76     1.319   .     A
C2     C4      1.492   .     S
C2     C19     1.401   .     A
C2     C23     1.412   .     A
C3     O92     1.400   .     S
C3     C9      1.414   .     A
C3     C302    1.411   .     S
C4     O94     1.318   .     A
C4     O93     1.322   .     A
C5     O77     1.370   .     S
C5     C6      1.413   .     A
C5     C597    1.411   1_545 S
C6     C15     1.479   .     S
C6     C7      1.400   .     A
C7     O78     1.387   .     S
C7     C602    1.398   1_545 S
C8     C9      1.412   .     A
C8     O79     1.364   .     S
C8     C304    1.398   .     S
C10    N75     1.378   .     A
C10    O80     1.382   .     S
C10    C110    1.443   .     S
C11    O81     1.378   .     S
C11    N74     1.378   .     A
C11    C208    1.443   1_455 S
C12    C23     1.399   .     A
C12    C912    1.401   .     S
C12    C923    1.398   .     S
C13    O82     1.372   .     S
C13    N74     1.388   .     A
C13    C212    1.461   1_455 S
C14    O83     1.397   .     S
C14    N75     1.360   .     A
C14    C112    1.461   .     S
C15    O95     1.320   .     A
C15    O96     1.313   .     A
C16    O97     1.327   .     A
C16    O98     1.307   .     A
C16    C18     1.482   .     S
C17    C37     1.434   .     A
C17    C924    1.428   1_554 S
C17    O976    1.379   1_554 S
C18    C37     1.416   .     A
C18    C36     1.386   .     A
C19    C20     1.397   .     A
C19    O88     1.369   .     S
C20    C912    1.410   .     S
C20    O981    1.377   .     S
C21    O89     1.374   .     S
C21    C903    1.401   1_554 S
C21    C911    1.410   1_554 S
C22    H62     1.107   .     S
C22    H40     1.111   .     S
C22    O99     1.403   .     S
C22    H51     1.107   .     S
C23    C35     1.407   .     A
C24    H69     1.115   .     S
C24    H70     1.105   .     S
C24    O78     1.407   .     S
C24    H71     1.109   .     S
C25    O80     1.409   .     S
C25    H41     1.106   .     S
C25    H42     1.107   .     S
C25    H73     1.109   .     S
C26    H44     1.108   .     S
C26    H45     1.107   .     S
C26    H43     1.109   .     S
C26    O81     1.411   .     S
C27    H48     1.107   .     S
C27    H46     1.105   .     S
C27    H47     1.093   .     S
C27    O82     1.408   .     S
C28    O83     1.409   .     S
C28    H49     1.101   .     S
C28    H52     1.108   .     S
C28    H149    1.104   .     S
C29    H54     1.111   .     S
C29    O84     1.415   .     S
C29    H53     1.098   .     S
C29    H154    1.103   .     S
C30    H60     1.107   .     S
C30    H59     1.113   .     S
C30    O88     1.414   .     S
C30    H58     1.113   .     S
C31    H66     1.108   .     S
C31    H67     1.109   .     S
C31    H65     1.113   .     S
C31    O92     1.411   .     S
C32    C36     1.397   .     A
C32    C903    1.398   1_554 S
C32    C924    1.394   1_554 S
C33    C34     1.428   .     A
C33    C908    1.428   .     S
C33    C923    1.394   .     S
C34    O84     1.401   .     S
C34    C35     1.438   .     A
C35    O91     1.383   .     S
C36    O86     1.376   .     S
C37    O99     1.386   .     S
Cu38   O76     1.989   .     S
Cu38   Cu39    2.739   .     S
Cu38   O95     1.981   .     S
Cu38   O97     1.986   .     S
Cu38   N74     2.058   .     S
Cu38   O93     1.969   .     S
Cu39   O87     1.981   .     S
Cu39   N75     2.058   .     S
Cu39   O98     1.969   .     S
Cu39   O94     1.986   .     S
Cu39   O96     1.989   .     S
H50    C226    1.104   1_455 S
H55    C227    1.103   1_455 S
H56    O85     0.989   .     S
H57    O86     0.993   .     S
H61    O89     0.984   .     S
H63    O90     0.988   .     S
H64    O91     0.992   .     S
H68    O77     0.989   .     S
H72    O79     0.993   .     S
O85    C908    1.379   .     S
O90    C911    1.377   1_554 S
C100   O186    1.313   .     A
C100   C108    1.480   .     S
C100   O175    1.319   .     A
C101   C103    1.492   .     S
C101   C118    1.401   .     A
C101   C122    1.412   .     A
C102   O191    1.400   .     S
C102   C108    1.414   .     A
C102   C401    1.411   .     S
C103   O193    1.318   .     A
C103   O192    1.322   .     A
C104   O176    1.370   .     S
C104   C105    1.413   .     A
C104   C696    1.411   1_545 S
C105   C114    1.479   .     S
C105   C106    1.400   .     A
C106   O177    1.387   .     S
C106   C701    1.398   1_545 S
C107   C108    1.412   .     A
C107   O178    1.364   .     S
C107   C403    1.398   .     S
C109   N174    1.378   .     A
C109   O179    1.382   .     S
C109   C209    1.443   .     S
C110   O180    1.378   .     S
C110   N173    1.378   .     A
C111   C122    1.399   .     A
C111   C1011   1.401   .     S
C111   C1022   1.398   .     S
C112   O181    1.372   .     S
C112   N173    1.388   .     A
C113   O182    1.397   .     S
C113   N174    1.360   .     A
C113   C211    1.461   .     S
C114   O194    1.320   .     A
C114   O195    1.313   .     A
C115   O196    1.327   .     A
C115   O197    1.307   .     A
C115   C117    1.482   .     S
C116   C136    1.434   .     A
C116   C1023   1.428   1_554 S
C116   O1075   1.379   1_554 S
C117   C136    1.416   .     A
C117   C135    1.386   .     A
C118   C119    1.397   .     A
C118   O187    1.369   .     S
C119   C1011   1.410   .     S
C119   O1080   1.377   .     S
C120   O188    1.374   .     S
C120   C1002   1.401   1_554 S
C120   C1010   1.410   1_554 S
C121   H161    1.107   .     S
C121   H139    1.111   .     S
C121   O198    1.403   .     S
C121   H150    1.107   .     S
C122   C134    1.407   .     A
C123   H168    1.115   .     S
C123   H169    1.105   .     S
C123   O177    1.407   .     S
C123   H170    1.109   .     S
C124   O179    1.409   .     S
C124   H140    1.106   .     S
C124   H141    1.107   .     S
C124   H172    1.109   .     S
C125   H143    1.108   .     S
C125   H144    1.107   .     S
C125   H142    1.109   .     S
C125   O180    1.411   .     S
C126   H147    1.107   .     S
C126   H145    1.105   .     S
C126   H146    1.093   .     S
C126   O181    1.408   .     S
C127   O182    1.409   .     S
C127   H148    1.101   .     S
C127   H151    1.108   .     S
C127   H248    1.104   .     S
C128   H153    1.111   .     S
C128   O183    1.415   .     S
C128   H152    1.098   .     S
C128   H253    1.103   .     S
C129   H159    1.107   .     S
C129   H158    1.113   .     S
C129   O187    1.414   .     S
C129   H157    1.113   .     S
C130   H165    1.108   .     S
C130   H166    1.109   .     S
C130   H164    1.113   .     S
C130   O191    1.411   .     S
C131   C135    1.397   .     A
C131   C1002   1.398   1_554 S
C131   C1023   1.394   1_554 S
C132   C133    1.428   .     A
C132   C1007   1.428   .     S
C132   C1022   1.394   .     S
C133   O183    1.401   .     S
C133   C134    1.438   .     A
C134   O190    1.383   .     S
C135   O185    1.376   .     S
C136   O198    1.386   .     S
Cu137  O175    1.989   .     S
Cu137  Cu138   2.739   .     S
Cu137  O194    1.981   .     S
Cu137  O196    1.986   .     S
Cu137  N173    2.058   .     S
Cu137  O192    1.969   .     S
Cu138  O186    1.981   .     S
Cu138  N174    2.058   .     S
Cu138  O197    1.969   .     S
Cu138  O193    1.986   .     S
Cu138  O195    1.989   .     S
H155   O184    0.989   .     S
H156   O185    0.993   .     S
H160   O188    0.984   .     S
H162   O189    0.988   .     S
H163   O190    0.992   .     S
H167   O176    0.989   .     S
H171   O178    0.993   .     S
O184   C1007   1.379   .     S
O189   C1010   1.377   1_554 S
C199   O285    1.313   .     A
C199   C207    1.480   .     S
C199   O274    1.319   .     A
C200   C202    1.492   .     S
C200   C217    1.401   .     A
C200   C221    1.412   .     A
C201   O290    1.400   .     S
C201   C207    1.414   .     A
C201   C500    1.411   .     S
C202   O292    1.318   .     A
C202   O291    1.322   .     A
C203   O275    1.370   .     S
C203   C204    1.413   .     A
C203   C795    1.411   1_545 S
C204   C213    1.479   .     S
C204   C205    1.400   .     A
C205   O276    1.387   .     S
C205   C800    1.398   1_545 S
C206   C207    1.412   .     A
C206   O277    1.364   .     S
C206   C502    1.398   .     S
C208   N273    1.378   .     A
C208   O278    1.382   .     S
C208   C11     1.443   1_655 S
C209   O279    1.378   .     S
C209   N272    1.378   .     A
C210   C221    1.399   .     A
C210   C1110   1.401   .     S
C210   C1121   1.398   .     S
C211   O280    1.372   .     S
C211   N272    1.388   .     A
C212   O281    1.397   .     S
C212   N273    1.360   .     A
C212   C13     1.461   1_655 S
C213   O293    1.320   .     A
C213   O294    1.313   .     A
C214   O295    1.327   .     A
C214   O296    1.307   .     A
C214   C216    1.482   .     S
C215   C235    1.434   .     A
C215   C1122   1.428   1_554 S
C215   O1174   1.379   1_554 S
C216   C235    1.416   .     A
C216   C234    1.386   .     A
C217   C218    1.397   .     A
C217   O286    1.369   .     S
C218   C1110   1.410   .     S
C218   O1179   1.377   .     S
C219   O287    1.374   .     S
C219   C1101   1.401   1_554 S
C219   C1109   1.410   1_554 S
C220   H260    1.107   .     S
C220   H238    1.111   .     S
C220   O297    1.403   .     S
C220   H249    1.107   .     S
C221   C233    1.407   .     A
C222   H267    1.115   .     S
C222   H268    1.105   .     S
C222   O276    1.407   .     S
C222   H269    1.109   .     S
C223   O278    1.409   .     S
C223   H239    1.106   .     S
C223   H240    1.107   .     S
C223   H271    1.109   .     S
C224   H242    1.108   .     S
C224   H243    1.107   .     S
C224   H241    1.109   .     S
C224   O279    1.411   .     S
C225   H246    1.107   .     S
C225   H244    1.105   .     S
C225   H245    1.093   .     S
C225   O280    1.408   .     S
C226   O281    1.409   .     S
C226   H247    1.101   .     S
C226   H250    1.108   .     S
C226   H50     1.104   1_655 S
C227   H252    1.111   .     S
C227   O282    1.415   .     S
C227   H251    1.098   .     S
C227   H55     1.103   1_655 S
C228   H258    1.107   .     S
C228   H257    1.113   .     S
C228   O286    1.414   .     S
C228   H256    1.113   .     S
C229   H264    1.108   .     S
C229   H265    1.109   .     S
C229   H263    1.113   .     S
C229   O290    1.411   .     S
C230   C234    1.397   .     A
C230   C1101   1.398   1_554 S
C230   C1122   1.394   1_554 S
C231   C232    1.428   .     A
C231   C1106   1.428   .     S
C231   C1121   1.394   .     S
C232   O282    1.401   .     S
C232   C233    1.438   .     A
C233   O289    1.383   .     S
C234   O284    1.376   .     S
C235   O297    1.386   .     S
Cu236  O274    1.989   .     S
Cu236  Cu237   2.739   .     S
Cu236  O293    1.981   .     S
Cu236  O295    1.986   .     S
Cu236  N272    2.058   .     S
Cu236  O291    1.969   .     S
Cu237  O285    1.981   .     S
Cu237  N273    2.058   .     S
Cu237  O296    1.969   .     S
Cu237  O292    1.986   .     S
Cu237  O294    1.989   .     S
H254   O283    0.989   .     S
H255   O284    0.993   .     S
H259   O287    0.984   .     S
H261   O288    0.988   .     S
H262   O289    0.992   .     S
H266   O275    0.989   .     S
H270   O277    0.993   .     S
O283   C1106   1.379   .     S
O288   C1109   1.377   1_554 S
C298   O384    1.313   .     A
C298   C306    1.480   .     S
C298   O373    1.319   .     A
C299   C301    1.492   .     S
C299   C316    1.401   .     A
C299   C320    1.412   .     A
C300   O389    1.400   .     S
C300   C306    1.414   .     A
C300   C599    1.411   .     S
C301   O391    1.318   .     A
C301   O390    1.322   .     A
C302   O374    1.370   .     S
C302   C303    1.413   .     A
C303   C312    1.479   .     S
C303   C304    1.400   .     A
C304   O375    1.387   .     S
C305   C306    1.412   .     A
C305   O376    1.364   .     S
C305   C601    1.398   .     S
C307   N372    1.378   .     A
C307   O377    1.382   .     S
C307   C407    1.443   .     S
C308   O378    1.378   .     S
C308   N371    1.378   .     A
C308   C505    1.443   1_455 S
C309   C320    1.399   .     A
C309   C1209   1.401   .     S
C309   C1220   1.398   .     S
C310   O379    1.372   .     S
C310   N371    1.388   .     A
C310   C509    1.461   1_455 S
C311   O380    1.397   .     S
C311   N372    1.360   .     A
C311   C409    1.461   .     S
C312   O392    1.320   .     A
C312   O393    1.313   .     A
C313   O394    1.327   .     A
C313   O395    1.307   .     A
C313   C315    1.482   .     S
C314   C334    1.434   .     A
C314   C1221   1.428   1_554 S
C314   O1273   1.379   1_554 S
C315   C334    1.416   .     A
C315   C333    1.386   .     A
C316   C317    1.397   .     A
C316   O385    1.369   .     S
C317   C1209   1.410   .     S
C317   O1278   1.377   .     S
C318   O386    1.374   .     S
C318   C1200   1.401   1_554 S
C318   C1208   1.410   1_554 S
C319   H359    1.107   .     S
C319   H337    1.111   .     S
C319   O396    1.403   .     S
C319   H348    1.107   .     S
C320   C332    1.407   .     A
C321   H366    1.115   .     S
C321   H367    1.105   .     S
C321   O375    1.407   .     S
C321   H368    1.109   .     S
C322   O377    1.409   .     S
C322   H338    1.106   .     S
C322   H339    1.107   .     S
C322   H370    1.109   .     S
C323   H341    1.108   .     S
C323   H342    1.107   .     S
C323   H340    1.109   .     S
C323   O378    1.411   .     S
C324   H345    1.107   .     S
C324   H343    1.105   .     S
C324   H344    1.093   .     S
C324   O379    1.408   .     S
C325   O380    1.409   .     S
C325   H346    1.101   .     S
C325   H349    1.108   .     S
C325   H446    1.104   .     S
C326   H351    1.111   .     S
C326   O381    1.415   .     S
C326   H350    1.098   .     S
C326   H451    1.103   .     S
C327   H357    1.107   .     S
C327   H356    1.113   .     S
C327   O385    1.414   .     S
C327   H355    1.113   .     S
C328   H363    1.108   .     S
C328   H364    1.109   .     S
C328   H362    1.113   .     S
C328   O389    1.411   .     S
C329   C333    1.397   .     A
C329   C1200   1.398   1_554 S
C329   C1221   1.394   1_554 S
C330   C331    1.428   .     A
C330   C1205   1.428   .     S
C330   C1220   1.394   .     S
C331   O381    1.401   .     S
C331   C332    1.438   .     A
C332   O388    1.383   .     S
C333   O383    1.376   .     S
C334   O396    1.386   .     S
Cu335  O373    1.989   .     S
Cu335  Cu336   2.739   .     S
Cu335  O392    1.981   .     S
Cu335  O394    1.986   .     S
Cu335  N371    2.058   .     S
Cu335  O390    1.969   .     S
Cu336  O384    1.981   .     S
Cu336  N372    2.058   .     S
Cu336  O395    1.969   .     S
Cu336  O391    1.986   .     S
Cu336  O393    1.989   .     S
H347   C523    1.104   1_455 S
H352   C524    1.103   1_455 S
H353   O382    0.989   .     S
H354   O383    0.993   .     S
H358   O386    0.984   .     S
H360   O387    0.988   .     S
H361   O388    0.992   .     S
H365   O374    0.989   .     S
H369   O376    0.993   .     S
O382   C1205   1.379   .     S
O387   C1208   1.377   1_554 S
C397   O483    1.313   .     A
C397   C405    1.480   .     S
C397   O472    1.319   .     A
C398   C400    1.492   .     S
C398   C415    1.401   .     A
C398   C419    1.412   .     A
C399   O488    1.400   .     S
C399   C405    1.414   .     A
C399   C698    1.411   .     S
C400   O490    1.318   .     A
C400   O489    1.322   .     A
C401   O473    1.370   .     S
C401   C402    1.413   .     A
C402   C411    1.479   .     S
C402   C403    1.400   .     A
C403   O474    1.387   .     S
C404   C405    1.412   .     A
C404   O475    1.364   .     S
C404   C700    1.398   .     S
C406   N471    1.378   .     A
C406   O476    1.382   .     S
C406   C506    1.443   .     S
C407   O477    1.378   .     S
C407   N470    1.378   .     A
C408   C419    1.399   .     A
C408   C1308   1.401   .     S
C408   C1319   1.398   .     S
C409   O478    1.372   .     S
C409   N470    1.388   .     A
C410   O479    1.397   .     S
C410   N471    1.360   .     A
C410   C508    1.461   .     S
C411   O491    1.320   .     A
C411   O492    1.313   .     A
C412   O493    1.327   .     A
C412   O494    1.307   .     A
C412   C414    1.482   .     S
C413   C433    1.434   .     A
C413   C1320   1.428   1_554 S
C413   O1372   1.379   1_554 S
C414   C433    1.416   .     A
C414   C432    1.386   .     A
C415   C416    1.397   .     A
C415   O484    1.369   .     S
C416   C1308   1.410   .     S
C416   O1377   1.377   .     S
C417   O485    1.374   .     S
C417   C1299   1.401   1_554 S
C417   C1307   1.410   1_554 S
C418   H458    1.107   .     S
C418   H436    1.111   .     S
C418   O495    1.403   .     S
C418   H447    1.107   .     S
C419   C431    1.407   .     A
C420   H465    1.115   .     S
C420   H466    1.105   .     S
C420   O474    1.407   .     S
C420   H467    1.109   .     S
C421   O476    1.409   .     S
C421   H437    1.106   .     S
C421   H438    1.107   .     S
C421   H469    1.109   .     S
C422   H440    1.108   .     S
C422   H441    1.107   .     S
C422   H439    1.109   .     S
C422   O477    1.411   .     S
C423   H444    1.107   .     S
C423   H442    1.105   .     S
C423   H443    1.093   .     S
C423   O478    1.408   .     S
C424   O479    1.409   .     S
C424   H445    1.101   .     S
C424   H448    1.108   .     S
C424   H545    1.104   .     S
C425   H450    1.111   .     S
C425   O480    1.415   .     S
C425   H449    1.098   .     S
C425   H550    1.103   .     S
C426   H456    1.107   .     S
C426   H455    1.113   .     S
C426   O484    1.414   .     S
C426   H454    1.113   .     S
C427   H462    1.108   .     S
C427   H463    1.109   .     S
C427   H461    1.113   .     S
C427   O488    1.411   .     S
C428   C432    1.397   .     A
C428   C1299   1.398   1_554 S
C428   C1320   1.394   1_554 S
C429   C430    1.428   .     A
C429   C1304   1.428   .     S
C429   C1319   1.394   .     S
C430   O480    1.401   .     S
C430   C431    1.438   .     A
C431   O487    1.383   .     S
C432   O482    1.376   .     S
C433   O495    1.386   .     S
Cu434  O472    1.989   .     S
Cu434  Cu435   2.739   .     S
Cu434  O491    1.981   .     S
Cu434  O493    1.986   .     S
Cu434  N470    2.058   .     S
Cu434  O489    1.969   .     S
Cu435  O483    1.981   .     S
Cu435  N471    2.058   .     S
Cu435  O494    1.969   .     S
Cu435  O490    1.986   .     S
Cu435  O492    1.989   .     S
H452   O481    0.989   .     S
H453   O482    0.993   .     S
H457   O485    0.984   .     S
H459   O486    0.988   .     S
H460   O487    0.992   .     S
H464   O473    0.989   .     S
H468   O475    0.993   .     S
O481   C1304   1.379   .     S
O486   C1307   1.377   1_554 S
C496   O582    1.313   .     A
C496   C504    1.480   .     S
C496   O571    1.319   .     A
C497   C499    1.492   .     S
C497   C514    1.401   .     A
C497   C518    1.412   .     A
C498   O587    1.400   .     S
C498   C504    1.414   .     A
C498   C797    1.411   .     S
C499   O589    1.318   .     A
C499   O588    1.322   .     A
C500   O572    1.370   .     S
C500   C501    1.413   .     A
C501   C510    1.479   .     S
C501   C502    1.400   .     A
C502   O573    1.387   .     S
C503   C504    1.412   .     A
C503   O574    1.364   .     S
C503   C799    1.398   .     S
C505   N570    1.378   .     A
C505   O575    1.382   .     S
C505   C308    1.443   1_655 S
C506   O576    1.378   .     S
C506   N569    1.378   .     A
C507   C518    1.399   .     A
C507   C1407   1.401   .     S
C507   C1418   1.398   .     S
C508   O577    1.372   .     S
C508   N569    1.388   .     A
C509   O578    1.397   .     S
C509   N570    1.360   .     A
C509   C310    1.461   1_655 S
C510   O590    1.320   .     A
C510   O591    1.313   .     A
C511   O592    1.327   .     A
C511   O593    1.307   .     A
C511   C513    1.482   .     S
C512   C532    1.434   .     A
C512   C1419   1.428   1_554 S
C512   O1471   1.379   1_554 S
C513   C532    1.416   .     A
C513   C531    1.386   .     A
C514   C515    1.397   .     A
C514   O583    1.369   .     S
C515   C1407   1.410   .     S
C515   O1476   1.377   .     S
C516   O584    1.374   .     S
C516   C1398   1.401   1_554 S
C516   C1406   1.410   1_554 S
C517   H557    1.107   .     S
C517   H535    1.111   .     S
C517   O594    1.403   .     S
C517   H546    1.107   .     S
C518   C530    1.407   .     A
C519   H564    1.115   .     S
C519   H565    1.105   .     S
C519   O573    1.407   .     S
C519   H566    1.109   .     S
C520   O575    1.409   .     S
C520   H536    1.106   .     S
C520   H537    1.107   .     S
C520   H568    1.109   .     S
C521   H539    1.108   .     S
C521   H540    1.107   .     S
C521   H538    1.109   .     S
C521   O576    1.411   .     S
C522   H543    1.107   .     S
C522   H541    1.105   .     S
C522   H542    1.093   .     S
C522   O577    1.408   .     S
C523   O578    1.409   .     S
C523   H544    1.101   .     S
C523   H547    1.108   .     S
C523   H347    1.104   1_655 S
C524   H549    1.111   .     S
C524   O579    1.415   .     S
C524   H548    1.098   .     S
C524   H352    1.103   1_655 S
C525   H555    1.107   .     S
C525   H554    1.113   .     S
C525   O583    1.414   .     S
C525   H553    1.113   .     S
C526   H561    1.108   .     S
C526   H562    1.109   .     S
C526   H560    1.113   .     S
C526   O587    1.411   .     S
C527   C531    1.397   .     A
C527   C1398   1.398   1_554 S
C527   C1419   1.394   1_554 S
C528   C529    1.428   .     A
C528   C1403   1.428   .     S
C528   C1418   1.394   .     S
C529   O579    1.401   .     S
C529   C530    1.438   .     A
C530   O586    1.383   .     S
C531   O581    1.376   .     S
C532   O594    1.386   .     S
Cu533  O571    1.989   .     S
Cu533  Cu534   2.739   .     S
Cu533  O590    1.981   .     S
Cu533  O592    1.986   .     S
Cu533  N569    2.058   .     S
Cu533  O588    1.969   .     S
Cu534  O582    1.981   .     S
Cu534  N570    2.058   .     S
Cu534  O593    1.969   .     S
Cu534  O589    1.986   .     S
Cu534  O591    1.989   .     S
H551   O580    0.989   .     S
H552   O581    0.993   .     S
H556   O584    0.984   .     S
H558   O585    0.988   .     S
H559   O586    0.992   .     S
H563   O572    0.989   .     S
H567   O574    0.993   .     S
O580   C1403   1.379   .     S
O585   C1406   1.377   1_554 S
C595   O681    1.313   .     A
C595   C603    1.480   .     S
C595   O670    1.319   .     A
C596   C598    1.492   .     S
C596   C613    1.401   .     A
C596   C617    1.412   .     A
C597   O686    1.400   .     S
C597   C603    1.414   .     A
C597   C5      1.411   1_565 S
C598   O688    1.318   .     A
C598   O687    1.322   .     A
C599   O671    1.370   .     S
C599   C600    1.413   .     A
C600   C609    1.479   .     S
C600   C601    1.400   .     A
C601   O672    1.387   .     S
C602   C603    1.412   .     A
C602   O673    1.364   .     S
C602   C7      1.398   1_565 S
C604   N669    1.378   .     A
C604   O674    1.382   .     S
C604   C704    1.443   .     S
C605   O675    1.378   .     S
C605   N668    1.378   .     A
C605   C802    1.443   1_455 S
C606   C617    1.399   .     A
C606   C1506   1.401   .     S
C606   C1517   1.398   .     S
C607   O676    1.372   .     S
C607   N668    1.388   .     A
C607   C806    1.461   1_455 S
C608   O677    1.397   .     S
C608   N669    1.360   .     A
C608   C706    1.461   .     S
C609   O689    1.320   .     A
C609   O690    1.313   .     A
C610   O691    1.327   .     A
C610   O692    1.307   .     A
C610   C612    1.482   .     S
C611   C631    1.434   .     A
C611   C1518   1.428   1_554 S
C611   O1570   1.379   1_554 S
C612   C631    1.416   .     A
C612   C630    1.386   .     A
C613   C614    1.397   .     A
C613   O682    1.369   .     S
C614   C1506   1.410   .     S
C614   O1575   1.377   .     S
C615   O683    1.374   .     S
C615   C1497   1.401   1_554 S
C615   C1505   1.410   1_554 S
C616   H656    1.107   .     S
C616   H634    1.111   .     S
C616   O693    1.403   .     S
C616   H645    1.107   .     S
C617   C629    1.407   .     A
C618   H663    1.115   .     S
C618   H664    1.105   .     S
C618   O672    1.407   .     S
C618   H665    1.109   .     S
C619   O674    1.409   .     S
C619   H635    1.106   .     S
C619   H636    1.107   .     S
C619   H667    1.109   .     S
C620   H638    1.108   .     S
C620   H639    1.107   .     S
C620   H637    1.109   .     S
C620   O675    1.411   .     S
C621   H642    1.107   .     S
C621   H640    1.105   .     S
C621   H641    1.093   .     S
C621   O676    1.408   .     S
C622   O677    1.409   .     S
C622   H643    1.101   .     S
C622   H646    1.108   .     S
C622   H743    1.104   .     S
C623   H648    1.111   .     S
C623   O678    1.415   .     S
C623   H647    1.098   .     S
C623   H748    1.103   .     S
C624   H654    1.107   .     S
C624   H653    1.113   .     S
C624   O682    1.414   .     S
C624   H652    1.113   .     S
C625   H660    1.108   .     S
C625   H661    1.109   .     S
C625   H659    1.113   .     S
C625   O686    1.411   .     S
C626   C630    1.397   .     A
C626   C1497   1.398   1_554 S
C626   C1518   1.394   1_554 S
C627   C628    1.428   .     A
C627   C1502   1.428   .     S
C627   C1517   1.394   .     S
C628   O678    1.401   .     S
C628   C629    1.438   .     A
C629   O685    1.383   .     S
C630   O680    1.376   .     S
C631   O693    1.386   .     S
Cu632  O670    1.989   .     S
Cu632  Cu633   2.739   .     S
Cu632  O689    1.981   .     S
Cu632  O691    1.986   .     S
Cu632  N668    2.058   .     S
Cu632  O687    1.969   .     S
Cu633  O681    1.981   .     S
Cu633  N669    2.058   .     S
Cu633  O692    1.969   .     S
Cu633  O688    1.986   .     S
Cu633  O690    1.989   .     S
H644   C820    1.104   1_455 S
H649   C821    1.103   1_455 S
H650   O679    0.989   .     S
H651   O680    0.993   .     S
H655   O683    0.984   .     S
H657   O684    0.988   .     S
H658   O685    0.992   .     S
H662   O671    0.989   .     S
H666   O673    0.993   .     S
O679   C1502   1.379   .     S
O684   C1505   1.377   1_554 S
C694   O780    1.313   .     A
C694   C702    1.480   .     S
C694   O769    1.319   .     A
C695   C697    1.492   .     S
C695   C712    1.401   .     A
C695   C716    1.412   .     A
C696   O785    1.400   .     S
C696   C702    1.414   .     A
C696   C104    1.411   1_565 S
C697   O787    1.318   .     A
C697   O786    1.322   .     A
C698   O770    1.370   .     S
C698   C699    1.413   .     A
C699   C708    1.479   .     S
C699   C700    1.400   .     A
C700   O771    1.387   .     S
C701   C702    1.412   .     A
C701   O772    1.364   .     S
C701   C106    1.398   1_565 S
C703   N768    1.378   .     A
C703   O773    1.382   .     S
C703   C803    1.443   .     S
C704   O774    1.378   .     S
C704   N767    1.378   .     A
C705   C716    1.399   .     A
C705   C1605   1.401   .     S
C705   C1616   1.398   .     S
C706   O775    1.372   .     S
C706   N767    1.388   .     A
C707   O776    1.397   .     S
C707   N768    1.360   .     A
C707   C805    1.461   .     S
C708   O788    1.320   .     A
C708   O789    1.313   .     A
C709   O790    1.327   .     A
C709   O791    1.307   .     A
C709   C711    1.482   .     S
C710   C730    1.434   .     A
C710   C1617   1.428   1_554 S
C710   O1669   1.379   1_554 S
C711   C730    1.416   .     A
C711   C729    1.386   .     A
C712   C713    1.397   .     A
C712   O781    1.369   .     S
C713   C1605   1.410   .     S
C713   O1674   1.377   .     S
C714   O782    1.374   .     S
C714   C1596   1.401   1_554 S
C714   C1604   1.410   1_554 S
C715   H755    1.107   .     S
C715   H733    1.111   .     S
C715   O792    1.403   .     S
C715   H744    1.107   .     S
C716   C728    1.407   .     A
C717   H762    1.115   .     S
C717   H763    1.105   .     S
C717   O771    1.407   .     S
C717   H764    1.109   .     S
C718   O773    1.409   .     S
C718   H734    1.106   .     S
C718   H735    1.107   .     S
C718   H766    1.109   .     S
C719   H737    1.108   .     S
C719   H738    1.107   .     S
C719   H736    1.109   .     S
C719   O774    1.411   .     S
C720   H741    1.107   .     S
C720   H739    1.105   .     S
C720   H740    1.093   .     S
C720   O775    1.408   .     S
C721   O776    1.409   .     S
C721   H742    1.101   .     S
C721   H745    1.108   .     S
C721   H842    1.104   .     S
C722   H747    1.111   .     S
C722   O777    1.415   .     S
C722   H746    1.098   .     S
C722   H847    1.103   .     S
C723   H753    1.107   .     S
C723   H752    1.113   .     S
C723   O781    1.414   .     S
C723   H751    1.113   .     S
C724   H759    1.108   .     S
C724   H760    1.109   .     S
C724   H758    1.113   .     S
C724   O785    1.411   .     S
C725   C729    1.397   .     A
C725   C1596   1.398   1_554 S
C725   C1617   1.394   1_554 S
C726   C727    1.428   .     A
C726   C1601   1.428   .     S
C726   C1616   1.394   .     S
C727   O777    1.401   .     S
C727   C728    1.438   .     A
C728   O784    1.383   .     S
C729   O779    1.376   .     S
C730   O792    1.386   .     S
Cu731  O769    1.989   .     S
Cu731  Cu732   2.739   .     S
Cu731  O788    1.981   .     S
Cu731  O790    1.986   .     S
Cu731  N767    2.058   .     S
Cu731  O786    1.969   .     S
Cu732  O780    1.981   .     S
Cu732  N768    2.058   .     S
Cu732  O791    1.969   .     S
Cu732  O787    1.986   .     S
Cu732  O789    1.989   .     S
H749   O778    0.989   .     S
H750   O779    0.993   .     S
H754   O782    0.984   .     S
H756   O783    0.988   .     S
H757   O784    0.992   .     S
H761   O770    0.989   .     S
H765   O772    0.993   .     S
O778   C1601   1.379   .     S
O783   C1604   1.377   1_554 S
C793   O879    1.313   .     A
C793   C801    1.480   .     S
C793   O868    1.319   .     A
C794   C796    1.492   .     S
C794   C811    1.401   .     A
C794   C815    1.412   .     A
C795   O884    1.400   .     S
C795   C801    1.414   .     A
C795   C203    1.411   1_565 S
C796   O886    1.318   .     A
C796   O885    1.322   .     A
C797   O869    1.370   .     S
C797   C798    1.413   .     A
C798   C807    1.479   .     S
C798   C799    1.400   .     A
C799   O870    1.387   .     S
C800   C801    1.412   .     A
C800   O871    1.364   .     S
C800   C205    1.398   1_565 S
C802   N867    1.378   .     A
C802   O872    1.382   .     S
C802   C605    1.443   1_655 S
C803   O873    1.378   .     S
C803   N866    1.378   .     A
C804   C815    1.399   .     A
C804   C1704   1.401   .     S
C804   C1715   1.398   .     S
C805   O874    1.372   .     S
C805   N866    1.388   .     A
C806   O875    1.397   .     S
C806   N867    1.360   .     A
C806   C607    1.461   1_655 S
C807   O887    1.320   .     A
C807   O888    1.313   .     A
C808   O889    1.327   .     A
C808   O890    1.307   .     A
C808   C810    1.482   .     S
C809   C829    1.434   .     A
C809   C1716   1.428   1_554 S
C809   O1768   1.379   1_554 S
C810   C829    1.416   .     A
C810   C828    1.386   .     A
C811   C812    1.397   .     A
C811   O880    1.369   .     S
C812   C1704   1.410   .     S
C812   O1773   1.377   .     S
C813   O881    1.374   .     S
C813   C1695   1.401   1_554 S
C813   C1703   1.410   1_554 S
C814   H854    1.107   .     S
C814   H832    1.111   .     S
C814   O891    1.403   .     S
C814   H843    1.107   .     S
C815   C827    1.407   .     A
C816   H861    1.115   .     S
C816   H862    1.105   .     S
C816   O870    1.407   .     S
C816   H863    1.109   .     S
C817   O872    1.409   .     S
C817   H833    1.106   .     S
C817   H834    1.107   .     S
C817   H865    1.109   .     S
C818   H836    1.108   .     S
C818   H837    1.107   .     S
C818   H835    1.109   .     S
C818   O873    1.411   .     S
C819   H840    1.107   .     S
C819   H838    1.105   .     S
C819   H839    1.093   .     S
C819   O874    1.408   .     S
C820   O875    1.409   .     S
C820   H841    1.101   .     S
C820   H844    1.108   .     S
C820   H644    1.104   1_655 S
C821   H846    1.111   .     S
C821   O876    1.415   .     S
C821   H845    1.098   .     S
C821   H649    1.103   1_655 S
C822   H852    1.107   .     S
C822   H851    1.113   .     S
C822   O880    1.414   .     S
C822   H850    1.113   .     S
C823   H858    1.108   .     S
C823   H859    1.109   .     S
C823   H857    1.113   .     S
C823   O884    1.411   .     S
C824   C828    1.397   .     A
C824   C1695   1.398   1_554 S
C824   C1716   1.394   1_554 S
C825   C826    1.428   .     A
C825   C1700   1.428   .     S
C825   C1715   1.394   .     S
C826   O876    1.401   .     S
C826   C827    1.438   .     A
C827   O883    1.383   .     S
C828   O878    1.376   .     S
C829   O891    1.386   .     S
Cu830  O868    1.989   .     S
Cu830  Cu831   2.739   .     S
Cu830  O887    1.981   .     S
Cu830  O889    1.986   .     S
Cu830  N866    2.058   .     S
Cu830  O885    1.969   .     S
Cu831  O879    1.981   .     S
Cu831  N867    2.058   .     S
Cu831  O890    1.969   .     S
Cu831  O886    1.986   .     S
Cu831  O888    1.989   .     S
H848   O877    0.989   .     S
H849   O878    0.993   .     S
H853   O881    0.984   .     S
H855   O882    0.988   .     S
H856   O883    0.992   .     S
H860   O869    0.989   .     S
H864   O871    0.993   .     S
O877   C1700   1.379   .     S
O882   C1703   1.377   1_554 S
C892   O978    1.313   .     A
C892   C900    1.480   .     S
C892   O967    1.319   .     A
C893   C895    1.492   .     S
C893   C910    1.401   .     A
C893   C914    1.412   .     A
C894   O983    1.400   .     S
C894   C900    1.414   .     A
C894   C1193   1.411   .     S
C895   O985    1.318   .     A
C895   O984    1.322   .     A
C896   O968    1.370   .     S
C896   C897    1.413   .     A
C896   C1488   1.411   1_545 S
C897   C906    1.479   .     S
C897   C898    1.400   .     A
C898   O969    1.387   .     S
C898   C1493   1.398   1_545 S
C899   C900    1.412   .     A
C899   O970    1.364   .     S
C899   C1195   1.398   .     S
C901   N966    1.378   .     A
C901   O971    1.382   .     S
C901   C1001   1.443   .     S
C902   O972    1.378   .     S
C902   N965    1.378   .     A
C902   C1099   1.443   1_455 S
C903   C914    1.399   .     A
C903   C21     1.401   1_556 S
C903   C32     1.398   1_556 S
C904   O973    1.372   .     S
C904   N965    1.388   .     A
C904   C1103   1.461   1_455 S
C905   O974    1.397   .     S
C905   N966    1.360   .     A
C905   C1003   1.461   .     S
C906   O986    1.320   .     A
C906   O987    1.313   .     A
C907   O988    1.327   .     A
C907   O989    1.307   .     A
C907   C909    1.482   .     S
C908   C928    1.434   .     A
C909   C928    1.416   .     A
C909   C927    1.386   .     A
C910   C911    1.397   .     A
C910   O979    1.369   .     S
C911   C21     1.410   1_556 S
C911   O90     1.377   1_556 S
C912   O980    1.374   .     S
C913   H953    1.107   .     S
C913   H931    1.111   .     S
C913   O990    1.403   .     S
C913   H942    1.107   .     S
C914   C926    1.407   .     A
C915   H960    1.115   .     S
C915   H961    1.105   .     S
C915   O969    1.407   .     S
C915   H962    1.109   .     S
C916   O971    1.409   .     S
C916   H932    1.106   .     S
C916   H933    1.107   .     S
C916   H964    1.109   .     S
C917   H935    1.108   .     S
C917   H936    1.107   .     S
C917   H934    1.109   .     S
C917   O972    1.411   .     S
C918   H939    1.107   .     S
C918   H937    1.105   .     S
C918   H938    1.093   .     S
C918   O973    1.408   .     S
C919   O974    1.409   .     S
C919   H940    1.101   .     S
C919   H943    1.108   .     S
C919   H1040   1.104   .     S
C920   H945    1.111   .     S
C920   O975    1.415   .     S
C920   H944    1.098   .     S
C920   H1045   1.103   .     S
C921   H951    1.107   .     S
C921   H950    1.113   .     S
C921   O979    1.414   .     S
C921   H949    1.113   .     S
C922   H957    1.108   .     S
C922   H958    1.109   .     S
C922   H956    1.113   .     S
C922   O983    1.411   .     S
C923   C927    1.397   .     A
C924   C925    1.428   .     A
C924   C17     1.428   1_556 S
C924   C32     1.394   1_556 S
C925   O975    1.401   .     S
C925   C926    1.438   .     A
C926   O982    1.383   .     S
C927   O977    1.376   .     S
C928   O990    1.386   .     S
Cu929  O967    1.989   .     S
Cu929  Cu930   2.739   .     S
Cu929  O986    1.981   .     S
Cu929  O988    1.986   .     S
Cu929  N965    2.058   .     S
Cu929  O984    1.969   .     S
Cu930  O978    1.981   .     S
Cu930  N966    2.058   .     S
Cu930  O989    1.969   .     S
Cu930  O985    1.986   .     S
Cu930  O987    1.989   .     S
H941   C1117   1.104   1_455 S
H946   C1118   1.103   1_455 S
H947   O976    0.989   .     S
H948   O977    0.993   .     S
H952   O980    0.984   .     S
H954   O981    0.988   .     S
H955   O982    0.992   .     S
H959   O968    0.989   .     S
H963   O970    0.993   .     S
O976   C17     1.379   1_556 S
C991   O1077   1.313   .     A
C991   C999    1.480   .     S
C991   O1066   1.319   .     A
C992   C994    1.492   .     S
C992   C1009   1.401   .     A
C992   C1013   1.412   .     A
C993   O1082   1.400   .     S
C993   C999    1.414   .     A
C993   C1292   1.411   .     S
C994   O1084   1.318   .     A
C994   O1083   1.322   .     A
C995   O1067   1.370   .     S
C995   C996    1.413   .     A
C995   C1587   1.411   1_545 S
C996   C1005   1.479   .     S
C996   C997    1.400   .     A
C997   O1068   1.387   .     S
C997   C1592   1.398   1_545 S
C998   C999    1.412   .     A
C998   O1069   1.364   .     S
C998   C1294   1.398   .     S
C1000  N1065   1.378   .     A
C1000  O1070   1.382   .     S
C1000  C1100   1.443   .     S
C1001  O1071   1.378   .     S
C1001  N1064   1.378   .     A
C1002  C1013   1.399   .     A
C1002  C120    1.401   1_556 S
C1002  C131    1.398   1_556 S
C1003  O1072   1.372   .     S
C1003  N1064   1.388   .     A
C1004  O1073   1.397   .     S
C1004  N1065   1.360   .     A
C1004  C1102   1.461   .     S
C1005  O1085   1.320   .     A
C1005  O1086   1.313   .     A
C1006  O1087   1.327   .     A
C1006  O1088   1.307   .     A
C1006  C1008   1.482   .     S
C1007  C1027   1.434   .     A
C1008  C1027   1.416   .     A
C1008  C1026   1.386   .     A
C1009  C1010   1.397   .     A
C1009  O1078   1.369   .     S
C1010  C120    1.410   1_556 S
C1010  O189    1.377   1_556 S
C1011  O1079   1.374   .     S
C1012  H1052   1.107   .     S
C1012  H1030   1.111   .     S
C1012  O1089   1.403   .     S
C1012  H1041   1.107   .     S
C1013  C1025   1.407   .     A
C1014  H1059   1.115   .     S
C1014  H1060   1.105   .     S
C1014  O1068   1.407   .     S
C1014  H1061   1.109   .     S
C1015  O1070   1.409   .     S
C1015  H1031   1.106   .     S
C1015  H1032   1.107   .     S
C1015  H1063   1.109   .     S
C1016  H1034   1.108   .     S
C1016  H1035   1.107   .     S
C1016  H1033   1.109   .     S
C1016  O1071   1.411   .     S
C1017  H1038   1.107   .     S
C1017  H1036   1.105   .     S
C1017  H1037   1.093   .     S
C1017  O1072   1.408   .     S
C1018  O1073   1.409   .     S
C1018  H1039   1.101   .     S
C1018  H1042   1.108   .     S
C1018  H1139   1.104   .     S
C1019  H1044   1.111   .     S
C1019  O1074   1.415   .     S
C1019  H1043   1.098   .     S
C1019  H1144   1.103   .     S
C1020  H1050   1.107   .     S
C1020  H1049   1.113   .     S
C1020  O1078   1.414   .     S
C1020  H1048   1.113   .     S
C1021  H1056   1.108   .     S
C1021  H1057   1.109   .     S
C1021  H1055   1.113   .     S
C1021  O1082   1.411   .     S
C1022  C1026   1.397   .     A
C1023  C1024   1.428   .     A
C1023  C116    1.428   1_556 S
C1023  C131    1.394   1_556 S
C1024  O1074   1.401   .     S
C1024  C1025   1.438   .     A
C1025  O1081   1.383   .     S
C1026  O1076   1.376   .     S
C1027  O1089   1.386   .     S
Cu1028 O1066   1.989   .     S
Cu1028 Cu1029  2.739   .     S
Cu1028 O1085   1.981   .     S
Cu1028 O1087   1.986   .     S
Cu1028 N1064   2.058   .     S
Cu1028 O1083   1.969   .     S
Cu1029 O1077   1.981   .     S
Cu1029 N1065   2.058   .     S
Cu1029 O1088   1.969   .     S
Cu1029 O1084   1.986   .     S
Cu1029 O1086   1.989   .     S
H1046  O1075   0.989   .     S
H1047  O1076   0.993   .     S
H1051  O1079   0.984   .     S
H1053  O1080   0.988   .     S
H1054  O1081   0.992   .     S
H1058  O1067   0.989   .     S
H1062  O1069   0.993   .     S
O1075  C116    1.379   1_556 S
C1090  O1176   1.313   .     A
C1090  C1098   1.480   .     S
C1090  O1165   1.319   .     A
C1091  C1093   1.492   .     S
C1091  C1108   1.401   .     A
C1091  C1112   1.412   .     A
C1092  O1181   1.400   .     S
C1092  C1098   1.414   .     A
C1092  C1391   1.411   .     S
C1093  O1183   1.318   .     A
C1093  O1182   1.322   .     A
C1094  O1166   1.370   .     S
C1094  C1095   1.413   .     A
C1094  C1686   1.411   1_545 S
C1095  C1104   1.479   .     S
C1095  C1096   1.400   .     A
C1096  O1167   1.387   .     S
C1096  C1691   1.398   1_545 S
C1097  C1098   1.412   .     A
C1097  O1168   1.364   .     S
C1097  C1393   1.398   .     S
C1099  N1164   1.378   .     A
C1099  O1169   1.382   .     S
C1099  C902    1.443   1_655 S
C1100  O1170   1.378   .     S
C1100  N1163   1.378   .     A
C1101  C1112   1.399   .     A
C1101  C219    1.401   1_556 S
C1101  C230    1.398   1_556 S
C1102  O1171   1.372   .     S
C1102  N1163   1.388   .     A
C1103  O1172   1.397   .     S
C1103  N1164   1.360   .     A
C1103  C904    1.461   1_655 S
C1104  O1184   1.320   .     A
C1104  O1185   1.313   .     A
C1105  O1186   1.327   .     A
C1105  O1187   1.307   .     A
C1105  C1107   1.482   .     S
C1106  C1126   1.434   .     A
C1107  C1126   1.416   .     A
C1107  C1125   1.386   .     A
C1108  C1109   1.397   .     A
C1108  O1177   1.369   .     S
C1109  C219    1.410   1_556 S
C1109  O288    1.377   1_556 S
C1110  O1178   1.374   .     S
C1111  H1151   1.107   .     S
C1111  H1129   1.111   .     S
C1111  O1188   1.403   .     S
C1111  H1140   1.107   .     S
C1112  C1124   1.407   .     A
C1113  H1158   1.115   .     S
C1113  H1159   1.105   .     S
C1113  O1167   1.407   .     S
C1113  H1160   1.109   .     S
C1114  O1169   1.409   .     S
C1114  H1130   1.106   .     S
C1114  H1131   1.107   .     S
C1114  H1162   1.109   .     S
C1115  H1133   1.108   .     S
C1115  H1134   1.107   .     S
C1115  H1132   1.109   .     S
C1115  O1170   1.411   .     S
C1116  H1137   1.107   .     S
C1116  H1135   1.105   .     S
C1116  H1136   1.093   .     S
C1116  O1171   1.408   .     S
C1117  O1172   1.409   .     S
C1117  H1138   1.101   .     S
C1117  H1141   1.108   .     S
C1117  H941    1.104   1_655 S
C1118  H1143   1.111   .     S
C1118  O1173   1.415   .     S
C1118  H1142   1.098   .     S
C1118  H946    1.103   1_655 S
C1119  H1149   1.107   .     S
C1119  H1148   1.113   .     S
C1119  O1177   1.414   .     S
C1119  H1147   1.113   .     S
C1120  H1155   1.108   .     S
C1120  H1156   1.109   .     S
C1120  H1154   1.113   .     S
C1120  O1181   1.411   .     S
C1121  C1125   1.397   .     A
C1122  C1123   1.428   .     A
C1122  C215    1.428   1_556 S
C1122  C230    1.394   1_556 S
C1123  O1173   1.401   .     S
C1123  C1124   1.438   .     A
C1124  O1180   1.383   .     S
C1125  O1175   1.376   .     S
C1126  O1188   1.386   .     S
Cu1127 O1165   1.989   .     S
Cu1127 Cu1128  2.739   .     S
Cu1127 O1184   1.981   .     S
Cu1127 O1186   1.986   .     S
Cu1127 N1163   2.058   .     S
Cu1127 O1182   1.969   .     S
Cu1128 O1176   1.981   .     S
Cu1128 N1164   2.058   .     S
Cu1128 O1187   1.969   .     S
Cu1128 O1183   1.986   .     S
Cu1128 O1185   1.989   .     S
H1145  O1174   0.989   .     S
H1146  O1175   0.993   .     S
H1150  O1178   0.984   .     S
H1152  O1179   0.988   .     S
H1153  O1180   0.992   .     S
H1157  O1166   0.989   .     S
H1161  O1168   0.993   .     S
O1174  C215    1.379   1_556 S
C1189  O1275   1.313   .     A
C1189  C1197   1.480   .     S
C1189  O1264   1.319   .     A
C1190  C1192   1.492   .     S
C1190  C1207   1.401   .     A
C1190  C1211   1.412   .     A
C1191  O1280   1.400   .     S
C1191  C1197   1.414   .     A
C1191  C1490   1.411   .     S
C1192  O1282   1.318   .     A
C1192  O1281   1.322   .     A
C1193  O1265   1.370   .     S
C1193  C1194   1.413   .     A
C1194  C1203   1.479   .     S
C1194  C1195   1.400   .     A
C1195  O1266   1.387   .     S
C1196  C1197   1.412   .     A
C1196  O1267   1.364   .     S
C1196  C1492   1.398   .     S
C1198  N1263   1.378   .     A
C1198  O1268   1.382   .     S
C1198  C1298   1.443   .     S
C1199  O1269   1.378   .     S
C1199  N1262   1.378   .     A
C1199  C1396   1.443   1_455 S
C1200  C1211   1.399   .     A
C1200  C318    1.401   1_556 S
C1200  C329    1.398   1_556 S
C1201  O1270   1.372   .     S
C1201  N1262   1.388   .     A
C1201  C1400   1.461   1_455 S
C1202  O1271   1.397   .     S
C1202  N1263   1.360   .     A
C1202  C1300   1.461   .     S
C1203  O1283   1.320   .     A
C1203  O1284   1.313   .     A
C1204  O1285   1.327   .     A
C1204  O1286   1.307   .     A
C1204  C1206   1.482   .     S
C1205  C1225   1.434   .     A
C1206  C1225   1.416   .     A
C1206  C1224   1.386   .     A
C1207  C1208   1.397   .     A
C1207  O1276   1.369   .     S
C1208  C318    1.410   1_556 S
C1208  O387    1.377   1_556 S
C1209  O1277   1.374   .     S
C1210  H1250   1.107   .     S
C1210  H1228   1.111   .     S
C1210  O1287   1.403   .     S
C1210  H1239   1.107   .     S
C1211  C1223   1.407   .     A
C1212  H1257   1.115   .     S
C1212  H1258   1.105   .     S
C1212  O1266   1.407   .     S
C1212  H1259   1.109   .     S
C1213  O1268   1.409   .     S
C1213  H1229   1.106   .     S
C1213  H1230   1.107   .     S
C1213  H1261   1.109   .     S
C1214  H1232   1.108   .     S
C1214  H1233   1.107   .     S
C1214  H1231   1.109   .     S
C1214  O1269   1.411   .     S
C1215  H1236   1.107   .     S
C1215  H1234   1.105   .     S
C1215  H1235   1.093   .     S
C1215  O1270   1.408   .     S
C1216  O1271   1.409   .     S
C1216  H1237   1.101   .     S
C1216  H1240   1.108   .     S
C1216  H1337   1.104   .     S
C1217  H1242   1.111   .     S
C1217  O1272   1.415   .     S
C1217  H1241   1.098   .     S
C1217  H1342   1.103   .     S
C1218  H1248   1.107   .     S
C1218  H1247   1.113   .     S
C1218  O1276   1.414   .     S
C1218  H1246   1.113   .     S
C1219  H1254   1.108   .     S
C1219  H1255   1.109   .     S
C1219  H1253   1.113   .     S
C1219  O1280   1.411   .     S
C1220  C1224   1.397   .     A
C1221  C1222   1.428   .     A
C1221  C314    1.428   1_556 S
C1221  C329    1.394   1_556 S
C1222  O1272   1.401   .     S
C1222  C1223   1.438   .     A
C1223  O1279   1.383   .     S
C1224  O1274   1.376   .     S
C1225  O1287   1.386   .     S
Cu1226 O1264   1.989   .     S
Cu1226 Cu1227  2.739   .     S
Cu1226 O1283   1.981   .     S
Cu1226 O1285   1.986   .     S
Cu1226 N1262   2.058   .     S
Cu1226 O1281   1.969   .     S
Cu1227 O1275   1.981   .     S
Cu1227 N1263   2.058   .     S
Cu1227 O1286   1.969   .     S
Cu1227 O1282   1.986   .     S
Cu1227 O1284   1.989   .     S
H1238  C1414   1.104   1_455 S
H1243  C1415   1.103   1_455 S
H1244  O1273   0.989   .     S
H1245  O1274   0.993   .     S
H1249  O1277   0.984   .     S
H1251  O1278   0.988   .     S
H1252  O1279   0.992   .     S
H1256  O1265   0.989   .     S
H1260  O1267   0.993   .     S
O1273  C314    1.379   1_556 S
C1288  O1374   1.313   .     A
C1288  C1296   1.480   .     S
C1288  O1363   1.319   .     A
C1289  C1291   1.492   .     S
C1289  C1306   1.401   .     A
C1289  C1310   1.412   .     A
C1290  O1379   1.400   .     S
C1290  C1296   1.414   .     A
C1290  C1589   1.411   .     S
C1291  O1381   1.318   .     A
C1291  O1380   1.322   .     A
C1292  O1364   1.370   .     S
C1292  C1293   1.413   .     A
C1293  C1302   1.479   .     S
C1293  C1294   1.400   .     A
C1294  O1365   1.387   .     S
C1295  C1296   1.412   .     A
C1295  O1366   1.364   .     S
C1295  C1591   1.398   .     S
C1297  N1362   1.378   .     A
C1297  O1367   1.382   .     S
C1297  C1397   1.443   .     S
C1298  O1368   1.378   .     S
C1298  N1361   1.378   .     A
C1299  C1310   1.399   .     A
C1299  C417    1.401   1_556 S
C1299  C428    1.398   1_556 S
C1300  O1369   1.372   .     S
C1300  N1361   1.388   .     A
C1301  O1370   1.397   .     S
C1301  N1362   1.360   .     A
C1301  C1399   1.461   .     S
C1302  O1382   1.320   .     A
C1302  O1383   1.313   .     A
C1303  O1384   1.327   .     A
C1303  O1385   1.307   .     A
C1303  C1305   1.482   .     S
C1304  C1324   1.434   .     A
C1305  C1324   1.416   .     A
C1305  C1323   1.386   .     A
C1306  C1307   1.397   .     A
C1306  O1375   1.369   .     S
C1307  C417    1.410   1_556 S
C1307  O486    1.377   1_556 S
C1308  O1376   1.374   .     S
C1309  H1349   1.107   .     S
C1309  H1327   1.111   .     S
C1309  O1386   1.403   .     S
C1309  H1338   1.107   .     S
C1310  C1322   1.407   .     A
C1311  H1356   1.115   .     S
C1311  H1357   1.105   .     S
C1311  O1365   1.407   .     S
C1311  H1358   1.109   .     S
C1312  O1367   1.409   .     S
C1312  H1328   1.106   .     S
C1312  H1329   1.107   .     S
C1312  H1360   1.109   .     S
C1313  H1331   1.108   .     S
C1313  H1332   1.107   .     S
C1313  H1330   1.109   .     S
C1313  O1368   1.411   .     S
C1314  H1335   1.107   .     S
C1314  H1333   1.105   .     S
C1314  H1334   1.093   .     S
C1314  O1369   1.408   .     S
C1315  O1370   1.409   .     S
C1315  H1336   1.101   .     S
C1315  H1339   1.108   .     S
C1315  H1436   1.104   .     S
C1316  H1341   1.111   .     S
C1316  O1371   1.415   .     S
C1316  H1340   1.098   .     S
C1316  H1441   1.103   .     S
C1317  H1347   1.107   .     S
C1317  H1346   1.113   .     S
C1317  O1375   1.414   .     S
C1317  H1345   1.113   .     S
C1318  H1353   1.108   .     S
C1318  H1354   1.109   .     S
C1318  H1352   1.113   .     S
C1318  O1379   1.411   .     S
C1319  C1323   1.397   .     A
C1320  C1321   1.428   .     A
C1320  C413    1.428   1_556 S
C1320  C428    1.394   1_556 S
C1321  O1371   1.401   .     S
C1321  C1322   1.438   .     A
C1322  O1378   1.383   .     S
C1323  O1373   1.376   .     S
C1324  O1386   1.386   .     S
Cu1325 O1363   1.989   .     S
Cu1325 Cu1326  2.739   .     S
Cu1325 O1382   1.981   .     S
Cu1325 O1384   1.986   .     S
Cu1325 N1361   2.058   .     S
Cu1325 O1380   1.969   .     S
Cu1326 O1374   1.981   .     S
Cu1326 N1362   2.058   .     S
Cu1326 O1385   1.969   .     S
Cu1326 O1381   1.986   .     S
Cu1326 O1383   1.989   .     S
H1343  O1372   0.989   .     S
H1344  O1373   0.993   .     S
H1348  O1376   0.984   .     S
H1350  O1377   0.988   .     S
H1351  O1378   0.992   .     S
H1355  O1364   0.989   .     S
H1359  O1366   0.993   .     S
O1372  C413    1.379   1_556 S
C1387  O1473   1.313   .     A
C1387  C1395   1.480   .     S
C1387  O1462   1.319   .     A
C1388  C1390   1.492   .     S
C1388  C1405   1.401   .     A
C1388  C1409   1.412   .     A
C1389  O1478   1.400   .     S
C1389  C1395   1.414   .     A
C1389  C1688   1.411   .     S
C1390  O1480   1.318   .     A
C1390  O1479   1.322   .     A
C1391  O1463   1.370   .     S
C1391  C1392   1.413   .     A
C1392  C1401   1.479   .     S
C1392  C1393   1.400   .     A
C1393  O1464   1.387   .     S
C1394  C1395   1.412   .     A
C1394  O1465   1.364   .     S
C1394  C1690   1.398   .     S
C1396  N1461   1.378   .     A
C1396  O1466   1.382   .     S
C1396  C1199   1.443   1_655 S
C1397  O1467   1.378   .     S
C1397  N1460   1.378   .     A
C1398  C1409   1.399   .     A
C1398  C516    1.401   1_556 S
C1398  C527    1.398   1_556 S
C1399  O1468   1.372   .     S
C1399  N1460   1.388   .     A
C1400  O1469   1.397   .     S
C1400  N1461   1.360   .     A
C1400  C1201   1.461   1_655 S
C1401  O1481   1.320   .     A
C1401  O1482   1.313   .     A
C1402  O1483   1.327   .     A
C1402  O1484   1.307   .     A
C1402  C1404   1.482   .     S
C1403  C1423   1.434   .     A
C1404  C1423   1.416   .     A
C1404  C1422   1.386   .     A
C1405  C1406   1.397   .     A
C1405  O1474   1.369   .     S
C1406  C516    1.410   1_556 S
C1406  O585    1.377   1_556 S
C1407  O1475   1.374   .     S
C1408  H1448   1.107   .     S
C1408  H1426   1.111   .     S
C1408  O1485   1.403   .     S
C1408  H1437   1.107   .     S
C1409  C1421   1.407   .     A
C1410  H1455   1.115   .     S
C1410  H1456   1.105   .     S
C1410  O1464   1.407   .     S
C1410  H1457   1.109   .     S
C1411  O1466   1.409   .     S
C1411  H1427   1.106   .     S
C1411  H1428   1.107   .     S
C1411  H1459   1.109   .     S
C1412  H1430   1.108   .     S
C1412  H1431   1.107   .     S
C1412  H1429   1.109   .     S
C1412  O1467   1.411   .     S
C1413  H1434   1.107   .     S
C1413  H1432   1.105   .     S
C1413  H1433   1.093   .     S
C1413  O1468   1.408   .     S
C1414  O1469   1.409   .     S
C1414  H1435   1.101   .     S
C1414  H1438   1.108   .     S
C1414  H1238   1.104   1_655 S
C1415  H1440   1.111   .     S
C1415  O1470   1.415   .     S
C1415  H1439   1.098   .     S
C1415  H1243   1.103   1_655 S
C1416  H1446   1.107   .     S
C1416  H1445   1.113   .     S
C1416  O1474   1.414   .     S
C1416  H1444   1.113   .     S
C1417  H1452   1.108   .     S
C1417  H1453   1.109   .     S
C1417  H1451   1.113   .     S
C1417  O1478   1.411   .     S
C1418  C1422   1.397   .     A
C1419  C1420   1.428   .     A
C1419  C512    1.428   1_556 S
C1419  C527    1.394   1_556 S
C1420  O1470   1.401   .     S
C1420  C1421   1.438   .     A
C1421  O1477   1.383   .     S
C1422  O1472   1.376   .     S
C1423  O1485   1.386   .     S
Cu1424 O1462   1.989   .     S
Cu1424 Cu1425  2.739   .     S
Cu1424 O1481   1.981   .     S
Cu1424 O1483   1.986   .     S
Cu1424 N1460   2.058   .     S
Cu1424 O1479   1.969   .     S
Cu1425 O1473   1.981   .     S
Cu1425 N1461   2.058   .     S
Cu1425 O1484   1.969   .     S
Cu1425 O1480   1.986   .     S
Cu1425 O1482   1.989   .     S
H1442  O1471   0.989   .     S
H1443  O1472   0.993   .     S
H1447  O1475   0.984   .     S
H1449  O1476   0.988   .     S
H1450  O1477   0.992   .     S
H1454  O1463   0.989   .     S
H1458  O1465   0.993   .     S
O1471  C512    1.379   1_556 S
C1486  O1572   1.313   .     A
C1486  C1494   1.480   .     S
C1486  O1561   1.319   .     A
C1487  C1489   1.492   .     S
C1487  C1504   1.401   .     A
C1487  C1508   1.412   .     A
C1488  O1577   1.400   .     S
C1488  C1494   1.414   .     A
C1488  C896    1.411   1_565 S
C1489  O1579   1.318   .     A
C1489  O1578   1.322   .     A
C1490  O1562   1.370   .     S
C1490  C1491   1.413   .     A
C1491  C1500   1.479   .     S
C1491  C1492   1.400   .     A
C1492  O1563   1.387   .     S
C1493  C1494   1.412   .     A
C1493  O1564   1.364   .     S
C1493  C898    1.398   1_565 S
C1495  N1560   1.378   .     A
C1495  O1565   1.382   .     S
C1495  C1595   1.443   .     S
C1496  O1566   1.378   .     S
C1496  N1559   1.378   .     A
C1496  C1693   1.443   1_455 S
C1497  C1508   1.399   .     A
C1497  C615    1.401   1_556 S
C1497  C626    1.398   1_556 S
C1498  O1567   1.372   .     S
C1498  N1559   1.388   .     A
C1498  C1697   1.461   1_455 S
C1499  O1568   1.397   .     S
C1499  N1560   1.360   .     A
C1499  C1597   1.461   .     S
C1500  O1580   1.320   .     A
C1500  O1581   1.313   .     A
C1501  O1582   1.327   .     A
C1501  O1583   1.307   .     A
C1501  C1503   1.482   .     S
C1502  C1522   1.434   .     A
C1503  C1522   1.416   .     A
C1503  C1521   1.386   .     A
C1504  C1505   1.397   .     A
C1504  O1573   1.369   .     S
C1505  C615    1.410   1_556 S
C1505  O684    1.377   1_556 S
C1506  O1574   1.374   .     S
C1507  H1547   1.107   .     S
C1507  H1525   1.111   .     S
C1507  O1584   1.403   .     S
C1507  H1536   1.107   .     S
C1508  C1520   1.407   .     A
C1509  H1554   1.115   .     S
C1509  H1555   1.105   .     S
C1509  O1563   1.407   .     S
C1509  H1556   1.109   .     S
C1510  O1565   1.409   .     S
C1510  H1526   1.106   .     S
C1510  H1527   1.107   .     S
C1510  H1558   1.109   .     S
C1511  H1529   1.108   .     S
C1511  H1530   1.107   .     S
C1511  H1528   1.109   .     S
C1511  O1566   1.411   .     S
C1512  H1533   1.107   .     S
C1512  H1531   1.105   .     S
C1512  H1532   1.093   .     S
C1512  O1567   1.408   .     S
C1513  O1568   1.409   .     S
C1513  H1534   1.101   .     S
C1513  H1537   1.108   .     S
C1513  H1634   1.104   .     S
C1514  H1539   1.111   .     S
C1514  O1569   1.415   .     S
C1514  H1538   1.098   .     S
C1514  H1639   1.103   .     S
C1515  H1545   1.107   .     S
C1515  H1544   1.113   .     S
C1515  O1573   1.414   .     S
C1515  H1543   1.113   .     S
C1516  H1551   1.108   .     S
C1516  H1552   1.109   .     S
C1516  H1550   1.113   .     S
C1516  O1577   1.411   .     S
C1517  C1521   1.397   .     A
C1518  C1519   1.428   .     A
C1518  C611    1.428   1_556 S
C1518  C626    1.394   1_556 S
C1519  O1569   1.401   .     S
C1519  C1520   1.438   .     A
C1520  O1576   1.383   .     S
C1521  O1571   1.376   .     S
C1522  O1584   1.386   .     S
Cu1523 O1561   1.989   .     S
Cu1523 Cu1524  2.739   .     S
Cu1523 O1580   1.981   .     S
Cu1523 O1582   1.986   .     S
Cu1523 N1559   2.058   .     S
Cu1523 O1578   1.969   .     S
Cu1524 O1572   1.981   .     S
Cu1524 N1560   2.058   .     S
Cu1524 O1583   1.969   .     S
Cu1524 O1579   1.986   .     S
Cu1524 O1581   1.989   .     S
H1535  C1711   1.104   1_455 S
H1540  C1712   1.103   1_455 S
H1541  O1570   0.989   .     S
H1542  O1571   0.993   .     S
H1546  O1574   0.984   .     S
H1548  O1575   0.988   .     S
H1549  O1576   0.992   .     S
H1553  O1562   0.989   .     S
H1557  O1564   0.993   .     S
O1570  C611    1.379   1_556 S
C1585  O1671   1.313   .     A
C1585  C1593   1.480   .     S
C1585  O1660   1.319   .     A
C1586  C1588   1.492   .     S
C1586  C1603   1.401   .     A
C1586  C1607   1.412   .     A
C1587  O1676   1.400   .     S
C1587  C1593   1.414   .     A
C1587  C995    1.411   1_565 S
C1588  O1678   1.318   .     A
C1588  O1677   1.322   .     A
C1589  O1661   1.370   .     S
C1589  C1590   1.413   .     A
C1590  C1599   1.479   .     S
C1590  C1591   1.400   .     A
C1591  O1662   1.387   .     S
C1592  C1593   1.412   .     A
C1592  O1663   1.364   .     S
C1592  C997    1.398   1_565 S
C1594  N1659   1.378   .     A
C1594  O1664   1.382   .     S
C1594  C1694   1.443   .     S
C1595  O1665   1.378   .     S
C1595  N1658   1.378   .     A
C1596  C1607   1.399   .     A
C1596  C714    1.401   1_556 S
C1596  C725    1.398   1_556 S
C1597  O1666   1.372   .     S
C1597  N1658   1.388   .     A
C1598  O1667   1.397   .     S
C1598  N1659   1.360   .     A
C1598  C1696   1.461   .     S
C1599  O1679   1.320   .     A
C1599  O1680   1.313   .     A
C1600  O1681   1.327   .     A
C1600  O1682   1.307   .     A
C1600  C1602   1.482   .     S
C1601  C1621   1.434   .     A
C1602  C1621   1.416   .     A
C1602  C1620   1.386   .     A
C1603  C1604   1.397   .     A
C1603  O1672   1.369   .     S
C1604  C714    1.410   1_556 S
C1604  O783    1.377   1_556 S
C1605  O1673   1.374   .     S
C1606  H1646   1.107   .     S
C1606  H1624   1.111   .     S
C1606  O1683   1.403   .     S
C1606  H1635   1.107   .     S
C1607  C1619   1.407   .     A
C1608  H1653   1.115   .     S
C1608  H1654   1.105   .     S
C1608  O1662   1.407   .     S
C1608  H1655   1.109   .     S
C1609  O1664   1.409   .     S
C1609  H1625   1.106   .     S
C1609  H1626   1.107   .     S
C1609  H1657   1.109   .     S
C1610  H1628   1.108   .     S
C1610  H1629   1.107   .     S
C1610  H1627   1.109   .     S
C1610  O1665   1.411   .     S
C1611  H1632   1.107   .     S
C1611  H1630   1.105   .     S
C1611  H1631   1.093   .     S
C1611  O1666   1.408   .     S
C1612  O1667   1.409   .     S
C1612  H1633   1.101   .     S
C1612  H1636   1.108   .     S
C1612  H1733   1.104   .     S
C1613  H1638   1.111   .     S
C1613  O1668   1.415   .     S
C1613  H1637   1.098   .     S
C1613  H1738   1.103   .     S
C1614  H1644   1.107   .     S
C1614  H1643   1.113   .     S
C1614  O1672   1.414   .     S
C1614  H1642   1.113   .     S
C1615  H1650   1.108   .     S
C1615  H1651   1.109   .     S
C1615  H1649   1.113   .     S
C1615  O1676   1.411   .     S
C1616  C1620   1.397   .     A
C1617  C1618   1.428   .     A
C1617  C710    1.428   1_556 S
C1617  C725    1.394   1_556 S
C1618  O1668   1.401   .     S
C1618  C1619   1.438   .     A
C1619  O1675   1.383   .     S
C1620  O1670   1.376   .     S
C1621  O1683   1.386   .     S
Cu1622 O1660   1.989   .     S
Cu1622 Cu1623  2.739   .     S
Cu1622 O1679   1.981   .     S
Cu1622 O1681   1.986   .     S
Cu1622 N1658   2.058   .     S
Cu1622 O1677   1.969   .     S
Cu1623 O1671   1.981   .     S
Cu1623 N1659   2.058   .     S
Cu1623 O1682   1.969   .     S
Cu1623 O1678   1.986   .     S
Cu1623 O1680   1.989   .     S
H1640  O1669   0.989   .     S
H1641  O1670   0.993   .     S
H1645  O1673   0.984   .     S
H1647  O1674   0.988   .     S
H1648  O1675   0.992   .     S
H1652  O1661   0.989   .     S
H1656  O1663   0.993   .     S
O1669  C710    1.379   1_556 S
C1684  O1770   1.313   .     A
C1684  C1692   1.480   .     S
C1684  O1759   1.319   .     A
C1685  C1687   1.492   .     S
C1685  C1702   1.401   .     A
C1685  C1706   1.412   .     A
C1686  O1775   1.400   .     S
C1686  C1692   1.414   .     A
C1686  C1094   1.411   1_565 S
C1687  O1777   1.318   .     A
C1687  O1776   1.322   .     A
C1688  O1760   1.370   .     S
C1688  C1689   1.413   .     A
C1689  C1698   1.479   .     S
C1689  C1690   1.400   .     A
C1690  O1761   1.387   .     S
C1691  C1692   1.412   .     A
C1691  O1762   1.364   .     S
C1691  C1096   1.398   1_565 S
C1693  N1758   1.378   .     A
C1693  O1763   1.382   .     S
C1693  C1496   1.443   1_655 S
C1694  O1764   1.378   .     S
C1694  N1757   1.378   .     A
C1695  C1706   1.399   .     A
C1695  C813    1.401   1_556 S
C1695  C824    1.398   1_556 S
C1696  O1765   1.372   .     S
C1696  N1757   1.388   .     A
C1697  O1766   1.397   .     S
C1697  N1758   1.360   .     A
C1697  C1498   1.461   1_655 S
C1698  O1778   1.320   .     A
C1698  O1779   1.313   .     A
C1699  O1780   1.327   .     A
C1699  O1781   1.307   .     A
C1699  C1701   1.482   .     S
C1700  C1720   1.434   .     A
C1701  C1720   1.416   .     A
C1701  C1719   1.386   .     A
C1702  C1703   1.397   .     A
C1702  O1771   1.369   .     S
C1703  C813    1.410   1_556 S
C1703  O882    1.377   1_556 S
C1704  O1772   1.374   .     S
C1705  H1745   1.107   .     S
C1705  H1723   1.111   .     S
C1705  O1782   1.403   .     S
C1705  H1734   1.107   .     S
C1706  C1718   1.407   .     A
C1707  H1752   1.115   .     S
C1707  H1753   1.105   .     S
C1707  O1761   1.407   .     S
C1707  H1754   1.109   .     S
C1708  O1763   1.409   .     S
C1708  H1724   1.106   .     S
C1708  H1725   1.107   .     S
C1708  H1756   1.109   .     S
C1709  H1727   1.108   .     S
C1709  H1728   1.107   .     S
C1709  H1726   1.109   .     S
C1709  O1764   1.411   .     S
C1710  H1731   1.107   .     S
C1710  H1729   1.105   .     S
C1710  H1730   1.093   .     S
C1710  O1765   1.408   .     S
C1711  O1766   1.409   .     S
C1711  H1732   1.101   .     S
C1711  H1735   1.108   .     S
C1711  H1535   1.104   1_655 S
C1712  H1737   1.111   .     S
C1712  O1767   1.415   .     S
C1712  H1736   1.098   .     S
C1712  H1540   1.103   1_655 S
C1713  H1743   1.107   .     S
C1713  H1742   1.113   .     S
C1713  O1771   1.414   .     S
C1713  H1741   1.113   .     S
C1714  H1749   1.108   .     S
C1714  H1750   1.109   .     S
C1714  H1748   1.113   .     S
C1714  O1775   1.411   .     S
C1715  C1719   1.397   .     A
C1716  C1717   1.428   .     A
C1716  C809    1.428   1_556 S
C1716  C824    1.394   1_556 S
C1717  O1767   1.401   .     S
C1717  C1718   1.438   .     A
C1718  O1774   1.383   .     S
C1719  O1769   1.376   .     S
C1720  O1782   1.386   .     S
Cu1721 O1759   1.989   .     S
Cu1721 Cu1722  2.739   .     S
Cu1721 O1778   1.981   .     S
Cu1721 O1780   1.986   .     S
Cu1721 N1757   2.058   .     S
Cu1721 O1776   1.969   .     S
Cu1722 O1770   1.981   .     S
Cu1722 N1758   2.058   .     S
Cu1722 O1781   1.969   .     S
Cu1722 O1777   1.986   .     S
Cu1722 O1779   1.989   .     S
H1739  O1768   0.989   .     S
H1740  O1769   0.993   .     S
H1744  O1772   0.984   .     S
H1746  O1773   0.988   .     S
H1747  O1774   0.992   .     S
H1751  O1760   0.989   .     S
H1755  O1762   0.993   .     S
O1768  C809    1.379   1_556 S
