data_str_m2_o10_o16_pcu_sym.77
_audit_creation_date              2020-01-03
_audit_creation_method            'Materials Studio'
_symmetry_space_group_name_H-M    'P1'
_symmetry_Int_Tables_number       1
_symmetry_cell_setting            triclinic
loop_
_symmetry_equiv_pos_as_xyz
  x,y,z
_cell_length_a                    22.4478
_cell_length_b                    26.1423
_cell_length_c                    26.9379
_cell_angle_alpha                 93.3146
_cell_angle_beta                  78.2133
_cell_angle_gamma                 103.3329
loop_
_atom_site_label
_atom_site_type_symbol
_atom_site_fract_x
_atom_site_fract_y
_atom_site_fract_z
_atom_site_U_iso_or_equiv
_atom_site_adp_type
_atom_site_occupancy
C1     C     0.18188   0.26669   0.25121   0.00000  Uiso   1.00
C2     C     0.11384   0.16218   0.40226   0.00000  Uiso   1.00
C3     C     0.19040   0.32269   0.25163   0.00000  Uiso   1.00
C4     C     0.13365   0.16509   0.34687   0.00000  Uiso   1.00
C5     C     0.14345   0.01066   0.24691   0.00000  Uiso   1.00
C6     C     0.15167   0.06665   0.24819   0.00000  Uiso   1.00
C7     C     0.19976   0.16913   0.15328   0.00000  Uiso   1.00
C8     C     0.29250   0.21448   0.02636   0.00000  Uiso   1.00
C9     C     0.21836   0.17250   0.09815   0.00000  Uiso   1.00
C10    C     0.05330   0.13404   0.42200   0.00000  Uiso   1.00
C11    C     0.03261   0.12646   0.47375   0.00000  Uiso   1.00
C12    C     0.13812   0.16759   0.48717   0.00000  Uiso   1.00
C13    C     0.07395   0.14833   0.00619   0.00000  Uiso   1.00
C14    C     0.11774   0.07417   0.10591   0.00000  Uiso   1.00
C15    C     0.10562   0.03031   0.06668   0.00000  Uiso   1.00
C16    C     0.08853   0.30939   0.09095   0.00000  Uiso   1.00
C17    C     0.29022   0.07376   0.03526   0.00000  Uiso   1.00
C18    C     0.27234   0.01496   0.02461   0.00000  Uiso   1.00
C19    C     0.24966   0.31845   0.07459   0.00000  Uiso   1.00
C20    C     0.15622   0.18115   0.43533   0.00000  Uiso   1.00
C21    C     0.18443   0.17577   0.01802   0.00000  Uiso   1.00
C22    C     0.24576   0.20461   0.49754   0.00000  Uiso   1.00
C23    C     0.25966   0.22514   0.44895   0.00000  Uiso   1.00
C24    C     0.21539   0.21435   0.41856   0.00000  Uiso   1.00
C25    C     0.17299   0.15474   0.06749   0.00000  Uiso   1.00
C26    C     0.27866   0.19928   0.07660   0.00000  Uiso   1.00
Cu27   Cu    0.10710   0.16105   0.24436   0.00000  Uiso   1.00
Cu28   Cu    0.22623   0.17228   0.25565   0.00000  Uiso   1.00
H29    H     0.31416   0.21119   0.09939   0.00000  Uiso   1.00
H30    H     0.23562   0.01319   0.25611   0.00000  Uiso   1.00
H31    H     0.08000   0.06526   0.14010   0.00000  Uiso   1.00
H32    H     0.16173   0.07408   0.11856   0.00000  Uiso   1.00
H33    H     0.06703   0.03448   0.04865   0.00000  Uiso   1.00
H34    H     0.14759   0.03366   0.03627   0.00000  Uiso   1.00
H35    H     0.12255   0.30511   0.11400   0.00000  Uiso   1.00
H36    H     0.08709   0.27837   0.06100   0.00000  Uiso   1.00
H37    H     0.04228   0.30349   0.11674   0.00000  Uiso   1.00
H38    H     0.24977   0.08524   0.05966   0.00000  Uiso   1.00
H39    H     0.32680   0.08086   0.05826   0.00000  Uiso   1.00
H40    H     0.09828   0.32018   0.24230   0.00000  Uiso   1.00
H41    H     0.23509   0.00646   0.00188   0.00000  Uiso   1.00
H42    H     0.31331   0.00155   0.00200   0.00000  Uiso   1.00
H43    H     0.28976   0.31005   0.08790   0.00000  Uiso   1.00
H44    H     0.21633   0.28110   0.06923   0.00000  Uiso   1.00
H45    H     0.22580   0.00810   0.10496   0.00000  Uiso   1.00
H46    H     0.00383   0.20577   0.28941   0.00000  Uiso   1.00
H47    H     0.32952   0.12757   0.21057   0.00000  Uiso   1.00
H48    H     0.30527   0.24957   0.43417   0.00000  Uiso   1.00
H49    H     0.00577   0.23655   0.01074   0.00000  Uiso   1.00
H50    H     0.02115   0.11802   0.39702   0.00000  Uiso   1.00
H51    H     0.05499   0.15435   0.04550   0.00000  Uiso   1.00
H52    H     0.22814   0.23359   0.38232   0.00000  Uiso   1.00
N53    N     0.31574   0.18074   0.26416   0.00000  Uiso   1.00
N54    N     0.01759   0.15259   0.23584   0.00000  Uiso   1.00
O55    O     0.12797   0.23807   0.24633   0.00000  Uiso   1.00
O56    O     0.30329   0.10257   0.48993   0.00000  Uiso   1.00
O57    O     0.22858   0.24755   0.25587   0.00000  Uiso   1.00
O58    O     0.09181   0.15960   0.31840   0.00000  Uiso   1.00
O59    O     0.19242   0.16908   0.32793   0.00000  Uiso   1.00
O60    O     0.10476   0.08578   0.24414   0.00000  Uiso   1.00
O61    O     0.20536   0.09526   0.25367   0.00000  Uiso   1.00
O62    O     0.14092   0.16425   0.17207   0.00000  Uiso   1.00
O63    O     0.24152   0.17373   0.18161   0.00000  Uiso   1.00
O64    O     0.11485   0.12308   0.08743   0.00000  Uiso   1.00
C65    C     0.51521   0.26669   0.25121   0.00000  Uiso   1.00
C66    C     0.44718   0.16218   0.40226   0.00000  Uiso   1.00
C67    C     0.52373   0.32269   0.25163   0.00000  Uiso   1.00
C68    C     0.46699   0.16509   0.34687   0.00000  Uiso   1.00
C69    C     0.47679   0.01066   0.24691   0.00000  Uiso   1.00
C70    C     0.48501   0.06665   0.24819   0.00000  Uiso   1.00
C71    C     0.53310   0.16913   0.15328   0.00000  Uiso   1.00
C72    C     0.62584   0.21448   0.02636   0.00000  Uiso   1.00
C73    C     0.55170   0.17250   0.09815   0.00000  Uiso   1.00
C74    C     0.38663   0.13404   0.42200   0.00000  Uiso   1.00
C75    C     0.36595   0.12646   0.47375   0.00000  Uiso   1.00
C76    C     0.47145   0.16759   0.48717   0.00000  Uiso   1.00
C77    C     0.40729   0.14833   0.00619   0.00000  Uiso   1.00
C78    C     0.45107   0.07417   0.10591   0.00000  Uiso   1.00
C79    C     0.43896   0.03031   0.06668   0.00000  Uiso   1.00
C80    C     0.42186   0.30939   0.09095   0.00000  Uiso   1.00
C81    C     0.62355   0.07376   0.03526   0.00000  Uiso   1.00
C82    C     0.60567   0.01496   0.02461   0.00000  Uiso   1.00
C83    C     0.58299   0.31845   0.07459   0.00000  Uiso   1.00
C84    C     0.48956   0.18115   0.43533   0.00000  Uiso   1.00
C85    C     0.51776   0.17577   0.01802   0.00000  Uiso   1.00
C86    C     0.57909   0.20461   0.49754   0.00000  Uiso   1.00
C87    C     0.59299   0.22514   0.44895   0.00000  Uiso   1.00
C88    C     0.54873   0.21435   0.41856   0.00000  Uiso   1.00
C89    C     0.50632   0.15474   0.06749   0.00000  Uiso   1.00
C90    C     0.61199   0.19928   0.07660   0.00000  Uiso   1.00
Cu91   Cu    0.44043   0.16105   0.24436   0.00000  Uiso   1.00
Cu92   Cu    0.55957   0.17228   0.25565   0.00000  Uiso   1.00
H93    H     0.64749   0.21119   0.09939   0.00000  Uiso   1.00
H94    H     0.56895   0.01319   0.25611   0.00000  Uiso   1.00
H95    H     0.41334   0.06526   0.14010   0.00000  Uiso   1.00
H96    H     0.49506   0.07408   0.11856   0.00000  Uiso   1.00
H97    H     0.40036   0.03448   0.04865   0.00000  Uiso   1.00
H98    H     0.48092   0.03366   0.03627   0.00000  Uiso   1.00
H99    H     0.45588   0.30511   0.11400   0.00000  Uiso   1.00
H100   H     0.42042   0.27837   0.06100   0.00000  Uiso   1.00
H101   H     0.37562   0.30349   0.11674   0.00000  Uiso   1.00
H102   H     0.58310   0.08524   0.05966   0.00000  Uiso   1.00
H103   H     0.66013   0.08086   0.05826   0.00000  Uiso   1.00
H104   H     0.43161   0.32018   0.24230   0.00000  Uiso   1.00
H105   H     0.56842   0.00646   0.00188   0.00000  Uiso   1.00
H106   H     0.64664   0.00155   0.00200   0.00000  Uiso   1.00
H107   H     0.62310   0.31005   0.08790   0.00000  Uiso   1.00
H108   H     0.54967   0.28110   0.06923   0.00000  Uiso   1.00
H109   H     0.55914   0.00810   0.10496   0.00000  Uiso   1.00
H110   H     0.33716   0.20577   0.28941   0.00000  Uiso   1.00
H111   H     0.66285   0.12757   0.21057   0.00000  Uiso   1.00
H112   H     0.63860   0.24957   0.43417   0.00000  Uiso   1.00
H113   H     0.33911   0.23655   0.01074   0.00000  Uiso   1.00
H114   H     0.35449   0.11802   0.39702   0.00000  Uiso   1.00
H115   H     0.38832   0.15435   0.04550   0.00000  Uiso   1.00
H116   H     0.56147   0.23359   0.38232   0.00000  Uiso   1.00
N117   N     0.64908   0.18074   0.26416   0.00000  Uiso   1.00
N118   N     0.35092   0.15259   0.23584   0.00000  Uiso   1.00
O119   O     0.46131   0.23807   0.24633   0.00000  Uiso   1.00
O120   O     0.63662   0.10257   0.48993   0.00000  Uiso   1.00
O121   O     0.56191   0.24755   0.25587   0.00000  Uiso   1.00
O122   O     0.42515   0.15960   0.31840   0.00000  Uiso   1.00
O123   O     0.52575   0.16908   0.32793   0.00000  Uiso   1.00
O124   O     0.43809   0.08578   0.24414   0.00000  Uiso   1.00
O125   O     0.53869   0.09526   0.25367   0.00000  Uiso   1.00
O126   O     0.47425   0.16425   0.17207   0.00000  Uiso   1.00
O127   O     0.57485   0.17373   0.18161   0.00000  Uiso   1.00
O128   O     0.44818   0.12308   0.08743   0.00000  Uiso   1.00
C129   C     0.84854   0.26669   0.25121   0.00000  Uiso   1.00
C130   C     0.78051   0.16218   0.40226   0.00000  Uiso   1.00
C131   C     0.85706   0.32269   0.25163   0.00000  Uiso   1.00
C132   C     0.80032   0.16509   0.34687   0.00000  Uiso   1.00
C133   C     0.81012   0.01066   0.24691   0.00000  Uiso   1.00
C134   C     0.81834   0.06665   0.24819   0.00000  Uiso   1.00
C135   C     0.86643   0.16913   0.15328   0.00000  Uiso   1.00
C136   C     0.95917   0.21448   0.02636   0.00000  Uiso   1.00
C137   C     0.88503   0.17250   0.09815   0.00000  Uiso   1.00
C138   C     0.71997   0.13404   0.42200   0.00000  Uiso   1.00
C139   C     0.69928   0.12646   0.47375   0.00000  Uiso   1.00
C140   C     0.80478   0.16759   0.48717   0.00000  Uiso   1.00
C141   C     0.74062   0.14833   0.00619   0.00000  Uiso   1.00
C142   C     0.78440   0.07417   0.10591   0.00000  Uiso   1.00
C143   C     0.77229   0.03031   0.06668   0.00000  Uiso   1.00
C144   C     0.75520   0.30939   0.09095   0.00000  Uiso   1.00
C145   C     0.95688   0.07376   0.03526   0.00000  Uiso   1.00
C146   C     0.93900   0.01496   0.02461   0.00000  Uiso   1.00
C147   C     0.91632   0.31845   0.07459   0.00000  Uiso   1.00
C148   C     0.82289   0.18115   0.43533   0.00000  Uiso   1.00
C149   C     0.85109   0.17577   0.01802   0.00000  Uiso   1.00
C150   C     0.91242   0.20461   0.49754   0.00000  Uiso   1.00
C151   C     0.92633   0.22514   0.44895   0.00000  Uiso   1.00
C152   C     0.88206   0.21435   0.41856   0.00000  Uiso   1.00
C153   C     0.83965   0.15474   0.06749   0.00000  Uiso   1.00
C154   C     0.94533   0.19928   0.07660   0.00000  Uiso   1.00
Cu155  Cu    0.77377   0.16105   0.24436   0.00000  Uiso   1.00
Cu156  Cu    0.89290   0.17228   0.25565   0.00000  Uiso   1.00
H157   H     0.98082   0.21119   0.09939   0.00000  Uiso   1.00
H158   H     0.90228   0.01319   0.25611   0.00000  Uiso   1.00
H159   H     0.74667   0.06526   0.14010   0.00000  Uiso   1.00
H160   H     0.82839   0.07408   0.11856   0.00000  Uiso   1.00
H161   H     0.73369   0.03448   0.04865   0.00000  Uiso   1.00
H162   H     0.81426   0.03366   0.03627   0.00000  Uiso   1.00
H163   H     0.78922   0.30511   0.11400   0.00000  Uiso   1.00
H164   H     0.75376   0.27837   0.06100   0.00000  Uiso   1.00
H165   H     0.70895   0.30349   0.11674   0.00000  Uiso   1.00
H166   H     0.91644   0.08524   0.05966   0.00000  Uiso   1.00
H167   H     0.99346   0.08086   0.05826   0.00000  Uiso   1.00
H168   H     0.76494   0.32018   0.24230   0.00000  Uiso   1.00
H169   H     0.90175   0.00646   0.00188   0.00000  Uiso   1.00
H170   H     0.97997   0.00155   0.00200   0.00000  Uiso   1.00
H171   H     0.95643   0.31005   0.08790   0.00000  Uiso   1.00
H172   H     0.88300   0.28110   0.06923   0.00000  Uiso   1.00
H173   H     0.89247   0.00810   0.10496   0.00000  Uiso   1.00
H174   H     0.67050   0.20577   0.28941   0.00000  Uiso   1.00
H175   H     0.99618   0.12757   0.21057   0.00000  Uiso   1.00
H176   H     0.97194   0.24957   0.43417   0.00000  Uiso   1.00
H177   H     0.67244   0.23655   0.01074   0.00000  Uiso   1.00
H178   H     0.68782   0.11802   0.39702   0.00000  Uiso   1.00
H179   H     0.72165   0.15435   0.04550   0.00000  Uiso   1.00
H180   H     0.89481   0.23359   0.38232   0.00000  Uiso   1.00
N181   N     0.98241   0.18074   0.26416   0.00000  Uiso   1.00
N182   N     0.68426   0.15259   0.23584   0.00000  Uiso   1.00
O183   O     0.79464   0.23807   0.24633   0.00000  Uiso   1.00
O184   O     0.96996   0.10257   0.48993   0.00000  Uiso   1.00
O185   O     0.89524   0.24755   0.25587   0.00000  Uiso   1.00
O186   O     0.75848   0.15960   0.31840   0.00000  Uiso   1.00
O187   O     0.85908   0.16908   0.32793   0.00000  Uiso   1.00
O188   O     0.77142   0.08578   0.24414   0.00000  Uiso   1.00
O189   O     0.87203   0.09526   0.25367   0.00000  Uiso   1.00
O190   O     0.80758   0.16425   0.17207   0.00000  Uiso   1.00
O191   O     0.90819   0.17373   0.18161   0.00000  Uiso   1.00
O192   O     0.78151   0.12308   0.08743   0.00000  Uiso   1.00
C193   C     0.18188   0.60002   0.25121   0.00000  Uiso   1.00
C194   C     0.11384   0.49552   0.40226   0.00000  Uiso   1.00
C195   C     0.19040   0.65603   0.25163   0.00000  Uiso   1.00
C196   C     0.13365   0.49842   0.34687   0.00000  Uiso   1.00
C197   C     0.14345   0.34400   0.24691   0.00000  Uiso   1.00
C198   C     0.15167   0.39999   0.24819   0.00000  Uiso   1.00
C199   C     0.19976   0.50246   0.15328   0.00000  Uiso   1.00
C200   C     0.29250   0.54781   0.02636   0.00000  Uiso   1.00
C201   C     0.21836   0.50583   0.09815   0.00000  Uiso   1.00
C202   C     0.05330   0.46738   0.42200   0.00000  Uiso   1.00
C203   C     0.03261   0.45979   0.47375   0.00000  Uiso   1.00
C204   C     0.13812   0.50092   0.48717   0.00000  Uiso   1.00
C205   C     0.07395   0.48166   0.00619   0.00000  Uiso   1.00
C206   C     0.11774   0.40751   0.10591   0.00000  Uiso   1.00
C207   C     0.10562   0.36365   0.06668   0.00000  Uiso   1.00
C208   C     0.08853   0.64272   0.09095   0.00000  Uiso   1.00
C209   C     0.29022   0.40709   0.03526   0.00000  Uiso   1.00
C210   C     0.27234   0.34829   0.02461   0.00000  Uiso   1.00
C211   C     0.24966   0.65178   0.07459   0.00000  Uiso   1.00
C212   C     0.15622   0.51448   0.43533   0.00000  Uiso   1.00
C213   C     0.18443   0.50911   0.01802   0.00000  Uiso   1.00
C214   C     0.24576   0.53795   0.49754   0.00000  Uiso   1.00
C215   C     0.25966   0.55847   0.44895   0.00000  Uiso   1.00
C216   C     0.21539   0.54768   0.41856   0.00000  Uiso   1.00
C217   C     0.17299   0.48807   0.06749   0.00000  Uiso   1.00
C218   C     0.27866   0.53262   0.07660   0.00000  Uiso   1.00
Cu219  Cu    0.10710   0.49439   0.24436   0.00000  Uiso   1.00
Cu220  Cu    0.22623   0.50561   0.25565   0.00000  Uiso   1.00
H221   H     0.31416   0.54452   0.09939   0.00000  Uiso   1.00
H222   H     0.23562   0.34652   0.25611   0.00000  Uiso   1.00
H223   H     0.08000   0.39859   0.14010   0.00000  Uiso   1.00
H224   H     0.16173   0.40741   0.11856   0.00000  Uiso   1.00
H225   H     0.06703   0.36781   0.04865   0.00000  Uiso   1.00
H226   H     0.14759   0.36699   0.03627   0.00000  Uiso   1.00
H227   H     0.12255   0.63845   0.11400   0.00000  Uiso   1.00
H228   H     0.08709   0.61170   0.06100   0.00000  Uiso   1.00
H229   H     0.04228   0.63682   0.11674   0.00000  Uiso   1.00
H230   H     0.24977   0.41857   0.05966   0.00000  Uiso   1.00
H231   H     0.32680   0.41420   0.05826   0.00000  Uiso   1.00
H232   H     0.09828   0.65351   0.24230   0.00000  Uiso   1.00
H233   H     0.23509   0.33979   0.00188   0.00000  Uiso   1.00
H234   H     0.31331   0.33488   0.00200   0.00000  Uiso   1.00
H235   H     0.28976   0.64338   0.08790   0.00000  Uiso   1.00
H236   H     0.21633   0.61443   0.06923   0.00000  Uiso   1.00
H237   H     0.22580   0.34143   0.10496   0.00000  Uiso   1.00
H238   H     0.00383   0.53910   0.28941   0.00000  Uiso   1.00
H239   H     0.32952   0.46090   0.21057   0.00000  Uiso   1.00
H240   H     0.30527   0.58290   0.43417   0.00000  Uiso   1.00
H241   H     0.00577   0.56989   0.01074   0.00000  Uiso   1.00
H242   H     0.02115   0.45135   0.39702   0.00000  Uiso   1.00
H243   H     0.05499   0.48768   0.04550   0.00000  Uiso   1.00
H244   H     0.22814   0.56693   0.38232   0.00000  Uiso   1.00
N245   N     0.31574   0.51407   0.26416   0.00000  Uiso   1.00
N246   N     0.01759   0.48593   0.23584   0.00000  Uiso   1.00
O247   O     0.12797   0.57141   0.24633   0.00000  Uiso   1.00
O248   O     0.30329   0.43590   0.48993   0.00000  Uiso   1.00
O249   O     0.22858   0.58089   0.25587   0.00000  Uiso   1.00
O250   O     0.09181   0.49293   0.31840   0.00000  Uiso   1.00
O251   O     0.19242   0.50241   0.32793   0.00000  Uiso   1.00
O252   O     0.10476   0.41911   0.24414   0.00000  Uiso   1.00
O253   O     0.20536   0.42859   0.25367   0.00000  Uiso   1.00
O254   O     0.14092   0.49759   0.17207   0.00000  Uiso   1.00
O255   O     0.24152   0.50707   0.18161   0.00000  Uiso   1.00
O256   O     0.11485   0.45642   0.08743   0.00000  Uiso   1.00
C257   C     0.51521   0.60002   0.25121   0.00000  Uiso   1.00
C258   C     0.44718   0.49552   0.40226   0.00000  Uiso   1.00
C259   C     0.52373   0.65603   0.25163   0.00000  Uiso   1.00
C260   C     0.46699   0.49842   0.34687   0.00000  Uiso   1.00
C261   C     0.47679   0.34400   0.24691   0.00000  Uiso   1.00
C262   C     0.48501   0.39999   0.24819   0.00000  Uiso   1.00
C263   C     0.53310   0.50246   0.15328   0.00000  Uiso   1.00
C264   C     0.62584   0.54781   0.02636   0.00000  Uiso   1.00
C265   C     0.55170   0.50583   0.09815   0.00000  Uiso   1.00
C266   C     0.38663   0.46738   0.42200   0.00000  Uiso   1.00
C267   C     0.36595   0.45979   0.47375   0.00000  Uiso   1.00
C268   C     0.47145   0.50092   0.48717   0.00000  Uiso   1.00
C269   C     0.40729   0.48166   0.00619   0.00000  Uiso   1.00
C270   C     0.45107   0.40751   0.10591   0.00000  Uiso   1.00
C271   C     0.43896   0.36365   0.06668   0.00000  Uiso   1.00
C272   C     0.42186   0.64272   0.09095   0.00000  Uiso   1.00
C273   C     0.62355   0.40709   0.03526   0.00000  Uiso   1.00
C274   C     0.60567   0.34829   0.02461   0.00000  Uiso   1.00
C275   C     0.58299   0.65178   0.07459   0.00000  Uiso   1.00
C276   C     0.48956   0.51448   0.43533   0.00000  Uiso   1.00
C277   C     0.51776   0.50911   0.01802   0.00000  Uiso   1.00
C278   C     0.57909   0.53795   0.49754   0.00000  Uiso   1.00
C279   C     0.59299   0.55847   0.44895   0.00000  Uiso   1.00
C280   C     0.54873   0.54768   0.41856   0.00000  Uiso   1.00
C281   C     0.50632   0.48807   0.06749   0.00000  Uiso   1.00
C282   C     0.61199   0.53262   0.07660   0.00000  Uiso   1.00
Cu283  Cu    0.44043   0.49439   0.24436   0.00000  Uiso   1.00
Cu284  Cu    0.55957   0.50561   0.25565   0.00000  Uiso   1.00
H285   H     0.64749   0.54452   0.09939   0.00000  Uiso   1.00
H286   H     0.56895   0.34652   0.25611   0.00000  Uiso   1.00
H287   H     0.41334   0.39859   0.14010   0.00000  Uiso   1.00
H288   H     0.49506   0.40741   0.11856   0.00000  Uiso   1.00
H289   H     0.40036   0.36781   0.04865   0.00000  Uiso   1.00
H290   H     0.48092   0.36699   0.03627   0.00000  Uiso   1.00
H291   H     0.45588   0.63845   0.11400   0.00000  Uiso   1.00
H292   H     0.42042   0.61170   0.06100   0.00000  Uiso   1.00
H293   H     0.37562   0.63682   0.11674   0.00000  Uiso   1.00
H294   H     0.58310   0.41857   0.05966   0.00000  Uiso   1.00
H295   H     0.66013   0.41420   0.05826   0.00000  Uiso   1.00
H296   H     0.43161   0.65351   0.24230   0.00000  Uiso   1.00
H297   H     0.56842   0.33979   0.00188   0.00000  Uiso   1.00
H298   H     0.64664   0.33488   0.00200   0.00000  Uiso   1.00
H299   H     0.62310   0.64338   0.08790   0.00000  Uiso   1.00
H300   H     0.54967   0.61443   0.06923   0.00000  Uiso   1.00
H301   H     0.55914   0.34143   0.10496   0.00000  Uiso   1.00
H302   H     0.33716   0.53910   0.28941   0.00000  Uiso   1.00
H303   H     0.66285   0.46090   0.21057   0.00000  Uiso   1.00
H304   H     0.63860   0.58290   0.43417   0.00000  Uiso   1.00
H305   H     0.33911   0.56989   0.01074   0.00000  Uiso   1.00
H306   H     0.35449   0.45135   0.39702   0.00000  Uiso   1.00
H307   H     0.38832   0.48768   0.04550   0.00000  Uiso   1.00
H308   H     0.56147   0.56693   0.38232   0.00000  Uiso   1.00
N309   N     0.64908   0.51407   0.26416   0.00000  Uiso   1.00
N310   N     0.35092   0.48593   0.23584   0.00000  Uiso   1.00
O311   O     0.46131   0.57141   0.24633   0.00000  Uiso   1.00
O312   O     0.63662   0.43590   0.48993   0.00000  Uiso   1.00
O313   O     0.56191   0.58089   0.25587   0.00000  Uiso   1.00
O314   O     0.42515   0.49293   0.31840   0.00000  Uiso   1.00
O315   O     0.52575   0.50241   0.32793   0.00000  Uiso   1.00
O316   O     0.43809   0.41911   0.24414   0.00000  Uiso   1.00
O317   O     0.53869   0.42859   0.25367   0.00000  Uiso   1.00
O318   O     0.47425   0.49759   0.17207   0.00000  Uiso   1.00
O319   O     0.57485   0.50707   0.18161   0.00000  Uiso   1.00
O320   O     0.44818   0.45642   0.08743   0.00000  Uiso   1.00
C321   C     0.84854   0.60002   0.25121   0.00000  Uiso   1.00
C322   C     0.78051   0.49552   0.40226   0.00000  Uiso   1.00
C323   C     0.85706   0.65603   0.25163   0.00000  Uiso   1.00
C324   C     0.80032   0.49842   0.34687   0.00000  Uiso   1.00
C325   C     0.81012   0.34400   0.24691   0.00000  Uiso   1.00
C326   C     0.81834   0.39999   0.24819   0.00000  Uiso   1.00
C327   C     0.86643   0.50246   0.15328   0.00000  Uiso   1.00
C328   C     0.95917   0.54781   0.02636   0.00000  Uiso   1.00
C329   C     0.88503   0.50583   0.09815   0.00000  Uiso   1.00
C330   C     0.71997   0.46738   0.42200   0.00000  Uiso   1.00
C331   C     0.69928   0.45979   0.47375   0.00000  Uiso   1.00
C332   C     0.80478   0.50092   0.48717   0.00000  Uiso   1.00
C333   C     0.74062   0.48166   0.00619   0.00000  Uiso   1.00
C334   C     0.78440   0.40751   0.10591   0.00000  Uiso   1.00
C335   C     0.77229   0.36365   0.06668   0.00000  Uiso   1.00
C336   C     0.75520   0.64272   0.09095   0.00000  Uiso   1.00
C337   C     0.95688   0.40709   0.03526   0.00000  Uiso   1.00
C338   C     0.93900   0.34829   0.02461   0.00000  Uiso   1.00
C339   C     0.91632   0.65178   0.07459   0.00000  Uiso   1.00
C340   C     0.82289   0.51448   0.43533   0.00000  Uiso   1.00
C341   C     0.85109   0.50911   0.01802   0.00000  Uiso   1.00
C342   C     0.91242   0.53795   0.49754   0.00000  Uiso   1.00
C343   C     0.92633   0.55847   0.44895   0.00000  Uiso   1.00
C344   C     0.88206   0.54768   0.41856   0.00000  Uiso   1.00
C345   C     0.83965   0.48807   0.06749   0.00000  Uiso   1.00
C346   C     0.94533   0.53262   0.07660   0.00000  Uiso   1.00
Cu347  Cu    0.77377   0.49439   0.24436   0.00000  Uiso   1.00
Cu348  Cu    0.89290   0.50561   0.25565   0.00000  Uiso   1.00
H349   H     0.98082   0.54452   0.09939   0.00000  Uiso   1.00
H350   H     0.90228   0.34652   0.25611   0.00000  Uiso   1.00
H351   H     0.74667   0.39859   0.14010   0.00000  Uiso   1.00
H352   H     0.82839   0.40741   0.11856   0.00000  Uiso   1.00
H353   H     0.73369   0.36781   0.04865   0.00000  Uiso   1.00
H354   H     0.81426   0.36699   0.03627   0.00000  Uiso   1.00
H355   H     0.78922   0.63845   0.11400   0.00000  Uiso   1.00
H356   H     0.75376   0.61170   0.06100   0.00000  Uiso   1.00
H357   H     0.70895   0.63682   0.11674   0.00000  Uiso   1.00
H358   H     0.91644   0.41857   0.05966   0.00000  Uiso   1.00
H359   H     0.99346   0.41420   0.05826   0.00000  Uiso   1.00
H360   H     0.76494   0.65351   0.24230   0.00000  Uiso   1.00
H361   H     0.90175   0.33979   0.00188   0.00000  Uiso   1.00
H362   H     0.97997   0.33488   0.00200   0.00000  Uiso   1.00
H363   H     0.95643   0.64338   0.08790   0.00000  Uiso   1.00
H364   H     0.88300   0.61443   0.06923   0.00000  Uiso   1.00
H365   H     0.89247   0.34143   0.10496   0.00000  Uiso   1.00
H366   H     0.67050   0.53910   0.28941   0.00000  Uiso   1.00
H367   H     0.99618   0.46090   0.21057   0.00000  Uiso   1.00
H368   H     0.97194   0.58290   0.43417   0.00000  Uiso   1.00
H369   H     0.67244   0.56989   0.01074   0.00000  Uiso   1.00
H370   H     0.68782   0.45135   0.39702   0.00000  Uiso   1.00
H371   H     0.72165   0.48768   0.04550   0.00000  Uiso   1.00
H372   H     0.89481   0.56693   0.38232   0.00000  Uiso   1.00
N373   N     0.98241   0.51407   0.26416   0.00000  Uiso   1.00
N374   N     0.68426   0.48593   0.23584   0.00000  Uiso   1.00
O375   O     0.79464   0.57141   0.24633   0.00000  Uiso   1.00
O376   O     0.96996   0.43590   0.48993   0.00000  Uiso   1.00
O377   O     0.89524   0.58089   0.25587   0.00000  Uiso   1.00
O378   O     0.75848   0.49293   0.31840   0.00000  Uiso   1.00
O379   O     0.85908   0.50241   0.32793   0.00000  Uiso   1.00
O380   O     0.77142   0.41911   0.24414   0.00000  Uiso   1.00
O381   O     0.87203   0.42859   0.25367   0.00000  Uiso   1.00
O382   O     0.80758   0.49759   0.17207   0.00000  Uiso   1.00
O383   O     0.90819   0.50707   0.18161   0.00000  Uiso   1.00
O384   O     0.78151   0.45642   0.08743   0.00000  Uiso   1.00
C385   C     0.18188   0.93336   0.25121   0.00000  Uiso   1.00
C386   C     0.11384   0.82885   0.40226   0.00000  Uiso   1.00
C387   C     0.19040   0.98936   0.25163   0.00000  Uiso   1.00
C388   C     0.13365   0.83175   0.34687   0.00000  Uiso   1.00
C389   C     0.14345   0.67733   0.24691   0.00000  Uiso   1.00
C390   C     0.15167   0.73332   0.24819   0.00000  Uiso   1.00
C391   C     0.19976   0.83580   0.15328   0.00000  Uiso   1.00
C392   C     0.29250   0.88114   0.02636   0.00000  Uiso   1.00
C393   C     0.21836   0.83917   0.09815   0.00000  Uiso   1.00
C394   C     0.05330   0.80071   0.42200   0.00000  Uiso   1.00
C395   C     0.03261   0.79312   0.47375   0.00000  Uiso   1.00
C396   C     0.13812   0.83426   0.48717   0.00000  Uiso   1.00
C397   C     0.07395   0.81499   0.00619   0.00000  Uiso   1.00
C398   C     0.11774   0.74084   0.10591   0.00000  Uiso   1.00
C399   C     0.10562   0.69698   0.06668   0.00000  Uiso   1.00
C400   C     0.08853   0.97605   0.09095   0.00000  Uiso   1.00
C401   C     0.29022   0.74042   0.03526   0.00000  Uiso   1.00
C402   C     0.27234   0.68162   0.02461   0.00000  Uiso   1.00
C403   C     0.24966   0.98512   0.07459   0.00000  Uiso   1.00
C404   C     0.15622   0.84782   0.43533   0.00000  Uiso   1.00
C405   C     0.18443   0.84244   0.01802   0.00000  Uiso   1.00
C406   C     0.24576   0.87128   0.49754   0.00000  Uiso   1.00
C407   C     0.25966   0.89180   0.44895   0.00000  Uiso   1.00
C408   C     0.21539   0.88101   0.41856   0.00000  Uiso   1.00
C409   C     0.17299   0.82141   0.06749   0.00000  Uiso   1.00
C410   C     0.27866   0.86595   0.07660   0.00000  Uiso   1.00
Cu411  Cu    0.10710   0.82772   0.24436   0.00000  Uiso   1.00
Cu412  Cu    0.22623   0.83895   0.25565   0.00000  Uiso   1.00
H413   H     0.31416   0.87785   0.09939   0.00000  Uiso   1.00
H414   H     0.23562   0.67986   0.25611   0.00000  Uiso   1.00
H415   H     0.08000   0.73193   0.14010   0.00000  Uiso   1.00
H416   H     0.16173   0.74074   0.11856   0.00000  Uiso   1.00
H417   H     0.06703   0.70115   0.04865   0.00000  Uiso   1.00
H418   H     0.14759   0.70032   0.03627   0.00000  Uiso   1.00
H419   H     0.12255   0.97178   0.11400   0.00000  Uiso   1.00
H420   H     0.08709   0.94504   0.06100   0.00000  Uiso   1.00
H421   H     0.04228   0.97015   0.11674   0.00000  Uiso   1.00
H422   H     0.24977   0.75190   0.05966   0.00000  Uiso   1.00
H423   H     0.32680   0.74753   0.05826   0.00000  Uiso   1.00
H424   H     0.09828   0.98684   0.24230   0.00000  Uiso   1.00
H425   H     0.23509   0.67312   0.00188   0.00000  Uiso   1.00
H426   H     0.31331   0.66822   0.00200   0.00000  Uiso   1.00
H427   H     0.28976   0.97672   0.08790   0.00000  Uiso   1.00
H428   H     0.21633   0.94776   0.06923   0.00000  Uiso   1.00
H429   H     0.22580   0.67476   0.10496   0.00000  Uiso   1.00
H430   H     0.00383   0.87244   0.28941   0.00000  Uiso   1.00
H431   H     0.32952   0.79424   0.21057   0.00000  Uiso   1.00
H432   H     0.30527   0.91623   0.43417   0.00000  Uiso   1.00
H433   H     0.00577   0.90322   0.01074   0.00000  Uiso   1.00
H434   H     0.02115   0.78468   0.39702   0.00000  Uiso   1.00
H435   H     0.05499   0.82101   0.04550   0.00000  Uiso   1.00
H436   H     0.22814   0.90026   0.38232   0.00000  Uiso   1.00
N437   N     0.31574   0.84741   0.26416   0.00000  Uiso   1.00
N438   N     0.01759   0.81926   0.23584   0.00000  Uiso   1.00
O439   O     0.12797   0.90474   0.24633   0.00000  Uiso   1.00
O440   O     0.30329   0.76923   0.48993   0.00000  Uiso   1.00
O441   O     0.22858   0.91422   0.25587   0.00000  Uiso   1.00
O442   O     0.09181   0.82627   0.31840   0.00000  Uiso   1.00
O443   O     0.19242   0.83575   0.32793   0.00000  Uiso   1.00
O444   O     0.10476   0.75245   0.24414   0.00000  Uiso   1.00
O445   O     0.20536   0.76193   0.25367   0.00000  Uiso   1.00
O446   O     0.14092   0.83092   0.17207   0.00000  Uiso   1.00
O447   O     0.24152   0.84040   0.18161   0.00000  Uiso   1.00
O448   O     0.11485   0.78975   0.08743   0.00000  Uiso   1.00
C449   C     0.51521   0.93336   0.25121   0.00000  Uiso   1.00
C450   C     0.44718   0.82885   0.40226   0.00000  Uiso   1.00
C451   C     0.52373   0.98936   0.25163   0.00000  Uiso   1.00
C452   C     0.46699   0.83175   0.34687   0.00000  Uiso   1.00
C453   C     0.47679   0.67733   0.24691   0.00000  Uiso   1.00
C454   C     0.48501   0.73332   0.24819   0.00000  Uiso   1.00
C455   C     0.53310   0.83580   0.15328   0.00000  Uiso   1.00
C456   C     0.62584   0.88114   0.02636   0.00000  Uiso   1.00
C457   C     0.55170   0.83917   0.09815   0.00000  Uiso   1.00
C458   C     0.38663   0.80071   0.42200   0.00000  Uiso   1.00
C459   C     0.36595   0.79312   0.47375   0.00000  Uiso   1.00
C460   C     0.47145   0.83426   0.48717   0.00000  Uiso   1.00
C461   C     0.40729   0.81499   0.00619   0.00000  Uiso   1.00
C462   C     0.45107   0.74084   0.10591   0.00000  Uiso   1.00
C463   C     0.43896   0.69698   0.06668   0.00000  Uiso   1.00
C464   C     0.42186   0.97605   0.09095   0.00000  Uiso   1.00
C465   C     0.62355   0.74042   0.03526   0.00000  Uiso   1.00
C466   C     0.60567   0.68162   0.02461   0.00000  Uiso   1.00
C467   C     0.58299   0.98512   0.07459   0.00000  Uiso   1.00
C468   C     0.48956   0.84782   0.43533   0.00000  Uiso   1.00
C469   C     0.51776   0.84244   0.01802   0.00000  Uiso   1.00
C470   C     0.57909   0.87128   0.49754   0.00000  Uiso   1.00
C471   C     0.59299   0.89180   0.44895   0.00000  Uiso   1.00
C472   C     0.54873   0.88101   0.41856   0.00000  Uiso   1.00
C473   C     0.50632   0.82141   0.06749   0.00000  Uiso   1.00
C474   C     0.61199   0.86595   0.07660   0.00000  Uiso   1.00
Cu475  Cu    0.44043   0.82772   0.24436   0.00000  Uiso   1.00
Cu476  Cu    0.55957   0.83895   0.25565   0.00000  Uiso   1.00
H477   H     0.64749   0.87785   0.09939   0.00000  Uiso   1.00
H478   H     0.56895   0.67986   0.25611   0.00000  Uiso   1.00
H479   H     0.41334   0.73193   0.14010   0.00000  Uiso   1.00
H480   H     0.49506   0.74074   0.11856   0.00000  Uiso   1.00
H481   H     0.40036   0.70115   0.04865   0.00000  Uiso   1.00
H482   H     0.48092   0.70032   0.03627   0.00000  Uiso   1.00
H483   H     0.45588   0.97178   0.11400   0.00000  Uiso   1.00
H484   H     0.42042   0.94504   0.06100   0.00000  Uiso   1.00
H485   H     0.37562   0.97015   0.11674   0.00000  Uiso   1.00
H486   H     0.58310   0.75190   0.05966   0.00000  Uiso   1.00
H487   H     0.66013   0.74753   0.05826   0.00000  Uiso   1.00
H488   H     0.43161   0.98684   0.24230   0.00000  Uiso   1.00
H489   H     0.56842   0.67312   0.00188   0.00000  Uiso   1.00
H490   H     0.64664   0.66822   0.00200   0.00000  Uiso   1.00
H491   H     0.62310   0.97672   0.08790   0.00000  Uiso   1.00
H492   H     0.54967   0.94776   0.06923   0.00000  Uiso   1.00
H493   H     0.55914   0.67476   0.10496   0.00000  Uiso   1.00
H494   H     0.33716   0.87244   0.28941   0.00000  Uiso   1.00
H495   H     0.66285   0.79424   0.21057   0.00000  Uiso   1.00
H496   H     0.63860   0.91623   0.43417   0.00000  Uiso   1.00
H497   H     0.33911   0.90322   0.01074   0.00000  Uiso   1.00
H498   H     0.35449   0.78468   0.39702   0.00000  Uiso   1.00
H499   H     0.38832   0.82101   0.04550   0.00000  Uiso   1.00
H500   H     0.56147   0.90026   0.38232   0.00000  Uiso   1.00
N501   N     0.64908   0.84741   0.26416   0.00000  Uiso   1.00
N502   N     0.35092   0.81926   0.23584   0.00000  Uiso   1.00
O503   O     0.46131   0.90474   0.24633   0.00000  Uiso   1.00
O504   O     0.63662   0.76923   0.48993   0.00000  Uiso   1.00
O505   O     0.56191   0.91422   0.25587   0.00000  Uiso   1.00
O506   O     0.42515   0.82627   0.31840   0.00000  Uiso   1.00
O507   O     0.52575   0.83575   0.32793   0.00000  Uiso   1.00
O508   O     0.43809   0.75245   0.24414   0.00000  Uiso   1.00
O509   O     0.53869   0.76193   0.25367   0.00000  Uiso   1.00
O510   O     0.47425   0.83092   0.17207   0.00000  Uiso   1.00
O511   O     0.57485   0.84040   0.18161   0.00000  Uiso   1.00
O512   O     0.44818   0.78975   0.08743   0.00000  Uiso   1.00
C513   C     0.84854   0.93336   0.25121   0.00000  Uiso   1.00
C514   C     0.78051   0.82885   0.40226   0.00000  Uiso   1.00
C515   C     0.85706   0.98936   0.25163   0.00000  Uiso   1.00
C516   C     0.80032   0.83175   0.34687   0.00000  Uiso   1.00
C517   C     0.81012   0.67733   0.24691   0.00000  Uiso   1.00
C518   C     0.81834   0.73332   0.24819   0.00000  Uiso   1.00
C519   C     0.86643   0.83580   0.15328   0.00000  Uiso   1.00
C520   C     0.95917   0.88114   0.02636   0.00000  Uiso   1.00
C521   C     0.88503   0.83917   0.09815   0.00000  Uiso   1.00
C522   C     0.71997   0.80071   0.42200   0.00000  Uiso   1.00
C523   C     0.69928   0.79312   0.47375   0.00000  Uiso   1.00
C524   C     0.80478   0.83426   0.48717   0.00000  Uiso   1.00
C525   C     0.74062   0.81499   0.00619   0.00000  Uiso   1.00
C526   C     0.78440   0.74084   0.10591   0.00000  Uiso   1.00
C527   C     0.77229   0.69698   0.06668   0.00000  Uiso   1.00
C528   C     0.75520   0.97605   0.09095   0.00000  Uiso   1.00
C529   C     0.95688   0.74042   0.03526   0.00000  Uiso   1.00
C530   C     0.93900   0.68162   0.02461   0.00000  Uiso   1.00
C531   C     0.91632   0.98512   0.07459   0.00000  Uiso   1.00
C532   C     0.82289   0.84782   0.43533   0.00000  Uiso   1.00
C533   C     0.85109   0.84244   0.01802   0.00000  Uiso   1.00
C534   C     0.91242   0.87128   0.49754   0.00000  Uiso   1.00
C535   C     0.92633   0.89180   0.44895   0.00000  Uiso   1.00
C536   C     0.88206   0.88101   0.41856   0.00000  Uiso   1.00
C537   C     0.83965   0.82141   0.06749   0.00000  Uiso   1.00
C538   C     0.94533   0.86595   0.07660   0.00000  Uiso   1.00
Cu539  Cu    0.77377   0.82772   0.24436   0.00000  Uiso   1.00
Cu540  Cu    0.89290   0.83895   0.25565   0.00000  Uiso   1.00
H541   H     0.98082   0.87785   0.09939   0.00000  Uiso   1.00
H542   H     0.90228   0.67986   0.25611   0.00000  Uiso   1.00
H543   H     0.74667   0.73193   0.14010   0.00000  Uiso   1.00
H544   H     0.82839   0.74074   0.11856   0.00000  Uiso   1.00
H545   H     0.73369   0.70115   0.04865   0.00000  Uiso   1.00
H546   H     0.81426   0.70032   0.03627   0.00000  Uiso   1.00
H547   H     0.78922   0.97178   0.11400   0.00000  Uiso   1.00
H548   H     0.75376   0.94504   0.06100   0.00000  Uiso   1.00
H549   H     0.70895   0.97015   0.11674   0.00000  Uiso   1.00
H550   H     0.91644   0.75190   0.05966   0.00000  Uiso   1.00
H551   H     0.99346   0.74753   0.05826   0.00000  Uiso   1.00
H552   H     0.76494   0.98684   0.24230   0.00000  Uiso   1.00
H553   H     0.90175   0.67312   0.00188   0.00000  Uiso   1.00
H554   H     0.97997   0.66822   0.00200   0.00000  Uiso   1.00
H555   H     0.95643   0.97672   0.08790   0.00000  Uiso   1.00
H556   H     0.88300   0.94776   0.06923   0.00000  Uiso   1.00
H557   H     0.89247   0.67476   0.10496   0.00000  Uiso   1.00
H558   H     0.67050   0.87244   0.28941   0.00000  Uiso   1.00
H559   H     0.99618   0.79424   0.21057   0.00000  Uiso   1.00
H560   H     0.97194   0.91623   0.43417   0.00000  Uiso   1.00
H561   H     0.67244   0.90322   0.01074   0.00000  Uiso   1.00
H562   H     0.68782   0.78468   0.39702   0.00000  Uiso   1.00
H563   H     0.72165   0.82101   0.04550   0.00000  Uiso   1.00
H564   H     0.89481   0.90026   0.38232   0.00000  Uiso   1.00
N565   N     0.98241   0.84741   0.26416   0.00000  Uiso   1.00
N566   N     0.68426   0.81926   0.23584   0.00000  Uiso   1.00
O567   O     0.79464   0.90474   0.24633   0.00000  Uiso   1.00
O568   O     0.96996   0.76923   0.48993   0.00000  Uiso   1.00
O569   O     0.89524   0.91422   0.25587   0.00000  Uiso   1.00
O570   O     0.75848   0.82627   0.31840   0.00000  Uiso   1.00
O571   O     0.85908   0.83575   0.32793   0.00000  Uiso   1.00
O572   O     0.77142   0.75245   0.24414   0.00000  Uiso   1.00
O573   O     0.87203   0.76193   0.25367   0.00000  Uiso   1.00
O574   O     0.80758   0.83092   0.17207   0.00000  Uiso   1.00
O575   O     0.90819   0.84040   0.18161   0.00000  Uiso   1.00
O576   O     0.78151   0.78975   0.08743   0.00000  Uiso   1.00
C577   C     0.18188   0.26669   0.75121   0.00000  Uiso   1.00
C578   C     0.11384   0.16218   0.90226   0.00000  Uiso   1.00
C579   C     0.19040   0.32269   0.75163   0.00000  Uiso   1.00
C580   C     0.13365   0.16509   0.84687   0.00000  Uiso   1.00
C581   C     0.14345   0.01066   0.74691   0.00000  Uiso   1.00
C582   C     0.15167   0.06665   0.74819   0.00000  Uiso   1.00
C583   C     0.19976   0.16913   0.65328   0.00000  Uiso   1.00
C584   C     0.29250   0.21448   0.52636   0.00000  Uiso   1.00
C585   C     0.21836   0.17250   0.59815   0.00000  Uiso   1.00
C586   C     0.05330   0.13404   0.92200   0.00000  Uiso   1.00
C587   C     0.03261   0.12646   0.97375   0.00000  Uiso   1.00
C588   C     0.13812   0.16759   0.98717   0.00000  Uiso   1.00
C589   C     0.07395   0.14833   0.50619   0.00000  Uiso   1.00
C590   C     0.11774   0.07417   0.60591   0.00000  Uiso   1.00
C591   C     0.10562   0.03031   0.56668   0.00000  Uiso   1.00
C592   C     0.08853   0.30939   0.59095   0.00000  Uiso   1.00
C593   C     0.29022   0.07376   0.53526   0.00000  Uiso   1.00
C594   C     0.27234   0.01496   0.52461   0.00000  Uiso   1.00
C595   C     0.24966   0.31845   0.57459   0.00000  Uiso   1.00
C596   C     0.15622   0.18115   0.93533   0.00000  Uiso   1.00
C597   C     0.18443   0.17577   0.51802   0.00000  Uiso   1.00
C598   C     0.24576   0.20461   0.99754   0.00000  Uiso   1.00
C599   C     0.25966   0.22514   0.94895   0.00000  Uiso   1.00
C600   C     0.21539   0.21435   0.91856   0.00000  Uiso   1.00
C601   C     0.17299   0.15474   0.56749   0.00000  Uiso   1.00
C602   C     0.27866   0.19928   0.57660   0.00000  Uiso   1.00
Cu603  Cu    0.10710   0.16105   0.74436   0.00000  Uiso   1.00
Cu604  Cu    0.22623   0.17228   0.75565   0.00000  Uiso   1.00
H605   H     0.31416   0.21119   0.59939   0.00000  Uiso   1.00
H606   H     0.23562   0.01319   0.75611   0.00000  Uiso   1.00
H607   H     0.08000   0.06526   0.64010   0.00000  Uiso   1.00
H608   H     0.16173   0.07408   0.61856   0.00000  Uiso   1.00
H609   H     0.06703   0.03448   0.54865   0.00000  Uiso   1.00
H610   H     0.14759   0.03366   0.53627   0.00000  Uiso   1.00
H611   H     0.12255   0.30511   0.61400   0.00000  Uiso   1.00
H612   H     0.08709   0.27837   0.56100   0.00000  Uiso   1.00
H613   H     0.04228   0.30349   0.61674   0.00000  Uiso   1.00
H614   H     0.24977   0.08524   0.55966   0.00000  Uiso   1.00
H615   H     0.32680   0.08086   0.55826   0.00000  Uiso   1.00
H616   H     0.09828   0.32018   0.74230   0.00000  Uiso   1.00
H617   H     0.23509   0.00646   0.50188   0.00000  Uiso   1.00
H618   H     0.31331   0.00155   0.50200   0.00000  Uiso   1.00
H619   H     0.28976   0.31005   0.58790   0.00000  Uiso   1.00
H620   H     0.21633   0.28110   0.56923   0.00000  Uiso   1.00
H621   H     0.22580   0.00810   0.60496   0.00000  Uiso   1.00
H622   H     0.00383   0.20577   0.78941   0.00000  Uiso   1.00
H623   H     0.32952   0.12757   0.71057   0.00000  Uiso   1.00
H624   H     0.30527   0.24957   0.93417   0.00000  Uiso   1.00
H625   H     0.00577   0.23655   0.51074   0.00000  Uiso   1.00
H626   H     0.02115   0.11802   0.89702   0.00000  Uiso   1.00
H627   H     0.05499   0.15435   0.54550   0.00000  Uiso   1.00
H628   H     0.22814   0.23359   0.88232   0.00000  Uiso   1.00
N629   N     0.31574   0.18074   0.76416   0.00000  Uiso   1.00
N630   N     0.01759   0.15259   0.73584   0.00000  Uiso   1.00
O631   O     0.12797   0.23807   0.74633   0.00000  Uiso   1.00
O632   O     0.30329   0.10257   0.98993   0.00000  Uiso   1.00
O633   O     0.22858   0.24755   0.75587   0.00000  Uiso   1.00
O634   O     0.09181   0.15960   0.81840   0.00000  Uiso   1.00
O635   O     0.19242   0.16908   0.82793   0.00000  Uiso   1.00
O636   O     0.10476   0.08578   0.74414   0.00000  Uiso   1.00
O637   O     0.20536   0.09526   0.75367   0.00000  Uiso   1.00
O638   O     0.14092   0.16425   0.67207   0.00000  Uiso   1.00
O639   O     0.24152   0.17373   0.68161   0.00000  Uiso   1.00
O640   O     0.11485   0.12308   0.58743   0.00000  Uiso   1.00
C641   C     0.51521   0.26669   0.75121   0.00000  Uiso   1.00
C642   C     0.44718   0.16218   0.90226   0.00000  Uiso   1.00
C643   C     0.52373   0.32269   0.75163   0.00000  Uiso   1.00
C644   C     0.46699   0.16509   0.84687   0.00000  Uiso   1.00
C645   C     0.47679   0.01066   0.74691   0.00000  Uiso   1.00
C646   C     0.48501   0.06665   0.74819   0.00000  Uiso   1.00
C647   C     0.53310   0.16913   0.65328   0.00000  Uiso   1.00
C648   C     0.62584   0.21448   0.52636   0.00000  Uiso   1.00
C649   C     0.55170   0.17250   0.59815   0.00000  Uiso   1.00
C650   C     0.38663   0.13404   0.92200   0.00000  Uiso   1.00
C651   C     0.36595   0.12646   0.97375   0.00000  Uiso   1.00
C652   C     0.47145   0.16759   0.98717   0.00000  Uiso   1.00
C653   C     0.40729   0.14833   0.50619   0.00000  Uiso   1.00
C654   C     0.45107   0.07417   0.60591   0.00000  Uiso   1.00
C655   C     0.43896   0.03031   0.56668   0.00000  Uiso   1.00
C656   C     0.42186   0.30939   0.59095   0.00000  Uiso   1.00
C657   C     0.62355   0.07376   0.53526   0.00000  Uiso   1.00
C658   C     0.60567   0.01496   0.52461   0.00000  Uiso   1.00
C659   C     0.58299   0.31845   0.57459   0.00000  Uiso   1.00
C660   C     0.48956   0.18115   0.93533   0.00000  Uiso   1.00
C661   C     0.51776   0.17577   0.51802   0.00000  Uiso   1.00
C662   C     0.57909   0.20461   0.99754   0.00000  Uiso   1.00
C663   C     0.59299   0.22514   0.94895   0.00000  Uiso   1.00
C664   C     0.54873   0.21435   0.91856   0.00000  Uiso   1.00
C665   C     0.50632   0.15474   0.56749   0.00000  Uiso   1.00
C666   C     0.61199   0.19928   0.57660   0.00000  Uiso   1.00
Cu667  Cu    0.44043   0.16105   0.74436   0.00000  Uiso   1.00
Cu668  Cu    0.55957   0.17228   0.75565   0.00000  Uiso   1.00
H669   H     0.64749   0.21119   0.59939   0.00000  Uiso   1.00
H670   H     0.56895   0.01319   0.75611   0.00000  Uiso   1.00
H671   H     0.41334   0.06526   0.64010   0.00000  Uiso   1.00
H672   H     0.49506   0.07408   0.61856   0.00000  Uiso   1.00
H673   H     0.40036   0.03448   0.54865   0.00000  Uiso   1.00
H674   H     0.48092   0.03366   0.53627   0.00000  Uiso   1.00
H675   H     0.45588   0.30511   0.61400   0.00000  Uiso   1.00
H676   H     0.42042   0.27837   0.56100   0.00000  Uiso   1.00
H677   H     0.37562   0.30349   0.61674   0.00000  Uiso   1.00
H678   H     0.58310   0.08524   0.55966   0.00000  Uiso   1.00
H679   H     0.66013   0.08086   0.55826   0.00000  Uiso   1.00
H680   H     0.43161   0.32018   0.74230   0.00000  Uiso   1.00
H681   H     0.56842   0.00646   0.50188   0.00000  Uiso   1.00
H682   H     0.64664   0.00155   0.50200   0.00000  Uiso   1.00
H683   H     0.62310   0.31005   0.58790   0.00000  Uiso   1.00
H684   H     0.54967   0.28110   0.56923   0.00000  Uiso   1.00
H685   H     0.55914   0.00810   0.60496   0.00000  Uiso   1.00
H686   H     0.33716   0.20577   0.78941   0.00000  Uiso   1.00
H687   H     0.66285   0.12757   0.71057   0.00000  Uiso   1.00
H688   H     0.63860   0.24957   0.93417   0.00000  Uiso   1.00
H689   H     0.33911   0.23655   0.51074   0.00000  Uiso   1.00
H690   H     0.35449   0.11802   0.89702   0.00000  Uiso   1.00
H691   H     0.38832   0.15435   0.54550   0.00000  Uiso   1.00
H692   H     0.56147   0.23359   0.88232   0.00000  Uiso   1.00
N693   N     0.64908   0.18074   0.76416   0.00000  Uiso   1.00
N694   N     0.35092   0.15259   0.73584   0.00000  Uiso   1.00
O695   O     0.46131   0.23807   0.74633   0.00000  Uiso   1.00
O696   O     0.63662   0.10257   0.98993   0.00000  Uiso   1.00
O697   O     0.56191   0.24755   0.75587   0.00000  Uiso   1.00
O698   O     0.42515   0.15960   0.81840   0.00000  Uiso   1.00
O699   O     0.52575   0.16908   0.82793   0.00000  Uiso   1.00
O700   O     0.43809   0.08578   0.74414   0.00000  Uiso   1.00
O701   O     0.53869   0.09526   0.75367   0.00000  Uiso   1.00
O702   O     0.47425   0.16425   0.67207   0.00000  Uiso   1.00
O703   O     0.57485   0.17373   0.68161   0.00000  Uiso   1.00
O704   O     0.44818   0.12308   0.58743   0.00000  Uiso   1.00
C705   C     0.84854   0.26669   0.75121   0.00000  Uiso   1.00
C706   C     0.78051   0.16218   0.90226   0.00000  Uiso   1.00
C707   C     0.85706   0.32269   0.75163   0.00000  Uiso   1.00
C708   C     0.80032   0.16509   0.84687   0.00000  Uiso   1.00
C709   C     0.81012   0.01066   0.74691   0.00000  Uiso   1.00
C710   C     0.81834   0.06665   0.74819   0.00000  Uiso   1.00
C711   C     0.86643   0.16913   0.65328   0.00000  Uiso   1.00
C712   C     0.95917   0.21448   0.52636   0.00000  Uiso   1.00
C713   C     0.88503   0.17250   0.59815   0.00000  Uiso   1.00
C714   C     0.71997   0.13404   0.92200   0.00000  Uiso   1.00
C715   C     0.69928   0.12646   0.97375   0.00000  Uiso   1.00
C716   C     0.80478   0.16759   0.98717   0.00000  Uiso   1.00
C717   C     0.74062   0.14833   0.50619   0.00000  Uiso   1.00
C718   C     0.78440   0.07417   0.60591   0.00000  Uiso   1.00
C719   C     0.77229   0.03031   0.56668   0.00000  Uiso   1.00
C720   C     0.75520   0.30939   0.59095   0.00000  Uiso   1.00
C721   C     0.95688   0.07376   0.53526   0.00000  Uiso   1.00
C722   C     0.93900   0.01496   0.52461   0.00000  Uiso   1.00
C723   C     0.91632   0.31845   0.57459   0.00000  Uiso   1.00
C724   C     0.82289   0.18115   0.93533   0.00000  Uiso   1.00
C725   C     0.85109   0.17577   0.51802   0.00000  Uiso   1.00
C726   C     0.91242   0.20461   0.99754   0.00000  Uiso   1.00
C727   C     0.92633   0.22514   0.94895   0.00000  Uiso   1.00
C728   C     0.88206   0.21435   0.91856   0.00000  Uiso   1.00
C729   C     0.83965   0.15474   0.56749   0.00000  Uiso   1.00
C730   C     0.94533   0.19928   0.57660   0.00000  Uiso   1.00
Cu731  Cu    0.77377   0.16105   0.74436   0.00000  Uiso   1.00
Cu732  Cu    0.89290   0.17228   0.75565   0.00000  Uiso   1.00
H733   H     0.98082   0.21119   0.59939   0.00000  Uiso   1.00
H734   H     0.90228   0.01319   0.75611   0.00000  Uiso   1.00
H735   H     0.74667   0.06526   0.64010   0.00000  Uiso   1.00
H736   H     0.82839   0.07408   0.61856   0.00000  Uiso   1.00
H737   H     0.73369   0.03448   0.54865   0.00000  Uiso   1.00
H738   H     0.81426   0.03366   0.53627   0.00000  Uiso   1.00
H739   H     0.78922   0.30511   0.61400   0.00000  Uiso   1.00
H740   H     0.75376   0.27837   0.56100   0.00000  Uiso   1.00
H741   H     0.70895   0.30349   0.61674   0.00000  Uiso   1.00
H742   H     0.91644   0.08524   0.55966   0.00000  Uiso   1.00
H743   H     0.99346   0.08086   0.55826   0.00000  Uiso   1.00
H744   H     0.76494   0.32018   0.74230   0.00000  Uiso   1.00
H745   H     0.90175   0.00646   0.50188   0.00000  Uiso   1.00
H746   H     0.97997   0.00155   0.50200   0.00000  Uiso   1.00
H747   H     0.95643   0.31005   0.58790   0.00000  Uiso   1.00
H748   H     0.88300   0.28110   0.56923   0.00000  Uiso   1.00
H749   H     0.89247   0.00810   0.60496   0.00000  Uiso   1.00
H750   H     0.67050   0.20577   0.78941   0.00000  Uiso   1.00
H751   H     0.99618   0.12757   0.71057   0.00000  Uiso   1.00
H752   H     0.97194   0.24957   0.93417   0.00000  Uiso   1.00
H753   H     0.67244   0.23655   0.51074   0.00000  Uiso   1.00
H754   H     0.68782   0.11802   0.89702   0.00000  Uiso   1.00
H755   H     0.72165   0.15435   0.54550   0.00000  Uiso   1.00
H756   H     0.89481   0.23359   0.88232   0.00000  Uiso   1.00
N757   N     0.98241   0.18074   0.76416   0.00000  Uiso   1.00
N758   N     0.68426   0.15259   0.73584   0.00000  Uiso   1.00
O759   O     0.79464   0.23807   0.74633   0.00000  Uiso   1.00
O760   O     0.96996   0.10257   0.98993   0.00000  Uiso   1.00
O761   O     0.89524   0.24755   0.75587   0.00000  Uiso   1.00
O762   O     0.75848   0.15960   0.81840   0.00000  Uiso   1.00
O763   O     0.85908   0.16908   0.82793   0.00000  Uiso   1.00
O764   O     0.77142   0.08578   0.74414   0.00000  Uiso   1.00
O765   O     0.87203   0.09526   0.75367   0.00000  Uiso   1.00
O766   O     0.80758   0.16425   0.67207   0.00000  Uiso   1.00
O767   O     0.90819   0.17373   0.68161   0.00000  Uiso   1.00
O768   O     0.78151   0.12308   0.58743   0.00000  Uiso   1.00
C769   C     0.18188   0.60002   0.75121   0.00000  Uiso   1.00
C770   C     0.11384   0.49552   0.90226   0.00000  Uiso   1.00
C771   C     0.19040   0.65603   0.75163   0.00000  Uiso   1.00
C772   C     0.13365   0.49842   0.84687   0.00000  Uiso   1.00
C773   C     0.14345   0.34400   0.74691   0.00000  Uiso   1.00
C774   C     0.15167   0.39999   0.74819   0.00000  Uiso   1.00
C775   C     0.19976   0.50246   0.65328   0.00000  Uiso   1.00
C776   C     0.29250   0.54781   0.52636   0.00000  Uiso   1.00
C777   C     0.21836   0.50583   0.59815   0.00000  Uiso   1.00
C778   C     0.05330   0.46738   0.92200   0.00000  Uiso   1.00
C779   C     0.03261   0.45979   0.97375   0.00000  Uiso   1.00
C780   C     0.13812   0.50092   0.98717   0.00000  Uiso   1.00
C781   C     0.07395   0.48166   0.50619   0.00000  Uiso   1.00
C782   C     0.11774   0.40751   0.60591   0.00000  Uiso   1.00
C783   C     0.10562   0.36365   0.56668   0.00000  Uiso   1.00
C784   C     0.08853   0.64272   0.59095   0.00000  Uiso   1.00
C785   C     0.29022   0.40709   0.53526   0.00000  Uiso   1.00
C786   C     0.27234   0.34829   0.52461   0.00000  Uiso   1.00
C787   C     0.24966   0.65178   0.57459   0.00000  Uiso   1.00
C788   C     0.15622   0.51448   0.93533   0.00000  Uiso   1.00
C789   C     0.18443   0.50911   0.51802   0.00000  Uiso   1.00
C790   C     0.24576   0.53795   0.99754   0.00000  Uiso   1.00
C791   C     0.25966   0.55847   0.94895   0.00000  Uiso   1.00
C792   C     0.21539   0.54768   0.91856   0.00000  Uiso   1.00
C793   C     0.17299   0.48807   0.56749   0.00000  Uiso   1.00
C794   C     0.27866   0.53262   0.57660   0.00000  Uiso   1.00
Cu795  Cu    0.10710   0.49439   0.74436   0.00000  Uiso   1.00
Cu796  Cu    0.22623   0.50561   0.75565   0.00000  Uiso   1.00
H797   H     0.31416   0.54452   0.59939   0.00000  Uiso   1.00
H798   H     0.23562   0.34652   0.75611   0.00000  Uiso   1.00
H799   H     0.08000   0.39859   0.64010   0.00000  Uiso   1.00
H800   H     0.16173   0.40741   0.61856   0.00000  Uiso   1.00
H801   H     0.06703   0.36781   0.54865   0.00000  Uiso   1.00
H802   H     0.14759   0.36699   0.53627   0.00000  Uiso   1.00
H803   H     0.12255   0.63845   0.61400   0.00000  Uiso   1.00
H804   H     0.08709   0.61170   0.56100   0.00000  Uiso   1.00
H805   H     0.04228   0.63682   0.61674   0.00000  Uiso   1.00
H806   H     0.24977   0.41857   0.55966   0.00000  Uiso   1.00
H807   H     0.32680   0.41420   0.55826   0.00000  Uiso   1.00
H808   H     0.09828   0.65351   0.74230   0.00000  Uiso   1.00
H809   H     0.23509   0.33979   0.50188   0.00000  Uiso   1.00
H810   H     0.31331   0.33488   0.50200   0.00000  Uiso   1.00
H811   H     0.28976   0.64338   0.58790   0.00000  Uiso   1.00
H812   H     0.21633   0.61443   0.56923   0.00000  Uiso   1.00
H813   H     0.22580   0.34143   0.60496   0.00000  Uiso   1.00
H814   H     0.00383   0.53910   0.78941   0.00000  Uiso   1.00
H815   H     0.32952   0.46090   0.71057   0.00000  Uiso   1.00
H816   H     0.30527   0.58290   0.93417   0.00000  Uiso   1.00
H817   H     0.00577   0.56989   0.51074   0.00000  Uiso   1.00
H818   H     0.02115   0.45135   0.89702   0.00000  Uiso   1.00
H819   H     0.05499   0.48768   0.54550   0.00000  Uiso   1.00
H820   H     0.22814   0.56693   0.88232   0.00000  Uiso   1.00
N821   N     0.31574   0.51407   0.76416   0.00000  Uiso   1.00
N822   N     0.01759   0.48593   0.73584   0.00000  Uiso   1.00
O823   O     0.12797   0.57141   0.74633   0.00000  Uiso   1.00
O824   O     0.30329   0.43590   0.98993   0.00000  Uiso   1.00
O825   O     0.22858   0.58089   0.75587   0.00000  Uiso   1.00
O826   O     0.09181   0.49293   0.81840   0.00000  Uiso   1.00
O827   O     0.19242   0.50241   0.82793   0.00000  Uiso   1.00
O828   O     0.10476   0.41911   0.74414   0.00000  Uiso   1.00
O829   O     0.20536   0.42859   0.75367   0.00000  Uiso   1.00
O830   O     0.14092   0.49759   0.67207   0.00000  Uiso   1.00
O831   O     0.24152   0.50707   0.68161   0.00000  Uiso   1.00
O832   O     0.11485   0.45642   0.58743   0.00000  Uiso   1.00
C833   C     0.51521   0.60002   0.75121   0.00000  Uiso   1.00
C834   C     0.44718   0.49552   0.90226   0.00000  Uiso   1.00
C835   C     0.52373   0.65603   0.75163   0.00000  Uiso   1.00
C836   C     0.46699   0.49842   0.84687   0.00000  Uiso   1.00
C837   C     0.47679   0.34400   0.74691   0.00000  Uiso   1.00
C838   C     0.48501   0.39999   0.74819   0.00000  Uiso   1.00
C839   C     0.53310   0.50246   0.65328   0.00000  Uiso   1.00
C840   C     0.62584   0.54781   0.52636   0.00000  Uiso   1.00
C841   C     0.55170   0.50583   0.59815   0.00000  Uiso   1.00
C842   C     0.38663   0.46738   0.92200   0.00000  Uiso   1.00
C843   C     0.36595   0.45979   0.97375   0.00000  Uiso   1.00
C844   C     0.47145   0.50092   0.98717   0.00000  Uiso   1.00
C845   C     0.40729   0.48166   0.50619   0.00000  Uiso   1.00
C846   C     0.45107   0.40751   0.60591   0.00000  Uiso   1.00
C847   C     0.43896   0.36365   0.56668   0.00000  Uiso   1.00
C848   C     0.42186   0.64272   0.59095   0.00000  Uiso   1.00
C849   C     0.62355   0.40709   0.53526   0.00000  Uiso   1.00
C850   C     0.60567   0.34829   0.52461   0.00000  Uiso   1.00
C851   C     0.58299   0.65178   0.57459   0.00000  Uiso   1.00
C852   C     0.48956   0.51448   0.93533   0.00000  Uiso   1.00
C853   C     0.51776   0.50911   0.51802   0.00000  Uiso   1.00
C854   C     0.57909   0.53795   0.99754   0.00000  Uiso   1.00
C855   C     0.59299   0.55847   0.94895   0.00000  Uiso   1.00
C856   C     0.54873   0.54768   0.91856   0.00000  Uiso   1.00
C857   C     0.50632   0.48807   0.56749   0.00000  Uiso   1.00
C858   C     0.61199   0.53262   0.57660   0.00000  Uiso   1.00
Cu859  Cu    0.44043   0.49439   0.74436   0.00000  Uiso   1.00
Cu860  Cu    0.55957   0.50561   0.75565   0.00000  Uiso   1.00
H861   H     0.64749   0.54452   0.59939   0.00000  Uiso   1.00
H862   H     0.56895   0.34652   0.75611   0.00000  Uiso   1.00
H863   H     0.41334   0.39859   0.64010   0.00000  Uiso   1.00
H864   H     0.49506   0.40741   0.61856   0.00000  Uiso   1.00
H865   H     0.40036   0.36781   0.54865   0.00000  Uiso   1.00
H866   H     0.48092   0.36699   0.53627   0.00000  Uiso   1.00
H867   H     0.45588   0.63845   0.61400   0.00000  Uiso   1.00
H868   H     0.42042   0.61170   0.56100   0.00000  Uiso   1.00
H869   H     0.37562   0.63682   0.61674   0.00000  Uiso   1.00
H870   H     0.58310   0.41857   0.55966   0.00000  Uiso   1.00
H871   H     0.66013   0.41420   0.55826   0.00000  Uiso   1.00
H872   H     0.43161   0.65351   0.74230   0.00000  Uiso   1.00
H873   H     0.56842   0.33979   0.50188   0.00000  Uiso   1.00
H874   H     0.64664   0.33488   0.50200   0.00000  Uiso   1.00
H875   H     0.62310   0.64338   0.58790   0.00000  Uiso   1.00
H876   H     0.54967   0.61443   0.56923   0.00000  Uiso   1.00
H877   H     0.55914   0.34143   0.60496   0.00000  Uiso   1.00
H878   H     0.33716   0.53910   0.78941   0.00000  Uiso   1.00
H879   H     0.66285   0.46090   0.71057   0.00000  Uiso   1.00
H880   H     0.63860   0.58290   0.93417   0.00000  Uiso   1.00
H881   H     0.33911   0.56989   0.51074   0.00000  Uiso   1.00
H882   H     0.35449   0.45135   0.89702   0.00000  Uiso   1.00
H883   H     0.38832   0.48768   0.54550   0.00000  Uiso   1.00
H884   H     0.56147   0.56693   0.88232   0.00000  Uiso   1.00
N885   N     0.64908   0.51407   0.76416   0.00000  Uiso   1.00
N886   N     0.35092   0.48593   0.73584   0.00000  Uiso   1.00
O887   O     0.46131   0.57141   0.74633   0.00000  Uiso   1.00
O888   O     0.63662   0.43590   0.98993   0.00000  Uiso   1.00
O889   O     0.56191   0.58089   0.75587   0.00000  Uiso   1.00
O890   O     0.42515   0.49293   0.81840   0.00000  Uiso   1.00
O891   O     0.52575   0.50241   0.82793   0.00000  Uiso   1.00
O892   O     0.43809   0.41911   0.74414   0.00000  Uiso   1.00
O893   O     0.53869   0.42859   0.75367   0.00000  Uiso   1.00
O894   O     0.47425   0.49759   0.67207   0.00000  Uiso   1.00
O895   O     0.57485   0.50707   0.68161   0.00000  Uiso   1.00
O896   O     0.44818   0.45642   0.58743   0.00000  Uiso   1.00
C897   C     0.84854   0.60002   0.75121   0.00000  Uiso   1.00
C898   C     0.78051   0.49552   0.90226   0.00000  Uiso   1.00
C899   C     0.85706   0.65603   0.75163   0.00000  Uiso   1.00
C900   C     0.80032   0.49842   0.84687   0.00000  Uiso   1.00
C901   C     0.81012   0.34400   0.74691   0.00000  Uiso   1.00
C902   C     0.81834   0.39999   0.74819   0.00000  Uiso   1.00
C903   C     0.86643   0.50246   0.65328   0.00000  Uiso   1.00
C904   C     0.95917   0.54781   0.52636   0.00000  Uiso   1.00
C905   C     0.88503   0.50583   0.59815   0.00000  Uiso   1.00
C906   C     0.71997   0.46738   0.92200   0.00000  Uiso   1.00
C907   C     0.69928   0.45979   0.97375   0.00000  Uiso   1.00
C908   C     0.80478   0.50092   0.98717   0.00000  Uiso   1.00
C909   C     0.74062   0.48166   0.50619   0.00000  Uiso   1.00
C910   C     0.78440   0.40751   0.60591   0.00000  Uiso   1.00
C911   C     0.77229   0.36365   0.56668   0.00000  Uiso   1.00
C912   C     0.75520   0.64272   0.59095   0.00000  Uiso   1.00
C913   C     0.95688   0.40709   0.53526   0.00000  Uiso   1.00
C914   C     0.93900   0.34829   0.52461   0.00000  Uiso   1.00
C915   C     0.91632   0.65178   0.57459   0.00000  Uiso   1.00
C916   C     0.82289   0.51448   0.93533   0.00000  Uiso   1.00
C917   C     0.85109   0.50911   0.51802   0.00000  Uiso   1.00
C918   C     0.91242   0.53795   0.99754   0.00000  Uiso   1.00
C919   C     0.92633   0.55847   0.94895   0.00000  Uiso   1.00
C920   C     0.88206   0.54768   0.91856   0.00000  Uiso   1.00
C921   C     0.83965   0.48807   0.56749   0.00000  Uiso   1.00
C922   C     0.94533   0.53262   0.57660   0.00000  Uiso   1.00
Cu923  Cu    0.77377   0.49439   0.74436   0.00000  Uiso   1.00
Cu924  Cu    0.89290   0.50561   0.75565   0.00000  Uiso   1.00
H925   H     0.98082   0.54452   0.59939   0.00000  Uiso   1.00
H926   H     0.90228   0.34652   0.75611   0.00000  Uiso   1.00
H927   H     0.74667   0.39859   0.64010   0.00000  Uiso   1.00
H928   H     0.82839   0.40741   0.61856   0.00000  Uiso   1.00
H929   H     0.73369   0.36781   0.54865   0.00000  Uiso   1.00
H930   H     0.81426   0.36699   0.53627   0.00000  Uiso   1.00
H931   H     0.78922   0.63845   0.61400   0.00000  Uiso   1.00
H932   H     0.75376   0.61170   0.56100   0.00000  Uiso   1.00
H933   H     0.70895   0.63682   0.61674   0.00000  Uiso   1.00
H934   H     0.91644   0.41857   0.55966   0.00000  Uiso   1.00
H935   H     0.99346   0.41420   0.55826   0.00000  Uiso   1.00
H936   H     0.76494   0.65351   0.74230   0.00000  Uiso   1.00
H937   H     0.90175   0.33979   0.50188   0.00000  Uiso   1.00
H938   H     0.97997   0.33488   0.50200   0.00000  Uiso   1.00
H939   H     0.95643   0.64338   0.58790   0.00000  Uiso   1.00
H940   H     0.88300   0.61443   0.56923   0.00000  Uiso   1.00
H941   H     0.89247   0.34143   0.60496   0.00000  Uiso   1.00
H942   H     0.67050   0.53910   0.78941   0.00000  Uiso   1.00
H943   H     0.99618   0.46090   0.71057   0.00000  Uiso   1.00
H944   H     0.97194   0.58290   0.93417   0.00000  Uiso   1.00
H945   H     0.67244   0.56989   0.51074   0.00000  Uiso   1.00
H946   H     0.68782   0.45135   0.89702   0.00000  Uiso   1.00
H947   H     0.72165   0.48768   0.54550   0.00000  Uiso   1.00
H948   H     0.89481   0.56693   0.88232   0.00000  Uiso   1.00
N949   N     0.98241   0.51407   0.76416   0.00000  Uiso   1.00
N950   N     0.68426   0.48593   0.73584   0.00000  Uiso   1.00
O951   O     0.79464   0.57141   0.74633   0.00000  Uiso   1.00
O952   O     0.96996   0.43590   0.98993   0.00000  Uiso   1.00
O953   O     0.89524   0.58089   0.75587   0.00000  Uiso   1.00
O954   O     0.75848   0.49293   0.81840   0.00000  Uiso   1.00
O955   O     0.85908   0.50241   0.82793   0.00000  Uiso   1.00
O956   O     0.77142   0.41911   0.74414   0.00000  Uiso   1.00
O957   O     0.87203   0.42859   0.75367   0.00000  Uiso   1.00
O958   O     0.80758   0.49759   0.67207   0.00000  Uiso   1.00
O959   O     0.90819   0.50707   0.68161   0.00000  Uiso   1.00
O960   O     0.78151   0.45642   0.58743   0.00000  Uiso   1.00
C961   C     0.18188   0.93336   0.75121   0.00000  Uiso   1.00
C962   C     0.11384   0.82885   0.90226   0.00000  Uiso   1.00
C963   C     0.19040   0.98936   0.75163   0.00000  Uiso   1.00
C964   C     0.13365   0.83175   0.84687   0.00000  Uiso   1.00
C965   C     0.14345   0.67733   0.74691   0.00000  Uiso   1.00
C966   C     0.15167   0.73332   0.74819   0.00000  Uiso   1.00
C967   C     0.19976   0.83580   0.65328   0.00000  Uiso   1.00
C968   C     0.29250   0.88114   0.52636   0.00000  Uiso   1.00
C969   C     0.21836   0.83917   0.59815   0.00000  Uiso   1.00
C970   C     0.05330   0.80071   0.92200   0.00000  Uiso   1.00
C971   C     0.03261   0.79312   0.97375   0.00000  Uiso   1.00
C972   C     0.13812   0.83426   0.98717   0.00000  Uiso   1.00
C973   C     0.07395   0.81499   0.50619   0.00000  Uiso   1.00
C974   C     0.11774   0.74084   0.60591   0.00000  Uiso   1.00
C975   C     0.10562   0.69698   0.56668   0.00000  Uiso   1.00
C976   C     0.08853   0.97605   0.59095   0.00000  Uiso   1.00
C977   C     0.29022   0.74042   0.53526   0.00000  Uiso   1.00
C978   C     0.27234   0.68162   0.52461   0.00000  Uiso   1.00
C979   C     0.24966   0.98512   0.57459   0.00000  Uiso   1.00
C980   C     0.15622   0.84782   0.93533   0.00000  Uiso   1.00
C981   C     0.18443   0.84244   0.51802   0.00000  Uiso   1.00
C982   C     0.24576   0.87128   0.99754   0.00000  Uiso   1.00
C983   C     0.25966   0.89180   0.94895   0.00000  Uiso   1.00
C984   C     0.21539   0.88101   0.91856   0.00000  Uiso   1.00
C985   C     0.17299   0.82141   0.56749   0.00000  Uiso   1.00
C986   C     0.27866   0.86595   0.57660   0.00000  Uiso   1.00
Cu987  Cu    0.10710   0.82772   0.74436   0.00000  Uiso   1.00
Cu988  Cu    0.22623   0.83895   0.75565   0.00000  Uiso   1.00
H989   H     0.31416   0.87785   0.59939   0.00000  Uiso   1.00
H990   H     0.23562   0.67986   0.75611   0.00000  Uiso   1.00
H991   H     0.08000   0.73193   0.64010   0.00000  Uiso   1.00
H992   H     0.16173   0.74074   0.61856   0.00000  Uiso   1.00
H993   H     0.06703   0.70115   0.54865   0.00000  Uiso   1.00
H994   H     0.14759   0.70032   0.53627   0.00000  Uiso   1.00
H995   H     0.12255   0.97178   0.61400   0.00000  Uiso   1.00
H996   H     0.08709   0.94504   0.56100   0.00000  Uiso   1.00
H997   H     0.04228   0.97015   0.61674   0.00000  Uiso   1.00
H998   H     0.24977   0.75190   0.55966   0.00000  Uiso   1.00
H999   H     0.32680   0.74753   0.55826   0.00000  Uiso   1.00
H1000  H     0.09828   0.98684   0.74230   0.00000  Uiso   1.00
H1001  H     0.23509   0.67312   0.50188   0.00000  Uiso   1.00
H1002  H     0.31331   0.66822   0.50200   0.00000  Uiso   1.00
H1003  H     0.28976   0.97672   0.58790   0.00000  Uiso   1.00
H1004  H     0.21633   0.94776   0.56923   0.00000  Uiso   1.00
H1005  H     0.22580   0.67476   0.60496   0.00000  Uiso   1.00
H1006  H     0.00383   0.87244   0.78941   0.00000  Uiso   1.00
H1007  H     0.32952   0.79424   0.71057   0.00000  Uiso   1.00
H1008  H     0.30527   0.91623   0.93417   0.00000  Uiso   1.00
H1009  H     0.00577   0.90322   0.51074   0.00000  Uiso   1.00
H1010  H     0.02115   0.78468   0.89702   0.00000  Uiso   1.00
H1011  H     0.05499   0.82101   0.54550   0.00000  Uiso   1.00
H1012  H     0.22814   0.90026   0.88232   0.00000  Uiso   1.00
N1013  N     0.31574   0.84741   0.76416   0.00000  Uiso   1.00
N1014  N     0.01759   0.81926   0.73584   0.00000  Uiso   1.00
O1015  O     0.12797   0.90474   0.74633   0.00000  Uiso   1.00
O1016  O     0.30329   0.76923   0.98993   0.00000  Uiso   1.00
O1017  O     0.22858   0.91422   0.75587   0.00000  Uiso   1.00
O1018  O     0.09181   0.82627   0.81840   0.00000  Uiso   1.00
O1019  O     0.19242   0.83575   0.82793   0.00000  Uiso   1.00
O1020  O     0.10476   0.75245   0.74414   0.00000  Uiso   1.00
O1021  O     0.20536   0.76193   0.75367   0.00000  Uiso   1.00
O1022  O     0.14092   0.83092   0.67207   0.00000  Uiso   1.00
O1023  O     0.24152   0.84040   0.68161   0.00000  Uiso   1.00
O1024  O     0.11485   0.78975   0.58743   0.00000  Uiso   1.00
C1025  C     0.51521   0.93336   0.75121   0.00000  Uiso   1.00
C1026  C     0.44718   0.82885   0.90226   0.00000  Uiso   1.00
C1027  C     0.52373   0.98936   0.75163   0.00000  Uiso   1.00
C1028  C     0.46699   0.83175   0.84687   0.00000  Uiso   1.00
C1029  C     0.47679   0.67733   0.74691   0.00000  Uiso   1.00
C1030  C     0.48501   0.73332   0.74819   0.00000  Uiso   1.00
C1031  C     0.53310   0.83580   0.65328   0.00000  Uiso   1.00
C1032  C     0.62584   0.88114   0.52636   0.00000  Uiso   1.00
C1033  C     0.55170   0.83917   0.59815   0.00000  Uiso   1.00
C1034  C     0.38663   0.80071   0.92200   0.00000  Uiso   1.00
C1035  C     0.36595   0.79312   0.97375   0.00000  Uiso   1.00
C1036  C     0.47145   0.83426   0.98717   0.00000  Uiso   1.00
C1037  C     0.40729   0.81499   0.50619   0.00000  Uiso   1.00
C1038  C     0.45107   0.74084   0.60591   0.00000  Uiso   1.00
C1039  C     0.43896   0.69698   0.56668   0.00000  Uiso   1.00
C1040  C     0.42186   0.97605   0.59095   0.00000  Uiso   1.00
C1041  C     0.62355   0.74042   0.53526   0.00000  Uiso   1.00
C1042  C     0.60567   0.68162   0.52461   0.00000  Uiso   1.00
C1043  C     0.58299   0.98512   0.57459   0.00000  Uiso   1.00
C1044  C     0.48956   0.84782   0.93533   0.00000  Uiso   1.00
C1045  C     0.51776   0.84244   0.51802   0.00000  Uiso   1.00
C1046  C     0.57909   0.87128   0.99754   0.00000  Uiso   1.00
C1047  C     0.59299   0.89180   0.94895   0.00000  Uiso   1.00
C1048  C     0.54873   0.88101   0.91856   0.00000  Uiso   1.00
C1049  C     0.50632   0.82141   0.56749   0.00000  Uiso   1.00
C1050  C     0.61199   0.86595   0.57660   0.00000  Uiso   1.00
Cu1051 Cu    0.44043   0.82772   0.74436   0.00000  Uiso   1.00
Cu1052 Cu    0.55957   0.83895   0.75565   0.00000  Uiso   1.00
H1053  H     0.64749   0.87785   0.59939   0.00000  Uiso   1.00
H1054  H     0.56895   0.67986   0.75611   0.00000  Uiso   1.00
H1055  H     0.41334   0.73193   0.64010   0.00000  Uiso   1.00
H1056  H     0.49506   0.74074   0.61856   0.00000  Uiso   1.00
H1057  H     0.40036   0.70115   0.54865   0.00000  Uiso   1.00
H1058  H     0.48092   0.70032   0.53627   0.00000  Uiso   1.00
H1059  H     0.45588   0.97178   0.61400   0.00000  Uiso   1.00
H1060  H     0.42042   0.94504   0.56100   0.00000  Uiso   1.00
H1061  H     0.37562   0.97015   0.61674   0.00000  Uiso   1.00
H1062  H     0.58310   0.75190   0.55966   0.00000  Uiso   1.00
H1063  H     0.66013   0.74753   0.55826   0.00000  Uiso   1.00
H1064  H     0.43161   0.98684   0.74230   0.00000  Uiso   1.00
H1065  H     0.56842   0.67312   0.50188   0.00000  Uiso   1.00
H1066  H     0.64664   0.66822   0.50200   0.00000  Uiso   1.00
H1067  H     0.62310   0.97672   0.58790   0.00000  Uiso   1.00
H1068  H     0.54967   0.94776   0.56923   0.00000  Uiso   1.00
H1069  H     0.55914   0.67476   0.60496   0.00000  Uiso   1.00
H1070  H     0.33716   0.87244   0.78941   0.00000  Uiso   1.00
H1071  H     0.66285   0.79424   0.71057   0.00000  Uiso   1.00
H1072  H     0.63860   0.91623   0.93417   0.00000  Uiso   1.00
H1073  H     0.33911   0.90322   0.51074   0.00000  Uiso   1.00
H1074  H     0.35449   0.78468   0.89702   0.00000  Uiso   1.00
H1075  H     0.38832   0.82101   0.54550   0.00000  Uiso   1.00
H1076  H     0.56147   0.90026   0.88232   0.00000  Uiso   1.00
N1077  N     0.64908   0.84741   0.76416   0.00000  Uiso   1.00
N1078  N     0.35092   0.81926   0.73584   0.00000  Uiso   1.00
O1079  O     0.46131   0.90474   0.74633   0.00000  Uiso   1.00
O1080  O     0.63662   0.76923   0.98993   0.00000  Uiso   1.00
O1081  O     0.56191   0.91422   0.75587   0.00000  Uiso   1.00
O1082  O     0.42515   0.82627   0.81840   0.00000  Uiso   1.00
O1083  O     0.52575   0.83575   0.82793   0.00000  Uiso   1.00
O1084  O     0.43809   0.75245   0.74414   0.00000  Uiso   1.00
O1085  O     0.53869   0.76193   0.75367   0.00000  Uiso   1.00
O1086  O     0.47425   0.83092   0.67207   0.00000  Uiso   1.00
O1087  O     0.57485   0.84040   0.68161   0.00000  Uiso   1.00
O1088  O     0.44818   0.78975   0.58743   0.00000  Uiso   1.00
C1089  C     0.84854   0.93336   0.75121   0.00000  Uiso   1.00
C1090  C     0.78051   0.82885   0.90226   0.00000  Uiso   1.00
C1091  C     0.85706   0.98936   0.75163   0.00000  Uiso   1.00
C1092  C     0.80032   0.83175   0.84687   0.00000  Uiso   1.00
C1093  C     0.81012   0.67733   0.74691   0.00000  Uiso   1.00
C1094  C     0.81834   0.73332   0.74819   0.00000  Uiso   1.00
C1095  C     0.86643   0.83580   0.65328   0.00000  Uiso   1.00
C1096  C     0.95917   0.88114   0.52636   0.00000  Uiso   1.00
C1097  C     0.88503   0.83917   0.59815   0.00000  Uiso   1.00
C1098  C     0.71997   0.80071   0.92200   0.00000  Uiso   1.00
C1099  C     0.69928   0.79312   0.97375   0.00000  Uiso   1.00
C1100  C     0.80478   0.83426   0.98717   0.00000  Uiso   1.00
C1101  C     0.74062   0.81499   0.50619   0.00000  Uiso   1.00
C1102  C     0.78440   0.74084   0.60591   0.00000  Uiso   1.00
C1103  C     0.77229   0.69698   0.56668   0.00000  Uiso   1.00
C1104  C     0.75520   0.97605   0.59095   0.00000  Uiso   1.00
C1105  C     0.95688   0.74042   0.53526   0.00000  Uiso   1.00
C1106  C     0.93900   0.68162   0.52461   0.00000  Uiso   1.00
C1107  C     0.91632   0.98512   0.57459   0.00000  Uiso   1.00
C1108  C     0.82289   0.84782   0.93533   0.00000  Uiso   1.00
C1109  C     0.85109   0.84244   0.51802   0.00000  Uiso   1.00
C1110  C     0.91242   0.87128   0.99754   0.00000  Uiso   1.00
C1111  C     0.92633   0.89180   0.94895   0.00000  Uiso   1.00
C1112  C     0.88206   0.88101   0.91856   0.00000  Uiso   1.00
C1113  C     0.83965   0.82141   0.56749   0.00000  Uiso   1.00
C1114  C     0.94533   0.86595   0.57660   0.00000  Uiso   1.00
Cu1115 Cu    0.77377   0.82772   0.74436   0.00000  Uiso   1.00
Cu1116 Cu    0.89290   0.83895   0.75565   0.00000  Uiso   1.00
H1117  H     0.98082   0.87785   0.59939   0.00000  Uiso   1.00
H1118  H     0.90228   0.67986   0.75611   0.00000  Uiso   1.00
H1119  H     0.74667   0.73193   0.64010   0.00000  Uiso   1.00
H1120  H     0.82839   0.74074   0.61856   0.00000  Uiso   1.00
H1121  H     0.73369   0.70115   0.54865   0.00000  Uiso   1.00
H1122  H     0.81426   0.70032   0.53627   0.00000  Uiso   1.00
H1123  H     0.78922   0.97178   0.61400   0.00000  Uiso   1.00
H1124  H     0.75376   0.94504   0.56100   0.00000  Uiso   1.00
H1125  H     0.70895   0.97015   0.61674   0.00000  Uiso   1.00
H1126  H     0.91644   0.75190   0.55966   0.00000  Uiso   1.00
H1127  H     0.99346   0.74753   0.55826   0.00000  Uiso   1.00
H1128  H     0.76494   0.98684   0.74230   0.00000  Uiso   1.00
H1129  H     0.90175   0.67312   0.50188   0.00000  Uiso   1.00
H1130  H     0.97997   0.66822   0.50200   0.00000  Uiso   1.00
H1131  H     0.95643   0.97672   0.58790   0.00000  Uiso   1.00
H1132  H     0.88300   0.94776   0.56923   0.00000  Uiso   1.00
H1133  H     0.89247   0.67476   0.60496   0.00000  Uiso   1.00
H1134  H     0.67050   0.87244   0.78941   0.00000  Uiso   1.00
H1135  H     0.99618   0.79424   0.71057   0.00000  Uiso   1.00
H1136  H     0.97194   0.91623   0.93417   0.00000  Uiso   1.00
H1137  H     0.67244   0.90322   0.51074   0.00000  Uiso   1.00
H1138  H     0.68782   0.78468   0.89702   0.00000  Uiso   1.00
H1139  H     0.72165   0.82101   0.54550   0.00000  Uiso   1.00
H1140  H     0.89481   0.90026   0.88232   0.00000  Uiso   1.00
N1141  N     0.98241   0.84741   0.76416   0.00000  Uiso   1.00
N1142  N     0.68426   0.81926   0.73584   0.00000  Uiso   1.00
O1143  O     0.79464   0.90474   0.74633   0.00000  Uiso   1.00
O1144  O     0.96996   0.76923   0.98993   0.00000  Uiso   1.00
O1145  O     0.89524   0.91422   0.75587   0.00000  Uiso   1.00
O1146  O     0.75848   0.82627   0.81840   0.00000  Uiso   1.00
O1147  O     0.85908   0.83575   0.82793   0.00000  Uiso   1.00
O1148  O     0.77142   0.75245   0.74414   0.00000  Uiso   1.00
O1149  O     0.87203   0.76193   0.75367   0.00000  Uiso   1.00
O1150  O     0.80758   0.83092   0.67207   0.00000  Uiso   1.00
O1151  O     0.90819   0.84040   0.68161   0.00000  Uiso   1.00
O1152  O     0.78151   0.78975   0.58743   0.00000  Uiso   1.00
loop_
_geom_bond_atom_site_label_1
_geom_bond_atom_site_label_2
_geom_bond_distance
_geom_bond_site_symmetry_2
_ccdc_geom_bond_type
C1     O57     1.291   .     A
C1     O55     1.295   .     A
C1     C3      1.432   .     S
C2     C4      1.469   .     S
C2     C20     1.422   .     A
C2     C10     1.400   .     A
C3     C197    1.331   .     S
C3     H222    1.087   .     S
C4     O59     1.296   .     A
C4     O58     1.308   .     A
C5     C6      1.432   .     S
C5     C387    1.331   1_545 S
C5     H424    1.088   1_545 S
C6     O60     1.291   .     A
C6     O61     1.295   .     A
C7     O62     1.294   .     A
C7     O63     1.306   .     A
C7     C9      1.460   .     S
C8     C26     1.385   .     A
C8     C598    1.398   1_554 S
C8     H113    1.084   .     S
C9     C25     1.420   .     A
C9     C26     1.396   .     A
C10    C11     1.387   .     A
C10    H50     1.084   .     S
C11    C589    1.407   .     S
C11    O184    1.391   1_455 S
C12    C20     1.414   .     A
C12    C589    1.409   .     S
C12    C597    1.431   .     S
C13    H51     1.075   .     S
C13    C588    1.409   1_554 S
C13    C587    1.407   1_554 S
C14    H31     1.111   .     S
C14    O64     1.418   .     S
C14    C15     1.529   .     S
C14    H32     1.109   .     S
C15    H34     1.105   .     S
C15    H33     1.105   .     S
C15    C400    1.530   1_545 S
C16    H37     1.108   .     S
C16    H36     1.110   .     S
C16    H35     1.106   .     S
C16    C207    1.530   .     S
C17    C18     1.523   .     S
C17    H39     1.103   .     S
C17    H38     1.098   .     S
C17    O632    1.415   1_554 S
C18    H42     1.111   .     S
C18    H41     1.110   .     S
C18    C403    1.529   1_545 S
C19    H43     1.104   .     S
C19    H44     1.107   .     S
C19    C210    1.529   .     S
C19    H237    1.109   .     S
C20    C24     1.411   .     A
C21    C25     1.423   .     A
C21    C588    1.431   1_554 S
C21    C598    1.424   1_554 S
C22    C23     1.391   .     A
C22    C597    1.424   .     S
C22    C584    1.398   .     S
C23    C24     1.383   .     A
C23    H48     1.084   .     S
C24    H52     1.079   .     S
C25    O64     1.394   .     S
C26    H29     1.082   .     S
Cu27   O62     1.939   .     S
Cu27   N54     2.029   .     S
Cu27   O60     1.956   .     S
Cu27   O55     1.959   .     S
Cu27   Cu28    2.700   .     S
Cu27   O58     1.955   .     S
Cu28   N53     2.029   .     S
Cu28   O61     1.959   .     S
Cu28   O57     1.956   .     S
Cu28   O59     1.939   .     S
Cu28   O63     1.955   .     S
H30    C387    1.087   1_545 S
H40    C197    1.088   .     S
H45    C403    1.109   1_545 S
H46    N181    1.029   1_455 S
H47    N118    1.029   .     S
H49    C136    1.084   1_455 S
N53    H110    1.029   .     S
N53    N118    1.305   .     S
N54    N181    1.305   1_455 S
N54    H175    1.029   1_455 S
O56    C75     1.391   .     S
O56    C593    1.415   .     S
C65    O121    1.291   .     A
C65    O119    1.295   .     A
C65    C67     1.432   .     S
C66    C68     1.469   .     S
C66    C84     1.422   .     A
C66    C74     1.400   .     A
C67    C261    1.331   .     S
C67    H286    1.087   .     S
C68    O123    1.296   .     A
C68    O122    1.308   .     A
C69    C70     1.432   .     S
C69    C451    1.331   1_545 S
C69    H488    1.088   1_545 S
C70    O124    1.291   .     A
C70    O125    1.295   .     A
C71    O126    1.294   .     A
C71    O127    1.306   .     A
C71    C73     1.460   .     S
C72    C90     1.385   .     A
C72    C662    1.398   1_554 S
C72    H177    1.084   .     S
C73    C89     1.420   .     A
C73    C90     1.396   .     A
C74    C75     1.387   .     A
C74    H114    1.084   .     S
C75    C653    1.407   .     S
C76    C84     1.414   .     A
C76    C653    1.409   .     S
C76    C661    1.431   .     S
C77    H115    1.075   .     S
C77    C652    1.409   1_554 S
C77    C651    1.407   1_554 S
C78    H95     1.111   .     S
C78    O128    1.418   .     S
C78    C79     1.529   .     S
C78    H96     1.109   .     S
C79    H98     1.105   .     S
C79    H97     1.105   .     S
C79    C464    1.530   1_545 S
C80    H101    1.108   .     S
C80    H100    1.110   .     S
C80    H99     1.106   .     S
C80    C271    1.530   .     S
C81    C82     1.523   .     S
C81    H103    1.103   .     S
C81    H102    1.098   .     S
C81    O696    1.415   1_554 S
C82    H106    1.111   .     S
C82    H105    1.110   .     S
C82    C467    1.529   1_545 S
C83    H107    1.104   .     S
C83    H108    1.107   .     S
C83    C274    1.529   .     S
C83    H301    1.109   .     S
C84    C88     1.411   .     A
C85    C89     1.423   .     A
C85    C652    1.431   1_554 S
C85    C662    1.424   1_554 S
C86    C87     1.391   .     A
C86    C661    1.424   .     S
C86    C648    1.398   .     S
C87    C88     1.383   .     A
C87    H112    1.084   .     S
C88    H116    1.079   .     S
C89    O128    1.394   .     S
C90    H93     1.082   .     S
Cu91   O126    1.939   .     S
Cu91   N118    2.029   .     S
Cu91   O124    1.956   .     S
Cu91   O119    1.959   .     S
Cu91   Cu92    2.700   .     S
Cu91   O122    1.955   .     S
Cu92   N117    2.029   .     S
Cu92   O125    1.959   .     S
Cu92   O121    1.956   .     S
Cu92   O123    1.939   .     S
Cu92   O127    1.955   .     S
H94    C451    1.087   1_545 S
H104   C261    1.088   .     S
H109   C467    1.109   1_545 S
H111   N182    1.029   .     S
N117   H174    1.029   .     S
N117   N182    1.305   .     S
O120   C139    1.391   .     S
O120   C657    1.415   .     S
C129   O185    1.291   .     A
C129   O183    1.295   .     A
C129   C131    1.432   .     S
C130   C132    1.469   .     S
C130   C148    1.422   .     A
C130   C138    1.400   .     A
C131   C325    1.331   .     S
C131   H350    1.087   .     S
C132   O187    1.296   .     A
C132   O186    1.308   .     A
C133   C134    1.432   .     S
C133   C515    1.331   1_545 S
C133   H552    1.088   1_545 S
C134   O188    1.291   .     A
C134   O189    1.295   .     A
C135   O190    1.294   .     A
C135   O191    1.306   .     A
C135   C137    1.460   .     S
C136   C154    1.385   .     A
C136   C726    1.398   1_554 S
C136   H49     1.084   1_655 S
C137   C153    1.420   .     A
C137   C154    1.396   .     A
C138   C139    1.387   .     A
C138   H178    1.084   .     S
C139   C717    1.407   .     S
C140   C148    1.414   .     A
C140   C717    1.409   .     S
C140   C725    1.431   .     S
C141   H179    1.075   .     S
C141   C716    1.409   1_554 S
C141   C715    1.407   1_554 S
C142   H159    1.111   .     S
C142   O192    1.418   .     S
C142   C143    1.529   .     S
C142   H160    1.109   .     S
C143   H162    1.105   .     S
C143   H161    1.105   .     S
C143   C528    1.530   1_545 S
C144   H165    1.108   .     S
C144   H164    1.110   .     S
C144   H163    1.106   .     S
C144   C335    1.530   .     S
C145   C146    1.523   .     S
C145   H167    1.103   .     S
C145   H166    1.098   .     S
C145   O760    1.415   1_554 S
C146   H170    1.111   .     S
C146   H169    1.110   .     S
C146   C531    1.529   1_545 S
C147   H171    1.104   .     S
C147   H172    1.107   .     S
C147   C338    1.529   .     S
C147   H365    1.109   .     S
C148   C152    1.411   .     A
C149   C153    1.423   .     A
C149   C716    1.431   1_554 S
C149   C726    1.424   1_554 S
C150   C151    1.391   .     A
C150   C725    1.424   .     S
C150   C712    1.398   .     S
C151   C152    1.383   .     A
C151   H176    1.084   .     S
C152   H180    1.079   .     S
C153   O192    1.394   .     S
C154   H157    1.082   .     S
Cu155  O190    1.939   .     S
Cu155  N182    2.029   .     S
Cu155  O188    1.956   .     S
Cu155  O183    1.959   .     S
Cu155  Cu156   2.700   .     S
Cu155  O186    1.955   .     S
Cu156  N181    2.029   .     S
Cu156  O189    1.959   .     S
Cu156  O185    1.956   .     S
Cu156  O187    1.939   .     S
Cu156  O191    1.955   .     S
H158   C515    1.087   1_545 S
H168   C325    1.088   .     S
H173   C531    1.109   1_545 S
H175   N54     1.029   1_655 S
N181   H46     1.029   1_655 S
N181   N54     1.305   1_655 S
O184   C11     1.391   1_655 S
O184   C721    1.415   .     S
C193   O249    1.291   .     A
C193   O247    1.295   .     A
C193   C195    1.432   .     S
C194   C196    1.469   .     S
C194   C212    1.422   .     A
C194   C202    1.400   .     A
C195   C389    1.331   .     S
C195   H414    1.087   .     S
C196   O251    1.296   .     A
C196   O250    1.308   .     A
C197   C198    1.432   .     S
C198   O252    1.291   .     A
C198   O253    1.295   .     A
C199   O254    1.294   .     A
C199   O255    1.306   .     A
C199   C201    1.460   .     S
C200   C218    1.385   .     A
C200   C790    1.398   1_554 S
C200   H305    1.084   .     S
C201   C217    1.420   .     A
C201   C218    1.396   .     A
C202   C203    1.387   .     A
C202   H242    1.084   .     S
C203   C781    1.407   .     S
C203   O376    1.391   1_455 S
C204   C212    1.414   .     A
C204   C781    1.409   .     S
C204   C789    1.431   .     S
C205   H243    1.075   .     S
C205   C780    1.409   1_554 S
C205   C779    1.407   1_554 S
C206   H223    1.111   .     S
C206   O256    1.418   .     S
C206   C207    1.529   .     S
C206   H224    1.109   .     S
C207   H226    1.105   .     S
C207   H225    1.105   .     S
C208   H229    1.108   .     S
C208   H228    1.110   .     S
C208   H227    1.106   .     S
C208   C399    1.530   .     S
C209   C210    1.523   .     S
C209   H231    1.103   .     S
C209   H230    1.098   .     S
C209   O824    1.415   1_554 S
C210   H234    1.111   .     S
C210   H233    1.110   .     S
C211   H235    1.104   .     S
C211   H236    1.107   .     S
C211   C402    1.529   .     S
C211   H429    1.109   .     S
C212   C216    1.411   .     A
C213   C217    1.423   .     A
C213   C780    1.431   1_554 S
C213   C790    1.424   1_554 S
C214   C215    1.391   .     A
C214   C789    1.424   .     S
C214   C776    1.398   .     S
C215   C216    1.383   .     A
C215   H240    1.084   .     S
C216   H244    1.079   .     S
C217   O256    1.394   .     S
C218   H221    1.082   .     S
Cu219  O254    1.939   .     S
Cu219  N246    2.029   .     S
Cu219  O252    1.956   .     S
Cu219  O247    1.959   .     S
Cu219  Cu220   2.700   .     S
Cu219  O250    1.955   .     S
Cu220  N245    2.029   .     S
Cu220  O253    1.959   .     S
Cu220  O249    1.956   .     S
Cu220  O251    1.939   .     S
Cu220  O255    1.955   .     S
H232   C389    1.088   .     S
H238   N373    1.029   1_455 S
H239   N310    1.029   .     S
H241   C328    1.084   1_455 S
N245   H302    1.029   .     S
N245   N310    1.305   .     S
N246   N373    1.305   1_455 S
N246   H367    1.029   1_455 S
O248   C267    1.391   .     S
O248   C785    1.415   .     S
C257   O313    1.291   .     A
C257   O311    1.295   .     A
C257   C259    1.432   .     S
C258   C260    1.469   .     S
C258   C276    1.422   .     A
C258   C266    1.400   .     A
C259   C453    1.331   .     S
C259   H478    1.087   .     S
C260   O315    1.296   .     A
C260   O314    1.308   .     A
C261   C262    1.432   .     S
C262   O316    1.291   .     A
C262   O317    1.295   .     A
C263   O318    1.294   .     A
C263   O319    1.306   .     A
C263   C265    1.460   .     S
C264   C282    1.385   .     A
C264   C854    1.398   1_554 S
C264   H369    1.084   .     S
C265   C281    1.420   .     A
C265   C282    1.396   .     A
C266   C267    1.387   .     A
C266   H306    1.084   .     S
C267   C845    1.407   .     S
C268   C276    1.414   .     A
C268   C845    1.409   .     S
C268   C853    1.431   .     S
C269   H307    1.075   .     S
C269   C844    1.409   1_554 S
C269   C843    1.407   1_554 S
C270   H287    1.111   .     S
C270   O320    1.418   .     S
C270   C271    1.529   .     S
C270   H288    1.109   .     S
C271   H290    1.105   .     S
C271   H289    1.105   .     S
C272   H293    1.108   .     S
C272   H292    1.110   .     S
C272   H291    1.106   .     S
C272   C463    1.530   .     S
C273   C274    1.523   .     S
C273   H295    1.103   .     S
C273   H294    1.098   .     S
C273   O888    1.415   1_554 S
C274   H298    1.111   .     S
C274   H297    1.110   .     S
C275   H299    1.104   .     S
C275   H300    1.107   .     S
C275   C466    1.529   .     S
C275   H493    1.109   .     S
C276   C280    1.411   .     A
C277   C281    1.423   .     A
C277   C844    1.431   1_554 S
C277   C854    1.424   1_554 S
C278   C279    1.391   .     A
C278   C853    1.424   .     S
C278   C840    1.398   .     S
C279   C280    1.383   .     A
C279   H304    1.084   .     S
C280   H308    1.079   .     S
C281   O320    1.394   .     S
C282   H285    1.082   .     S
Cu283  O318    1.939   .     S
Cu283  N310    2.029   .     S
Cu283  O316    1.956   .     S
Cu283  O311    1.959   .     S
Cu283  Cu284   2.700   .     S
Cu283  O314    1.955   .     S
Cu284  N309    2.029   .     S
Cu284  O317    1.959   .     S
Cu284  O313    1.956   .     S
Cu284  O315    1.939   .     S
Cu284  O319    1.955   .     S
H296   C453    1.088   .     S
H303   N374    1.029   .     S
N309   H366    1.029   .     S
N309   N374    1.305   .     S
O312   C331    1.391   .     S
O312   C849    1.415   .     S
C321   O377    1.291   .     A
C321   O375    1.295   .     A
C321   C323    1.432   .     S
C322   C324    1.469   .     S
C322   C340    1.422   .     A
C322   C330    1.400   .     A
C323   C517    1.331   .     S
C323   H542    1.087   .     S
C324   O379    1.296   .     A
C324   O378    1.308   .     A
C325   C326    1.432   .     S
C326   O380    1.291   .     A
C326   O381    1.295   .     A
C327   O382    1.294   .     A
C327   O383    1.306   .     A
C327   C329    1.460   .     S
C328   C346    1.385   .     A
C328   C918    1.398   1_554 S
C328   H241    1.084   1_655 S
C329   C345    1.420   .     A
C329   C346    1.396   .     A
C330   C331    1.387   .     A
C330   H370    1.084   .     S
C331   C909    1.407   .     S
C332   C340    1.414   .     A
C332   C909    1.409   .     S
C332   C917    1.431   .     S
C333   H371    1.075   .     S
C333   C908    1.409   1_554 S
C333   C907    1.407   1_554 S
C334   H351    1.111   .     S
C334   O384    1.418   .     S
C334   C335    1.529   .     S
C334   H352    1.109   .     S
C335   H354    1.105   .     S
C335   H353    1.105   .     S
C336   H357    1.108   .     S
C336   H356    1.110   .     S
C336   H355    1.106   .     S
C336   C527    1.530   .     S
C337   C338    1.523   .     S
C337   H359    1.103   .     S
C337   H358    1.098   .     S
C337   O952    1.415   1_554 S
C338   H362    1.111   .     S
C338   H361    1.110   .     S
C339   H363    1.104   .     S
C339   H364    1.107   .     S
C339   C530    1.529   .     S
C339   H557    1.109   .     S
C340   C344    1.411   .     A
C341   C345    1.423   .     A
C341   C908    1.431   1_554 S
C341   C918    1.424   1_554 S
C342   C343    1.391   .     A
C342   C917    1.424   .     S
C342   C904    1.398   .     S
C343   C344    1.383   .     A
C343   H368    1.084   .     S
C344   H372    1.079   .     S
C345   O384    1.394   .     S
C346   H349    1.082   .     S
Cu347  O382    1.939   .     S
Cu347  N374    2.029   .     S
Cu347  O380    1.956   .     S
Cu347  O375    1.959   .     S
Cu347  Cu348   2.700   .     S
Cu347  O378    1.955   .     S
Cu348  N373    2.029   .     S
Cu348  O381    1.959   .     S
Cu348  O377    1.956   .     S
Cu348  O379    1.939   .     S
Cu348  O383    1.955   .     S
H360   C517    1.088   .     S
H367   N246    1.029   1_655 S
N373   H238    1.029   1_655 S
N373   N246    1.305   1_655 S
O376   C203    1.391   1_655 S
O376   C913    1.415   .     S
C385   O441    1.291   .     A
C385   O439    1.295   .     A
C385   C387    1.432   .     S
C386   C388    1.469   .     S
C386   C404    1.422   .     A
C386   C394    1.400   .     A
C387   C5      1.331   1_565 S
C387   H30     1.087   1_565 S
C388   O443    1.296   .     A
C388   O442    1.308   .     A
C389   C390    1.432   .     S
C390   O444    1.291   .     A
C390   O445    1.295   .     A
C391   O446    1.294   .     A
C391   O447    1.306   .     A
C391   C393    1.460   .     S
C392   C410    1.385   .     A
C392   C982    1.398   1_554 S
C392   H497    1.084   .     S
C393   C409    1.420   .     A
C393   C410    1.396   .     A
C394   C395    1.387   .     A
C394   H434    1.084   .     S
C395   C973    1.407   .     S
C395   O568    1.391   1_455 S
C396   C404    1.414   .     A
C396   C973    1.409   .     S
C396   C981    1.431   .     S
C397   H435    1.075   .     S
C397   C972    1.409   1_554 S
C397   C971    1.407   1_554 S
C398   H415    1.111   .     S
C398   O448    1.418   .     S
C398   C399    1.529   .     S
C398   H416    1.109   .     S
C399   H418    1.105   .     S
C399   H417    1.105   .     S
C400   H421    1.108   .     S
C400   H420    1.110   .     S
C400   H419    1.106   .     S
C400   C15     1.530   1_565 S
C401   C402    1.523   .     S
C401   H423    1.103   .     S
C401   H422    1.098   .     S
C401   O1016   1.415   1_554 S
C402   H426    1.111   .     S
C402   H425    1.110   .     S
C403   H427    1.104   .     S
C403   H428    1.107   .     S
C403   C18     1.529   1_565 S
C403   H45     1.109   1_565 S
C404   C408    1.411   .     A
C405   C409    1.423   .     A
C405   C972    1.431   1_554 S
C405   C982    1.424   1_554 S
C406   C407    1.391   .     A
C406   C981    1.424   .     S
C406   C968    1.398   .     S
C407   C408    1.383   .     A
C407   H432    1.084   .     S
C408   H436    1.079   .     S
C409   O448    1.394   .     S
C410   H413    1.082   .     S
Cu411  O446    1.939   .     S
Cu411  N438    2.029   .     S
Cu411  O444    1.956   .     S
Cu411  O439    1.959   .     S
Cu411  Cu412   2.700   .     S
Cu411  O442    1.955   .     S
Cu412  N437    2.029   .     S
Cu412  O445    1.959   .     S
Cu412  O441    1.956   .     S
Cu412  O443    1.939   .     S
Cu412  O447    1.955   .     S
H424   C5      1.088   1_565 S
H430   N565    1.029   1_455 S
H431   N502    1.029   .     S
H433   C520    1.084   1_455 S
N437   H494    1.029   .     S
N437   N502    1.305   .     S
N438   N565    1.305   1_455 S
N438   H559    1.029   1_455 S
O440   C459    1.391   .     S
O440   C977    1.415   .     S
C449   O505    1.291   .     A
C449   O503    1.295   .     A
C449   C451    1.432   .     S
C450   C452    1.469   .     S
C450   C468    1.422   .     A
C450   C458    1.400   .     A
C451   C69     1.331   1_565 S
C451   H94     1.087   1_565 S
C452   O507    1.296   .     A
C452   O506    1.308   .     A
C453   C454    1.432   .     S
C454   O508    1.291   .     A
C454   O509    1.295   .     A
C455   O510    1.294   .     A
C455   O511    1.306   .     A
C455   C457    1.460   .     S
C456   C474    1.385   .     A
C456   C1046   1.398   1_554 S
C456   H561    1.084   .     S
C457   C473    1.420   .     A
C457   C474    1.396   .     A
C458   C459    1.387   .     A
C458   H498    1.084   .     S
C459   C1037   1.407   .     S
C460   C468    1.414   .     A
C460   C1037   1.409   .     S
C460   C1045   1.431   .     S
C461   H499    1.075   .     S
C461   C1036   1.409   1_554 S
C461   C1035   1.407   1_554 S
C462   H479    1.111   .     S
C462   O512    1.418   .     S
C462   C463    1.529   .     S
C462   H480    1.109   .     S
C463   H482    1.105   .     S
C463   H481    1.105   .     S
C464   H485    1.108   .     S
C464   H484    1.110   .     S
C464   H483    1.106   .     S
C464   C79     1.530   1_565 S
C465   C466    1.523   .     S
C465   H487    1.103   .     S
C465   H486    1.098   .     S
C465   O1080   1.415   1_554 S
C466   H490    1.111   .     S
C466   H489    1.110   .     S
C467   H491    1.104   .     S
C467   H492    1.107   .     S
C467   C82     1.529   1_565 S
C467   H109    1.109   1_565 S
C468   C472    1.411   .     A
C469   C473    1.423   .     A
C469   C1036   1.431   1_554 S
C469   C1046   1.424   1_554 S
C470   C471    1.391   .     A
C470   C1045   1.424   .     S
C470   C1032   1.398   .     S
C471   C472    1.383   .     A
C471   H496    1.084   .     S
C472   H500    1.079   .     S
C473   O512    1.394   .     S
C474   H477    1.082   .     S
Cu475  O510    1.939   .     S
Cu475  N502    2.029   .     S
Cu475  O508    1.956   .     S
Cu475  O503    1.959   .     S
Cu475  Cu476   2.700   .     S
Cu475  O506    1.955   .     S
Cu476  N501    2.029   .     S
Cu476  O509    1.959   .     S
Cu476  O505    1.956   .     S
Cu476  O507    1.939   .     S
Cu476  O511    1.955   .     S
H488   C69     1.088   1_565 S
H495   N566    1.029   .     S
N501   H558    1.029   .     S
N501   N566    1.305   .     S
O504   C523    1.391   .     S
O504   C1041   1.415   .     S
C513   O569    1.291   .     A
C513   O567    1.295   .     A
C513   C515    1.432   .     S
C514   C516    1.469   .     S
C514   C532    1.422   .     A
C514   C522    1.400   .     A
C515   C133    1.331   1_565 S
C515   H158    1.087   1_565 S
C516   O571    1.296   .     A
C516   O570    1.308   .     A
C517   C518    1.432   .     S
C518   O572    1.291   .     A
C518   O573    1.295   .     A
C519   O574    1.294   .     A
C519   O575    1.306   .     A
C519   C521    1.460   .     S
C520   C538    1.385   .     A
C520   C1110   1.398   1_554 S
C520   H433    1.084   1_655 S
C521   C537    1.420   .     A
C521   C538    1.396   .     A
C522   C523    1.387   .     A
C522   H562    1.084   .     S
C523   C1101   1.407   .     S
C524   C532    1.414   .     A
C524   C1101   1.409   .     S
C524   C1109   1.431   .     S
C525   H563    1.075   .     S
C525   C1100   1.409   1_554 S
C525   C1099   1.407   1_554 S
C526   H543    1.111   .     S
C526   O576    1.418   .     S
C526   C527    1.529   .     S
C526   H544    1.109   .     S
C527   H546    1.105   .     S
C527   H545    1.105   .     S
C528   H549    1.108   .     S
C528   H548    1.110   .     S
C528   H547    1.106   .     S
C528   C143    1.530   1_565 S
C529   C530    1.523   .     S
C529   H551    1.103   .     S
C529   H550    1.098   .     S
C529   O1144   1.415   1_554 S
C530   H554    1.111   .     S
C530   H553    1.110   .     S
C531   H555    1.104   .     S
C531   H556    1.107   .     S
C531   C146    1.529   1_565 S
C531   H173    1.109   1_565 S
C532   C536    1.411   .     A
C533   C537    1.423   .     A
C533   C1100   1.431   1_554 S
C533   C1110   1.424   1_554 S
C534   C535    1.391   .     A
C534   C1109   1.424   .     S
C534   C1096   1.398   .     S
C535   C536    1.383   .     A
C535   H560    1.084   .     S
C536   H564    1.079   .     S
C537   O576    1.394   .     S
C538   H541    1.082   .     S
Cu539  O574    1.939   .     S
Cu539  N566    2.029   .     S
Cu539  O572    1.956   .     S
Cu539  O567    1.959   .     S
Cu539  Cu540   2.700   .     S
Cu539  O570    1.955   .     S
Cu540  N565    2.029   .     S
Cu540  O573    1.959   .     S
Cu540  O569    1.956   .     S
Cu540  O571    1.939   .     S
Cu540  O575    1.955   .     S
H552   C133    1.088   1_565 S
H559   N438    1.029   1_655 S
N565   H430    1.029   1_655 S
N565   N438    1.305   1_655 S
O568   C395    1.391   1_655 S
O568   C1105   1.415   .     S
C577   O633    1.291   .     A
C577   O631    1.295   .     A
C577   C579    1.432   .     S
C578   C580    1.469   .     S
C578   C596    1.422   .     A
C578   C586    1.400   .     A
C579   C773    1.331   .     S
C579   H798    1.087   .     S
C580   O635    1.296   .     A
C580   O634    1.308   .     A
C581   C582    1.432   .     S
C581   C963    1.331   1_545 S
C581   H1000   1.088   1_545 S
C582   O636    1.291   .     A
C582   O637    1.295   .     A
C583   O638    1.294   .     A
C583   O639    1.306   .     A
C583   C585    1.460   .     S
C584   C602    1.385   .     A
C584   H689    1.084   .     S
C585   C601    1.420   .     A
C585   C602    1.396   .     A
C586   C587    1.387   .     A
C586   H626    1.084   .     S
C587   C13     1.407   1_556 S
C587   O760    1.391   1_455 S
C588   C596    1.414   .     A
C588   C13     1.409   1_556 S
C588   C21     1.431   1_556 S
C589   H627    1.075   .     S
C590   H607    1.111   .     S
C590   O640    1.418   .     S
C590   C591    1.529   .     S
C590   H608    1.109   .     S
C591   H610    1.105   .     S
C591   H609    1.105   .     S
C591   C976    1.530   1_545 S
C592   H613    1.108   .     S
C592   H612    1.110   .     S
C592   H611    1.106   .     S
C592   C783    1.530   .     S
C593   C594    1.523   .     S
C593   H615    1.103   .     S
C593   H614    1.098   .     S
C594   H618    1.111   .     S
C594   H617    1.110   .     S
C594   C979    1.529   1_545 S
C595   H619    1.104   .     S
C595   H620    1.107   .     S
C595   C786    1.529   .     S
C595   H813    1.109   .     S
C596   C600    1.411   .     A
C597   C601    1.423   .     A
C598   C599    1.391   .     A
C598   C21     1.424   1_556 S
C598   C8      1.398   1_556 S
C599   C600    1.383   .     A
C599   H624    1.084   .     S
C600   H628    1.079   .     S
C601   O640    1.394   .     S
C602   H605    1.082   .     S
Cu603  O638    1.939   .     S
Cu603  N630    2.029   .     S
Cu603  O636    1.956   .     S
Cu603  O631    1.959   .     S
Cu603  Cu604   2.700   .     S
Cu603  O634    1.955   .     S
Cu604  N629    2.029   .     S
Cu604  O637    1.959   .     S
Cu604  O633    1.956   .     S
Cu604  O635    1.939   .     S
Cu604  O639    1.955   .     S
H606   C963    1.087   1_545 S
H616   C773    1.088   .     S
H621   C979    1.109   1_545 S
H622   N757    1.029   1_455 S
H623   N694    1.029   .     S
H625   C712    1.084   1_455 S
N629   H686    1.029   .     S
N629   N694    1.305   .     S
N630   N757    1.305   1_455 S
N630   H751    1.029   1_455 S
O632   C651    1.391   .     S
O632   C17     1.415   1_556 S
C641   O697    1.291   .     A
C641   O695    1.295   .     A
C641   C643    1.432   .     S
C642   C644    1.469   .     S
C642   C660    1.422   .     A
C642   C650    1.400   .     A
C643   C837    1.331   .     S
C643   H862    1.087   .     S
C644   O699    1.296   .     A
C644   O698    1.308   .     A
C645   C646    1.432   .     S
C645   C1027   1.331   1_545 S
C645   H1064   1.088   1_545 S
C646   O700    1.291   .     A
C646   O701    1.295   .     A
C647   O702    1.294   .     A
C647   O703    1.306   .     A
C647   C649    1.460   .     S
C648   C666    1.385   .     A
C648   H753    1.084   .     S
C649   C665    1.420   .     A
C649   C666    1.396   .     A
C650   C651    1.387   .     A
C650   H690    1.084   .     S
C651   C77     1.407   1_556 S
C652   C660    1.414   .     A
C652   C77     1.409   1_556 S
C652   C85     1.431   1_556 S
C653   H691    1.075   .     S
C654   H671    1.111   .     S
C654   O704    1.418   .     S
C654   C655    1.529   .     S
C654   H672    1.109   .     S
C655   H674    1.105   .     S
C655   H673    1.105   .     S
C655   C1040   1.530   1_545 S
C656   H677    1.108   .     S
C656   H676    1.110   .     S
C656   H675    1.106   .     S
C656   C847    1.530   .     S
C657   C658    1.523   .     S
C657   H679    1.103   .     S
C657   H678    1.098   .     S
C658   H682    1.111   .     S
C658   H681    1.110   .     S
C658   C1043   1.529   1_545 S
C659   H683    1.104   .     S
C659   H684    1.107   .     S
C659   C850    1.529   .     S
C659   H877    1.109   .     S
C660   C664    1.411   .     A
C661   C665    1.423   .     A
C662   C663    1.391   .     A
C662   C85     1.424   1_556 S
C662   C72     1.398   1_556 S
C663   C664    1.383   .     A
C663   H688    1.084   .     S
C664   H692    1.079   .     S
C665   O704    1.394   .     S
C666   H669    1.082   .     S
Cu667  O702    1.939   .     S
Cu667  N694    2.029   .     S
Cu667  O700    1.956   .     S
Cu667  O695    1.959   .     S
Cu667  Cu668   2.700   .     S
Cu667  O698    1.955   .     S
Cu668  N693    2.029   .     S
Cu668  O701    1.959   .     S
Cu668  O697    1.956   .     S
Cu668  O699    1.939   .     S
Cu668  O703    1.955   .     S
H670   C1027   1.087   1_545 S
H680   C837    1.088   .     S
H685   C1043   1.109   1_545 S
H687   N758    1.029   .     S
N693   H750    1.029   .     S
N693   N758    1.305   .     S
O696   C715    1.391   .     S
O696   C81     1.415   1_556 S
C705   O761    1.291   .     A
C705   O759    1.295   .     A
C705   C707    1.432   .     S
C706   C708    1.469   .     S
C706   C724    1.422   .     A
C706   C714    1.400   .     A
C707   C901    1.331   .     S
C707   H926    1.087   .     S
C708   O763    1.296   .     A
C708   O762    1.308   .     A
C709   C710    1.432   .     S
C709   C1091   1.331   1_545 S
C709   H1128   1.088   1_545 S
C710   O764    1.291   .     A
C710   O765    1.295   .     A
C711   O766    1.294   .     A
C711   O767    1.306   .     A
C711   C713    1.460   .     S
C712   C730    1.385   .     A
C712   H625    1.084   1_655 S
C713   C729    1.420   .     A
C713   C730    1.396   .     A
C714   C715    1.387   .     A
C714   H754    1.084   .     S
C715   C141    1.407   1_556 S
C716   C724    1.414   .     A
C716   C141    1.409   1_556 S
C716   C149    1.431   1_556 S
C717   H755    1.075   .     S
C718   H735    1.111   .     S
C718   O768    1.418   .     S
C718   C719    1.529   .     S
C718   H736    1.109   .     S
C719   H738    1.105   .     S
C719   H737    1.105   .     S
C719   C1104   1.530   1_545 S
C720   H741    1.108   .     S
C720   H740    1.110   .     S
C720   H739    1.106   .     S
C720   C911    1.530   .     S
C721   C722    1.523   .     S
C721   H743    1.103   .     S
C721   H742    1.098   .     S
C722   H746    1.111   .     S
C722   H745    1.110   .     S
C722   C1107   1.529   1_545 S
C723   H747    1.104   .     S
C723   H748    1.107   .     S
C723   C914    1.529   .     S
C723   H941    1.109   .     S
C724   C728    1.411   .     A
C725   C729    1.423   .     A
C726   C727    1.391   .     A
C726   C149    1.424   1_556 S
C726   C136    1.398   1_556 S
C727   C728    1.383   .     A
C727   H752    1.084   .     S
C728   H756    1.079   .     S
C729   O768    1.394   .     S
C730   H733    1.082   .     S
Cu731  O766    1.939   .     S
Cu731  N758    2.029   .     S
Cu731  O764    1.956   .     S
Cu731  O759    1.959   .     S
Cu731  Cu732   2.700   .     S
Cu731  O762    1.955   .     S
Cu732  N757    2.029   .     S
Cu732  O765    1.959   .     S
Cu732  O761    1.956   .     S
Cu732  O763    1.939   .     S
Cu732  O767    1.955   .     S
H734   C1091   1.087   1_545 S
H744   C901    1.088   .     S
H749   C1107   1.109   1_545 S
H751   N630    1.029   1_655 S
N757   H622    1.029   1_655 S
N757   N630    1.305   1_655 S
O760   C587    1.391   1_655 S
O760   C145    1.415   1_556 S
C769   O825    1.291   .     A
C769   O823    1.295   .     A
C769   C771    1.432   .     S
C770   C772    1.469   .     S
C770   C788    1.422   .     A
C770   C778    1.400   .     A
C771   C965    1.331   .     S
C771   H990    1.087   .     S
C772   O827    1.296   .     A
C772   O826    1.308   .     A
C773   C774    1.432   .     S
C774   O828    1.291   .     A
C774   O829    1.295   .     A
C775   O830    1.294   .     A
C775   O831    1.306   .     A
C775   C777    1.460   .     S
C776   C794    1.385   .     A
C776   H881    1.084   .     S
C777   C793    1.420   .     A
C777   C794    1.396   .     A
C778   C779    1.387   .     A
C778   H818    1.084   .     S
C779   C205    1.407   1_556 S
C779   O952    1.391   1_455 S
C780   C788    1.414   .     A
C780   C205    1.409   1_556 S
C780   C213    1.431   1_556 S
C781   H819    1.075   .     S
C782   H799    1.111   .     S
C782   O832    1.418   .     S
C782   C783    1.529   .     S
C782   H800    1.109   .     S
C783   H802    1.105   .     S
C783   H801    1.105   .     S
C784   H805    1.108   .     S
C784   H804    1.110   .     S
C784   H803    1.106   .     S
C784   C975    1.530   .     S
C785   C786    1.523   .     S
C785   H807    1.103   .     S
C785   H806    1.098   .     S
C786   H810    1.111   .     S
C786   H809    1.110   .     S
C787   H811    1.104   .     S
C787   H812    1.107   .     S
C787   C978    1.529   .     S
C787   H1005   1.109   .     S
C788   C792    1.411   .     A
C789   C793    1.423   .     A
C790   C791    1.391   .     A
C790   C213    1.424   1_556 S
C790   C200    1.398   1_556 S
C791   C792    1.383   .     A
C791   H816    1.084   .     S
C792   H820    1.079   .     S
C793   O832    1.394   .     S
C794   H797    1.082   .     S
Cu795  O830    1.939   .     S
Cu795  N822    2.029   .     S
Cu795  O828    1.956   .     S
Cu795  O823    1.959   .     S
Cu795  Cu796   2.700   .     S
Cu795  O826    1.955   .     S
Cu796  N821    2.029   .     S
Cu796  O829    1.959   .     S
Cu796  O825    1.956   .     S
Cu796  O827    1.939   .     S
Cu796  O831    1.955   .     S
H808   C965    1.088   .     S
H814   N949    1.029   1_455 S
H815   N886    1.029   .     S
H817   C904    1.084   1_455 S
N821   H878    1.029   .     S
N821   N886    1.305   .     S
N822   N949    1.305   1_455 S
N822   H943    1.029   1_455 S
O824   C843    1.391   .     S
O824   C209    1.415   1_556 S
C833   O889    1.291   .     A
C833   O887    1.295   .     A
C833   C835    1.432   .     S
C834   C836    1.469   .     S
C834   C852    1.422   .     A
C834   C842    1.400   .     A
C835   C1029   1.331   .     S
C835   H1054   1.087   .     S
C836   O891    1.296   .     A
C836   O890    1.308   .     A
C837   C838    1.432   .     S
C838   O892    1.291   .     A
C838   O893    1.295   .     A
C839   O894    1.294   .     A
C839   O895    1.306   .     A
C839   C841    1.460   .     S
C840   C858    1.385   .     A
C840   H945    1.084   .     S
C841   C857    1.420   .     A
C841   C858    1.396   .     A
C842   C843    1.387   .     A
C842   H882    1.084   .     S
C843   C269    1.407   1_556 S
C844   C852    1.414   .     A
C844   C269    1.409   1_556 S
C844   C277    1.431   1_556 S
C845   H883    1.075   .     S
C846   H863    1.111   .     S
C846   O896    1.418   .     S
C846   C847    1.529   .     S
C846   H864    1.109   .     S
C847   H866    1.105   .     S
C847   H865    1.105   .     S
C848   H869    1.108   .     S
C848   H868    1.110   .     S
C848   H867    1.106   .     S
C848   C1039   1.530   .     S
C849   C850    1.523   .     S
C849   H871    1.103   .     S
C849   H870    1.098   .     S
C850   H874    1.111   .     S
C850   H873    1.110   .     S
C851   H875    1.104   .     S
C851   H876    1.107   .     S
C851   C1042   1.529   .     S
C851   H1069   1.109   .     S
C852   C856    1.411   .     A
C853   C857    1.423   .     A
C854   C855    1.391   .     A
C854   C277    1.424   1_556 S
C854   C264    1.398   1_556 S
C855   C856    1.383   .     A
C855   H880    1.084   .     S
C856   H884    1.079   .     S
C857   O896    1.394   .     S
C858   H861    1.082   .     S
Cu859  O894    1.939   .     S
Cu859  N886    2.029   .     S
Cu859  O892    1.956   .     S
Cu859  O887    1.959   .     S
Cu859  Cu860   2.700   .     S
Cu859  O890    1.955   .     S
Cu860  N885    2.029   .     S
Cu860  O893    1.959   .     S
Cu860  O889    1.956   .     S
Cu860  O891    1.939   .     S
Cu860  O895    1.955   .     S
H872   C1029   1.088   .     S
H879   N950    1.029   .     S
N885   H942    1.029   .     S
N885   N950    1.305   .     S
O888   C907    1.391   .     S
O888   C273    1.415   1_556 S
C897   O953    1.291   .     A
C897   O951    1.295   .     A
C897   C899    1.432   .     S
C898   C900    1.469   .     S
C898   C916    1.422   .     A
C898   C906    1.400   .     A
C899   C1093   1.331   .     S
C899   H1118   1.087   .     S
C900   O955    1.296   .     A
C900   O954    1.308   .     A
C901   C902    1.432   .     S
C902   O956    1.291   .     A
C902   O957    1.295   .     A
C903   O958    1.294   .     A
C903   O959    1.306   .     A
C903   C905    1.460   .     S
C904   C922    1.385   .     A
C904   H817    1.084   1_655 S
C905   C921    1.420   .     A
C905   C922    1.396   .     A
C906   C907    1.387   .     A
C906   H946    1.084   .     S
C907   C333    1.407   1_556 S
C908   C916    1.414   .     A
C908   C333    1.409   1_556 S
C908   C341    1.431   1_556 S
C909   H947    1.075   .     S
C910   H927    1.111   .     S
C910   O960    1.418   .     S
C910   C911    1.529   .     S
C910   H928    1.109   .     S
C911   H930    1.105   .     S
C911   H929    1.105   .     S
C912   H933    1.108   .     S
C912   H932    1.110   .     S
C912   H931    1.106   .     S
C912   C1103   1.530   .     S
C913   C914    1.523   .     S
C913   H935    1.103   .     S
C913   H934    1.098   .     S
C914   H938    1.111   .     S
C914   H937    1.110   .     S
C915   H939    1.104   .     S
C915   H940    1.107   .     S
C915   C1106   1.529   .     S
C915   H1133   1.109   .     S
C916   C920    1.411   .     A
C917   C921    1.423   .     A
C918   C919    1.391   .     A
C918   C341    1.424   1_556 S
C918   C328    1.398   1_556 S
C919   C920    1.383   .     A
C919   H944    1.084   .     S
C920   H948    1.079   .     S
C921   O960    1.394   .     S
C922   H925    1.082   .     S
Cu923  O958    1.939   .     S
Cu923  N950    2.029   .     S
Cu923  O956    1.956   .     S
Cu923  O951    1.959   .     S
Cu923  Cu924   2.700   .     S
Cu923  O954    1.955   .     S
Cu924  N949    2.029   .     S
Cu924  O957    1.959   .     S
Cu924  O953    1.956   .     S
Cu924  O955    1.939   .     S
Cu924  O959    1.955   .     S
H936   C1093   1.088   .     S
H943   N822    1.029   1_655 S
N949   H814    1.029   1_655 S
N949   N822    1.305   1_655 S
O952   C779    1.391   1_655 S
O952   C337    1.415   1_556 S
C961   O1017   1.291   .     A
C961   O1015   1.295   .     A
C961   C963    1.432   .     S
C962   C964    1.469   .     S
C962   C980    1.422   .     A
C962   C970    1.400   .     A
C963   C581    1.331   1_565 S
C963   H606    1.087   1_565 S
C964   O1019   1.296   .     A
C964   O1018   1.308   .     A
C965   C966    1.432   .     S
C966   O1020   1.291   .     A
C966   O1021   1.295   .     A
C967   O1022   1.294   .     A
C967   O1023   1.306   .     A
C967   C969    1.460   .     S
C968   C986    1.385   .     A
C968   H1073   1.084   .     S
C969   C985    1.420   .     A
C969   C986    1.396   .     A
C970   C971    1.387   .     A
C970   H1010   1.084   .     S
C971   C397    1.407   1_556 S
C971   O1144   1.391   1_455 S
C972   C980    1.414   .     A
C972   C397    1.409   1_556 S
C972   C405    1.431   1_556 S
C973   H1011   1.075   .     S
C974   H991    1.111   .     S
C974   O1024   1.418   .     S
C974   C975    1.529   .     S
C974   H992    1.109   .     S
C975   H994    1.105   .     S
C975   H993    1.105   .     S
C976   H997    1.108   .     S
C976   H996    1.110   .     S
C976   H995    1.106   .     S
C976   C591    1.530   1_565 S
C977   C978    1.523   .     S
C977   H999    1.103   .     S
C977   H998    1.098   .     S
C978   H1002   1.111   .     S
C978   H1001   1.110   .     S
C979   H1003   1.104   .     S
C979   H1004   1.107   .     S
C979   C594    1.529   1_565 S
C979   H621    1.109   1_565 S
C980   C984    1.411   .     A
C981   C985    1.423   .     A
C982   C983    1.391   .     A
C982   C405    1.424   1_556 S
C982   C392    1.398   1_556 S
C983   C984    1.383   .     A
C983   H1008   1.084   .     S
C984   H1012   1.079   .     S
C985   O1024   1.394   .     S
C986   H989    1.082   .     S
Cu987  O1022   1.939   .     S
Cu987  N1014   2.029   .     S
Cu987  O1020   1.956   .     S
Cu987  O1015   1.959   .     S
Cu987  Cu988   2.700   .     S
Cu987  O1018   1.955   .     S
Cu988  N1013   2.029   .     S
Cu988  O1021   1.959   .     S
Cu988  O1017   1.956   .     S
Cu988  O1019   1.939   .     S
Cu988  O1023   1.955   .     S
H1000  C581    1.088   1_565 S
H1006  N1141   1.029   1_455 S
H1007  N1078   1.029   .     S
H1009  C1096   1.084   1_455 S
N1013  H1070   1.029   .     S
N1013  N1078   1.305   .     S
N1014  N1141   1.305   1_455 S
N1014  H1135   1.029   1_455 S
O1016  C1035   1.391   .     S
O1016  C401    1.415   1_556 S
C1025  O1081   1.291   .     A
C1025  O1079   1.295   .     A
C1025  C1027   1.432   .     S
C1026  C1028   1.469   .     S
C1026  C1044   1.422   .     A
C1026  C1034   1.400   .     A
C1027  C645    1.331   1_565 S
C1027  H670    1.087   1_565 S
C1028  O1083   1.296   .     A
C1028  O1082   1.308   .     A
C1029  C1030   1.432   .     S
C1030  O1084   1.291   .     A
C1030  O1085   1.295   .     A
C1031  O1086   1.294   .     A
C1031  O1087   1.306   .     A
C1031  C1033   1.460   .     S
C1032  C1050   1.385   .     A
C1032  H1137   1.084   .     S
C1033  C1049   1.420   .     A
C1033  C1050   1.396   .     A
C1034  C1035   1.387   .     A
C1034  H1074   1.084   .     S
C1035  C461    1.407   1_556 S
C1036  C1044   1.414   .     A
C1036  C461    1.409   1_556 S
C1036  C469    1.431   1_556 S
C1037  H1075   1.075   .     S
C1038  H1055   1.111   .     S
C1038  O1088   1.418   .     S
C1038  C1039   1.529   .     S
C1038  H1056   1.109   .     S
C1039  H1058   1.105   .     S
C1039  H1057   1.105   .     S
C1040  H1061   1.108   .     S
C1040  H1060   1.110   .     S
C1040  H1059   1.106   .     S
C1040  C655    1.530   1_565 S
C1041  C1042   1.523   .     S
C1041  H1063   1.103   .     S
C1041  H1062   1.098   .     S
C1042  H1066   1.111   .     S
C1042  H1065   1.110   .     S
C1043  H1067   1.104   .     S
C1043  H1068   1.107   .     S
C1043  C658    1.529   1_565 S
C1043  H685    1.109   1_565 S
C1044  C1048   1.411   .     A
C1045  C1049   1.423   .     A
C1046  C1047   1.391   .     A
C1046  C469    1.424   1_556 S
C1046  C456    1.398   1_556 S
C1047  C1048   1.383   .     A
C1047  H1072   1.084   .     S
C1048  H1076   1.079   .     S
C1049  O1088   1.394   .     S
C1050  H1053   1.082   .     S
Cu1051 O1086   1.939   .     S
Cu1051 N1078   2.029   .     S
Cu1051 O1084   1.956   .     S
Cu1051 O1079   1.959   .     S
Cu1051 Cu1052  2.700   .     S
Cu1051 O1082   1.955   .     S
Cu1052 N1077   2.029   .     S
Cu1052 O1085   1.959   .     S
Cu1052 O1081   1.956   .     S
Cu1052 O1083   1.939   .     S
Cu1052 O1087   1.955   .     S
H1064  C645    1.088   1_565 S
H1071  N1142   1.029   .     S
N1077  H1134   1.029   .     S
N1077  N1142   1.305   .     S
O1080  C1099   1.391   .     S
O1080  C465    1.415   1_556 S
C1089  O1145   1.291   .     A
C1089  O1143   1.295   .     A
C1089  C1091   1.432   .     S
C1090  C1092   1.469   .     S
C1090  C1108   1.422   .     A
C1090  C1098   1.400   .     A
C1091  C709    1.331   1_565 S
C1091  H734    1.087   1_565 S
C1092  O1147   1.296   .     A
C1092  O1146   1.308   .     A
C1093  C1094   1.432   .     S
C1094  O1148   1.291   .     A
C1094  O1149   1.295   .     A
C1095  O1150   1.294   .     A
C1095  O1151   1.306   .     A
C1095  C1097   1.460   .     S
C1096  C1114   1.385   .     A
C1096  H1009   1.084   1_655 S
C1097  C1113   1.420   .     A
C1097  C1114   1.396   .     A
C1098  C1099   1.387   .     A
C1098  H1138   1.084   .     S
C1099  C525    1.407   1_556 S
C1100  C1108   1.414   .     A
C1100  C525    1.409   1_556 S
C1100  C533    1.431   1_556 S
C1101  H1139   1.075   .     S
C1102  H1119   1.111   .     S
C1102  O1152   1.418   .     S
C1102  C1103   1.529   .     S
C1102  H1120   1.109   .     S
C1103  H1122   1.105   .     S
C1103  H1121   1.105   .     S
C1104  H1125   1.108   .     S
C1104  H1124   1.110   .     S
C1104  H1123   1.106   .     S
C1104  C719    1.530   1_565 S
C1105  C1106   1.523   .     S
C1105  H1127   1.103   .     S
C1105  H1126   1.098   .     S
C1106  H1130   1.111   .     S
C1106  H1129   1.110   .     S
C1107  H1131   1.104   .     S
C1107  H1132   1.107   .     S
C1107  C722    1.529   1_565 S
C1107  H749    1.109   1_565 S
C1108  C1112   1.411   .     A
C1109  C1113   1.423   .     A
C1110  C1111   1.391   .     A
C1110  C533    1.424   1_556 S
C1110  C520    1.398   1_556 S
C1111  C1112   1.383   .     A
C1111  H1136   1.084   .     S
C1112  H1140   1.079   .     S
C1113  O1152   1.394   .     S
C1114  H1117   1.082   .     S
Cu1115 O1150   1.939   .     S
Cu1115 N1142   2.029   .     S
Cu1115 O1148   1.956   .     S
Cu1115 O1143   1.959   .     S
Cu1115 Cu1116  2.700   .     S
Cu1115 O1146   1.955   .     S
Cu1116 N1141   2.029   .     S
Cu1116 O1149   1.959   .     S
Cu1116 O1145   1.956   .     S
Cu1116 O1147   1.939   .     S
Cu1116 O1151   1.955   .     S
H1128  C709    1.088   1_565 S
H1135  N1014   1.029   1_655 S
N1141  H1006   1.029   1_655 S
N1141  N1014   1.305   1_655 S
O1144  C971    1.391   1_655 S
O1144  C529    1.415   1_556 S
