data_str_m2_o10_o17_pcu_sym.95
_audit_creation_date              2020-01-03
_audit_creation_method            'Materials Studio'
_symmetry_space_group_name_H-M    'P1'
_symmetry_Int_Tables_number       1
_symmetry_cell_setting            triclinic
loop_
_symmetry_equiv_pos_as_xyz
  x,y,z
_cell_length_a                    30.0802
_cell_length_b                    26.2092
_cell_length_c                    22.2913
_cell_angle_alpha                 102.1354
_cell_angle_beta                  94.6183
_cell_angle_gamma                 92.5813
loop_
_atom_site_label
_atom_site_type_symbol
_atom_site_fract_x
_atom_site_fract_y
_atom_site_fract_z
_atom_site_U_iso_or_equiv
_atom_site_adp_type
_atom_site_occupancy
C1     C     0.24712   0.06690   0.15186   0.00000  Uiso   1.00
C2     C     0.25288   0.26643   0.18148   0.00000  Uiso   1.00
C3     C     0.01541   0.12952   0.05640   0.00000  Uiso   1.00
C4     C     0.48459   0.20382   0.27693   0.00000  Uiso   1.00
C5     C     0.23898   0.01188   0.14622   0.00000  Uiso   1.00
C6     C     0.26102   0.32146   0.18711   0.00000  Uiso   1.00
C7     C     0.16434   0.16628   0.16717   0.00000  Uiso   1.00
C8     C     0.33566   0.16705   0.16616   0.00000  Uiso   1.00
C9     C     0.41114   0.18568   0.22101   0.00000  Uiso   1.00
C10    C     0.08886   0.14766   0.11232   0.00000  Uiso   1.00
C11    C     0.38405   0.16769   0.16563   0.00000  Uiso   1.00
C12    C     0.11595   0.16565   0.16771   0.00000  Uiso   1.00
C13    C     0.40326   0.14979   0.11047   0.00000  Uiso   1.00
C14    C     0.09674   0.18354   0.22286   0.00000  Uiso   1.00
C15    C     0.44955   0.14901   0.11054   0.00000  Uiso   1.00
C16    C     0.05045   0.18433   0.22279   0.00000  Uiso   1.00
C17    C     0.47673   0.16701   0.16641   0.00000  Uiso   1.00
C18    C     0.02327   0.16633   0.16693   0.00000  Uiso   1.00
C19    C     0.45740   0.18565   0.22176   0.00000  Uiso   1.00
C20    C     0.04260   0.14768   0.11157   0.00000  Uiso   1.00
C21    C     0.46909   0.13024   0.05587   0.00000  Uiso   1.00
C22    C     0.03091   0.20309   0.27746   0.00000  Uiso   1.00
Cu23   Cu    0.25500   0.17246   0.22813   0.00000  Uiso   1.00
Cu24   Cu    0.24499   0.16087   0.10521   0.00000  Uiso   1.00
H25    H     0.38224   0.13575   0.06777   0.00000  Uiso   1.00
H26    H     0.11776   0.19758   0.26557   0.00000  Uiso   1.00
H27    H     0.02998   0.11493   0.01367   0.00000  Uiso   1.00
H28    H     0.47002   0.21840   0.31966   0.00000  Uiso   1.00
H29    H     0.21531   0.12590   0.31610   0.00000  Uiso   1.00
H30    H     0.28469   0.20744   0.01724   0.00000  Uiso   1.00
N31    N     0.23744   0.15214   0.01284   0.00000  Uiso   1.00
N32    N     0.26255   0.18119   0.32049   0.00000  Uiso   1.00
O33    O     0.25325   0.09538   0.20659   0.00000  Uiso   1.00
O34    O     0.24674   0.23796   0.12674   0.00000  Uiso   1.00
O35    O     0.24480   0.08559   0.10279   0.00000  Uiso   1.00
O36    O     0.25520   0.24774   0.23055   0.00000  Uiso   1.00
O37    O     0.18935   0.17155   0.21857   0.00000  Uiso   1.00
O38    O     0.31064   0.16179   0.11476   0.00000  Uiso   1.00
O39    O     0.18090   0.16176   0.11477   0.00000  Uiso   1.00
O40    O     0.31910   0.17157   0.21857   0.00000  Uiso   1.00
H41    H     0.39626   0.19989   0.26364   0.00000  Uiso   1.00
H42    H     0.10374   0.13345   0.06970   0.00000  Uiso   1.00
H43    H     0.44859   0.11624   0.01275   0.00000  Uiso   1.00
H44    H     0.05141   0.21709   0.32058   0.00000  Uiso   1.00
C45    C     0.20190   0.31832   0.09789   0.00000  Uiso   1.00
H46    H     0.18219   0.01379   0.07890   0.00000  Uiso   1.00
H47    H     0.21626   0.29303   0.05868   0.00000  Uiso   1.00
H48    H     0.17803   0.29490   0.11847   0.00000  Uiso   1.00
C49    C     0.29810   0.01501   0.23544   0.00000  Uiso   1.00
H50    H     0.31781   0.31955   0.25443   0.00000  Uiso   1.00
H51    H     0.32197   0.03843   0.21486   0.00000  Uiso   1.00
H52    H     0.28374   0.04030   0.27465   0.00000  Uiso   1.00
C53    C     0.74712   0.06690   0.15186   0.00000  Uiso   1.00
C54    C     0.75288   0.26643   0.18148   0.00000  Uiso   1.00
C55    C     0.51541   0.12952   0.05640   0.00000  Uiso   1.00
C56    C     0.98459   0.20382   0.27693   0.00000  Uiso   1.00
C57    C     0.73898   0.01188   0.14622   0.00000  Uiso   1.00
C58    C     0.76102   0.32146   0.18711   0.00000  Uiso   1.00
C59    C     0.66434   0.16628   0.16717   0.00000  Uiso   1.00
C60    C     0.83566   0.16705   0.16616   0.00000  Uiso   1.00
C61    C     0.91114   0.18568   0.22101   0.00000  Uiso   1.00
C62    C     0.58886   0.14766   0.11232   0.00000  Uiso   1.00
C63    C     0.88405   0.16769   0.16563   0.00000  Uiso   1.00
C64    C     0.61595   0.16565   0.16771   0.00000  Uiso   1.00
C65    C     0.90326   0.14979   0.11047   0.00000  Uiso   1.00
C66    C     0.59674   0.18354   0.22286   0.00000  Uiso   1.00
C67    C     0.94955   0.14901   0.11054   0.00000  Uiso   1.00
C68    C     0.55045   0.18433   0.22279   0.00000  Uiso   1.00
C69    C     0.97673   0.16701   0.16641   0.00000  Uiso   1.00
C70    C     0.52327   0.16633   0.16693   0.00000  Uiso   1.00
C71    C     0.95740   0.18565   0.22176   0.00000  Uiso   1.00
C72    C     0.54260   0.14768   0.11157   0.00000  Uiso   1.00
C73    C     0.96909   0.13024   0.05587   0.00000  Uiso   1.00
C74    C     0.53091   0.20309   0.27746   0.00000  Uiso   1.00
Cu75   Cu    0.75500   0.17246   0.22813   0.00000  Uiso   1.00
Cu76   Cu    0.74499   0.16087   0.10521   0.00000  Uiso   1.00
H77    H     0.88224   0.13575   0.06777   0.00000  Uiso   1.00
H78    H     0.61776   0.19758   0.26557   0.00000  Uiso   1.00
H79    H     0.52998   0.11493   0.01367   0.00000  Uiso   1.00
H80    H     0.97002   0.21840   0.31966   0.00000  Uiso   1.00
H81    H     0.71531   0.12590   0.31610   0.00000  Uiso   1.00
H82    H     0.78469   0.20744   0.01724   0.00000  Uiso   1.00
N83    N     0.73744   0.15214   0.01284   0.00000  Uiso   1.00
N84    N     0.76255   0.18119   0.32049   0.00000  Uiso   1.00
O85    O     0.75325   0.09538   0.20659   0.00000  Uiso   1.00
O86    O     0.74674   0.23796   0.12674   0.00000  Uiso   1.00
O87    O     0.74480   0.08559   0.10279   0.00000  Uiso   1.00
O88    O     0.75520   0.24774   0.23055   0.00000  Uiso   1.00
O89    O     0.68935   0.17155   0.21857   0.00000  Uiso   1.00
O90    O     0.81064   0.16179   0.11476   0.00000  Uiso   1.00
O91    O     0.68090   0.16176   0.11477   0.00000  Uiso   1.00
O92    O     0.81910   0.17157   0.21857   0.00000  Uiso   1.00
H93    H     0.89626   0.19989   0.26364   0.00000  Uiso   1.00
H94    H     0.60374   0.13345   0.06970   0.00000  Uiso   1.00
H95    H     0.94859   0.11624   0.01275   0.00000  Uiso   1.00
H96    H     0.55141   0.21709   0.32058   0.00000  Uiso   1.00
C97    C     0.70190   0.31832   0.09789   0.00000  Uiso   1.00
H98    H     0.68219   0.01379   0.07890   0.00000  Uiso   1.00
H99    H     0.71626   0.29303   0.05868   0.00000  Uiso   1.00
H100   H     0.67803   0.29490   0.11847   0.00000  Uiso   1.00
C101   C     0.79810   0.01501   0.23544   0.00000  Uiso   1.00
H102   H     0.81781   0.31955   0.25443   0.00000  Uiso   1.00
H103   H     0.82197   0.03843   0.21486   0.00000  Uiso   1.00
H104   H     0.78374   0.04030   0.27465   0.00000  Uiso   1.00
C105   C     0.24712   0.40023   0.15186   0.00000  Uiso   1.00
C106   C     0.25288   0.59977   0.18148   0.00000  Uiso   1.00
C107   C     0.01541   0.46285   0.05640   0.00000  Uiso   1.00
C108   C     0.48459   0.53715   0.27693   0.00000  Uiso   1.00
C109   C     0.23898   0.34521   0.14622   0.00000  Uiso   1.00
C110   C     0.26102   0.65479   0.18711   0.00000  Uiso   1.00
C111   C     0.16434   0.49962   0.16717   0.00000  Uiso   1.00
C112   C     0.33566   0.50038   0.16616   0.00000  Uiso   1.00
C113   C     0.41114   0.51901   0.22101   0.00000  Uiso   1.00
C114   C     0.08886   0.48099   0.11232   0.00000  Uiso   1.00
C115   C     0.38405   0.50102   0.16563   0.00000  Uiso   1.00
C116   C     0.11595   0.49898   0.16771   0.00000  Uiso   1.00
C117   C     0.40326   0.48313   0.11047   0.00000  Uiso   1.00
C118   C     0.09674   0.51687   0.22286   0.00000  Uiso   1.00
C119   C     0.44955   0.48234   0.11054   0.00000  Uiso   1.00
C120   C     0.05045   0.51766   0.22279   0.00000  Uiso   1.00
C121   C     0.47673   0.50034   0.16641   0.00000  Uiso   1.00
C122   C     0.02327   0.49966   0.16693   0.00000  Uiso   1.00
C123   C     0.45740   0.51899   0.22176   0.00000  Uiso   1.00
C124   C     0.04260   0.48102   0.11157   0.00000  Uiso   1.00
C125   C     0.46909   0.46357   0.05587   0.00000  Uiso   1.00
C126   C     0.03091   0.53643   0.27746   0.00000  Uiso   1.00
Cu127  Cu    0.25500   0.50579   0.22813   0.00000  Uiso   1.00
Cu128  Cu    0.24499   0.49421   0.10521   0.00000  Uiso   1.00
H129   H     0.38224   0.46908   0.06777   0.00000  Uiso   1.00
H130   H     0.11776   0.53091   0.26557   0.00000  Uiso   1.00
H131   H     0.02998   0.44827   0.01367   0.00000  Uiso   1.00
H132   H     0.47002   0.55174   0.31966   0.00000  Uiso   1.00
H133   H     0.21531   0.45923   0.31610   0.00000  Uiso   1.00
H134   H     0.28469   0.54077   0.01724   0.00000  Uiso   1.00
N135   N     0.23744   0.48547   0.01284   0.00000  Uiso   1.00
N136   N     0.26255   0.51453   0.32049   0.00000  Uiso   1.00
O137   O     0.25325   0.42871   0.20659   0.00000  Uiso   1.00
O138   O     0.24674   0.57129   0.12674   0.00000  Uiso   1.00
O139   O     0.24480   0.41892   0.10279   0.00000  Uiso   1.00
O140   O     0.25520   0.58108   0.23055   0.00000  Uiso   1.00
O141   O     0.18935   0.50488   0.21857   0.00000  Uiso   1.00
O142   O     0.31064   0.49512   0.11476   0.00000  Uiso   1.00
O143   O     0.18090   0.49510   0.11477   0.00000  Uiso   1.00
O144   O     0.31910   0.50490   0.21857   0.00000  Uiso   1.00
H145   H     0.39626   0.53323   0.26364   0.00000  Uiso   1.00
H146   H     0.10374   0.46678   0.06970   0.00000  Uiso   1.00
H147   H     0.44859   0.44957   0.01275   0.00000  Uiso   1.00
H148   H     0.05141   0.55043   0.32058   0.00000  Uiso   1.00
C149   C     0.20190   0.65165   0.09789   0.00000  Uiso   1.00
H150   H     0.18219   0.34712   0.07890   0.00000  Uiso   1.00
H151   H     0.21626   0.62637   0.05868   0.00000  Uiso   1.00
H152   H     0.17803   0.62824   0.11847   0.00000  Uiso   1.00
C153   C     0.29810   0.34835   0.23544   0.00000  Uiso   1.00
H154   H     0.31781   0.65288   0.25443   0.00000  Uiso   1.00
H155   H     0.32197   0.37176   0.21486   0.00000  Uiso   1.00
H156   H     0.28374   0.37363   0.27465   0.00000  Uiso   1.00
C157   C     0.74712   0.40023   0.15186   0.00000  Uiso   1.00
C158   C     0.75288   0.59977   0.18148   0.00000  Uiso   1.00
C159   C     0.51541   0.46285   0.05640   0.00000  Uiso   1.00
C160   C     0.98459   0.53715   0.27693   0.00000  Uiso   1.00
C161   C     0.73898   0.34521   0.14622   0.00000  Uiso   1.00
C162   C     0.76102   0.65479   0.18711   0.00000  Uiso   1.00
C163   C     0.66434   0.49962   0.16717   0.00000  Uiso   1.00
C164   C     0.83566   0.50038   0.16616   0.00000  Uiso   1.00
C165   C     0.91114   0.51901   0.22101   0.00000  Uiso   1.00
C166   C     0.58886   0.48099   0.11232   0.00000  Uiso   1.00
C167   C     0.88405   0.50102   0.16563   0.00000  Uiso   1.00
C168   C     0.61595   0.49898   0.16771   0.00000  Uiso   1.00
C169   C     0.90326   0.48313   0.11047   0.00000  Uiso   1.00
C170   C     0.59674   0.51687   0.22286   0.00000  Uiso   1.00
C171   C     0.94955   0.48234   0.11054   0.00000  Uiso   1.00
C172   C     0.55045   0.51766   0.22279   0.00000  Uiso   1.00
C173   C     0.97673   0.50034   0.16641   0.00000  Uiso   1.00
C174   C     0.52327   0.49966   0.16693   0.00000  Uiso   1.00
C175   C     0.95740   0.51899   0.22176   0.00000  Uiso   1.00
C176   C     0.54260   0.48102   0.11157   0.00000  Uiso   1.00
C177   C     0.96909   0.46357   0.05587   0.00000  Uiso   1.00
C178   C     0.53091   0.53643   0.27746   0.00000  Uiso   1.00
Cu179  Cu    0.75500   0.50579   0.22813   0.00000  Uiso   1.00
Cu180  Cu    0.74499   0.49421   0.10521   0.00000  Uiso   1.00
H181   H     0.88224   0.46908   0.06777   0.00000  Uiso   1.00
H182   H     0.61776   0.53091   0.26557   0.00000  Uiso   1.00
H183   H     0.52998   0.44827   0.01367   0.00000  Uiso   1.00
H184   H     0.97002   0.55174   0.31966   0.00000  Uiso   1.00
H185   H     0.71531   0.45923   0.31610   0.00000  Uiso   1.00
H186   H     0.78469   0.54077   0.01724   0.00000  Uiso   1.00
N187   N     0.73744   0.48547   0.01284   0.00000  Uiso   1.00
N188   N     0.76255   0.51453   0.32049   0.00000  Uiso   1.00
O189   O     0.75325   0.42871   0.20659   0.00000  Uiso   1.00
O190   O     0.74674   0.57129   0.12674   0.00000  Uiso   1.00
O191   O     0.74480   0.41892   0.10279   0.00000  Uiso   1.00
O192   O     0.75520   0.58108   0.23055   0.00000  Uiso   1.00
O193   O     0.68935   0.50488   0.21857   0.00000  Uiso   1.00
O194   O     0.81064   0.49512   0.11476   0.00000  Uiso   1.00
O195   O     0.68090   0.49510   0.11477   0.00000  Uiso   1.00
O196   O     0.81910   0.50490   0.21857   0.00000  Uiso   1.00
H197   H     0.89626   0.53323   0.26364   0.00000  Uiso   1.00
H198   H     0.60374   0.46678   0.06970   0.00000  Uiso   1.00
H199   H     0.94859   0.44957   0.01275   0.00000  Uiso   1.00
H200   H     0.55141   0.55043   0.32058   0.00000  Uiso   1.00
C201   C     0.70190   0.65165   0.09789   0.00000  Uiso   1.00
H202   H     0.68219   0.34712   0.07890   0.00000  Uiso   1.00
H203   H     0.71626   0.62637   0.05868   0.00000  Uiso   1.00
H204   H     0.67803   0.62824   0.11847   0.00000  Uiso   1.00
C205   C     0.79810   0.34835   0.23544   0.00000  Uiso   1.00
H206   H     0.81781   0.65288   0.25443   0.00000  Uiso   1.00
H207   H     0.82197   0.37176   0.21486   0.00000  Uiso   1.00
H208   H     0.78374   0.37363   0.27465   0.00000  Uiso   1.00
C209   C     0.24712   0.73357   0.15186   0.00000  Uiso   1.00
C210   C     0.25288   0.93310   0.18148   0.00000  Uiso   1.00
C211   C     0.01541   0.79618   0.05640   0.00000  Uiso   1.00
C212   C     0.48459   0.87048   0.27693   0.00000  Uiso   1.00
C213   C     0.23898   0.67854   0.14622   0.00000  Uiso   1.00
C214   C     0.26102   0.98812   0.18711   0.00000  Uiso   1.00
C215   C     0.16434   0.83295   0.16717   0.00000  Uiso   1.00
C216   C     0.33566   0.83372   0.16616   0.00000  Uiso   1.00
C217   C     0.41114   0.85234   0.22101   0.00000  Uiso   1.00
C218   C     0.08886   0.81433   0.11232   0.00000  Uiso   1.00
C219   C     0.38405   0.83435   0.16563   0.00000  Uiso   1.00
C220   C     0.11595   0.83231   0.16771   0.00000  Uiso   1.00
C221   C     0.40326   0.81646   0.11047   0.00000  Uiso   1.00
C222   C     0.09674   0.85020   0.22286   0.00000  Uiso   1.00
C223   C     0.44955   0.81567   0.11054   0.00000  Uiso   1.00
C224   C     0.05045   0.85099   0.22279   0.00000  Uiso   1.00
C225   C     0.47673   0.83367   0.16641   0.00000  Uiso   1.00
C226   C     0.02327   0.83299   0.16693   0.00000  Uiso   1.00
C227   C     0.45740   0.85232   0.22176   0.00000  Uiso   1.00
C228   C     0.04260   0.81435   0.11157   0.00000  Uiso   1.00
C229   C     0.46909   0.79690   0.05587   0.00000  Uiso   1.00
C230   C     0.03091   0.86976   0.27746   0.00000  Uiso   1.00
Cu231  Cu    0.25500   0.83913   0.22813   0.00000  Uiso   1.00
Cu232  Cu    0.24499   0.82754   0.10521   0.00000  Uiso   1.00
H233   H     0.38224   0.80241   0.06777   0.00000  Uiso   1.00
H234   H     0.11776   0.86425   0.26557   0.00000  Uiso   1.00
H235   H     0.02998   0.78160   0.01367   0.00000  Uiso   1.00
H236   H     0.47002   0.88507   0.31966   0.00000  Uiso   1.00
H237   H     0.21531   0.79256   0.31610   0.00000  Uiso   1.00
H238   H     0.28469   0.87410   0.01724   0.00000  Uiso   1.00
N239   N     0.23744   0.81881   0.01284   0.00000  Uiso   1.00
N240   N     0.26255   0.84786   0.32049   0.00000  Uiso   1.00
O241   O     0.25325   0.76204   0.20659   0.00000  Uiso   1.00
O242   O     0.24674   0.90462   0.12674   0.00000  Uiso   1.00
O243   O     0.24480   0.75226   0.10279   0.00000  Uiso   1.00
O244   O     0.25520   0.91441   0.23055   0.00000  Uiso   1.00
O245   O     0.18935   0.83821   0.21857   0.00000  Uiso   1.00
O246   O     0.31064   0.82845   0.11476   0.00000  Uiso   1.00
O247   O     0.18090   0.82843   0.11477   0.00000  Uiso   1.00
O248   O     0.31910   0.83824   0.21857   0.00000  Uiso   1.00
H249   H     0.39626   0.86656   0.26364   0.00000  Uiso   1.00
H250   H     0.10374   0.80011   0.06970   0.00000  Uiso   1.00
H251   H     0.44859   0.78291   0.01275   0.00000  Uiso   1.00
H252   H     0.05141   0.88376   0.32058   0.00000  Uiso   1.00
C253   C     0.20190   0.98499   0.09789   0.00000  Uiso   1.00
H254   H     0.18219   0.68045   0.07890   0.00000  Uiso   1.00
H255   H     0.21626   0.95970   0.05868   0.00000  Uiso   1.00
H256   H     0.17803   0.96157   0.11847   0.00000  Uiso   1.00
C257   C     0.29810   0.68168   0.23544   0.00000  Uiso   1.00
H258   H     0.31781   0.98621   0.25443   0.00000  Uiso   1.00
H259   H     0.32197   0.70510   0.21486   0.00000  Uiso   1.00
H260   H     0.28374   0.70697   0.27465   0.00000  Uiso   1.00
C261   C     0.74712   0.73357   0.15186   0.00000  Uiso   1.00
C262   C     0.75288   0.93310   0.18148   0.00000  Uiso   1.00
C263   C     0.51541   0.79618   0.05640   0.00000  Uiso   1.00
C264   C     0.98459   0.87048   0.27693   0.00000  Uiso   1.00
C265   C     0.73898   0.67854   0.14622   0.00000  Uiso   1.00
C266   C     0.76102   0.98812   0.18711   0.00000  Uiso   1.00
C267   C     0.66434   0.83295   0.16717   0.00000  Uiso   1.00
C268   C     0.83566   0.83372   0.16616   0.00000  Uiso   1.00
C269   C     0.91114   0.85234   0.22101   0.00000  Uiso   1.00
C270   C     0.58886   0.81433   0.11232   0.00000  Uiso   1.00
C271   C     0.88405   0.83435   0.16563   0.00000  Uiso   1.00
C272   C     0.61595   0.83231   0.16771   0.00000  Uiso   1.00
C273   C     0.90326   0.81646   0.11047   0.00000  Uiso   1.00
C274   C     0.59674   0.85020   0.22286   0.00000  Uiso   1.00
C275   C     0.94955   0.81567   0.11054   0.00000  Uiso   1.00
C276   C     0.55045   0.85099   0.22279   0.00000  Uiso   1.00
C277   C     0.97673   0.83367   0.16641   0.00000  Uiso   1.00
C278   C     0.52327   0.83299   0.16693   0.00000  Uiso   1.00
C279   C     0.95740   0.85232   0.22176   0.00000  Uiso   1.00
C280   C     0.54260   0.81435   0.11157   0.00000  Uiso   1.00
C281   C     0.96909   0.79690   0.05587   0.00000  Uiso   1.00
C282   C     0.53091   0.86976   0.27746   0.00000  Uiso   1.00
Cu283  Cu    0.75500   0.83913   0.22813   0.00000  Uiso   1.00
Cu284  Cu    0.74499   0.82754   0.10521   0.00000  Uiso   1.00
H285   H     0.88224   0.80241   0.06777   0.00000  Uiso   1.00
H286   H     0.61776   0.86425   0.26557   0.00000  Uiso   1.00
H287   H     0.52998   0.78160   0.01367   0.00000  Uiso   1.00
H288   H     0.97002   0.88507   0.31966   0.00000  Uiso   1.00
H289   H     0.71531   0.79256   0.31610   0.00000  Uiso   1.00
H290   H     0.78469   0.87410   0.01724   0.00000  Uiso   1.00
N291   N     0.73744   0.81881   0.01284   0.00000  Uiso   1.00
N292   N     0.76255   0.84786   0.32049   0.00000  Uiso   1.00
O293   O     0.75325   0.76204   0.20659   0.00000  Uiso   1.00
O294   O     0.74674   0.90462   0.12674   0.00000  Uiso   1.00
O295   O     0.74480   0.75226   0.10279   0.00000  Uiso   1.00
O296   O     0.75520   0.91441   0.23055   0.00000  Uiso   1.00
O297   O     0.68935   0.83821   0.21857   0.00000  Uiso   1.00
O298   O     0.81064   0.82845   0.11476   0.00000  Uiso   1.00
O299   O     0.68090   0.82843   0.11477   0.00000  Uiso   1.00
O300   O     0.81910   0.83824   0.21857   0.00000  Uiso   1.00
H301   H     0.89626   0.86656   0.26364   0.00000  Uiso   1.00
H302   H     0.60374   0.80011   0.06970   0.00000  Uiso   1.00
H303   H     0.94859   0.78291   0.01275   0.00000  Uiso   1.00
H304   H     0.55141   0.88376   0.32058   0.00000  Uiso   1.00
C305   C     0.70190   0.98499   0.09789   0.00000  Uiso   1.00
H306   H     0.68219   0.68045   0.07890   0.00000  Uiso   1.00
H307   H     0.71626   0.95970   0.05868   0.00000  Uiso   1.00
H308   H     0.67803   0.96157   0.11847   0.00000  Uiso   1.00
C309   C     0.79810   0.68168   0.23544   0.00000  Uiso   1.00
H310   H     0.81781   0.98621   0.25443   0.00000  Uiso   1.00
H311   H     0.82197   0.70510   0.21486   0.00000  Uiso   1.00
H312   H     0.78374   0.70697   0.27465   0.00000  Uiso   1.00
C313   C     0.24712   0.06690   0.48519   0.00000  Uiso   1.00
C314   C     0.25288   0.26643   0.51481   0.00000  Uiso   1.00
C315   C     0.01541   0.12952   0.38973   0.00000  Uiso   1.00
C316   C     0.48459   0.20382   0.61027   0.00000  Uiso   1.00
C317   C     0.23898   0.01188   0.47955   0.00000  Uiso   1.00
C318   C     0.26102   0.32146   0.52045   0.00000  Uiso   1.00
C319   C     0.16434   0.16628   0.50051   0.00000  Uiso   1.00
C320   C     0.33566   0.16705   0.49949   0.00000  Uiso   1.00
C321   C     0.41114   0.18568   0.55435   0.00000  Uiso   1.00
C322   C     0.08886   0.14766   0.44565   0.00000  Uiso   1.00
C323   C     0.38405   0.16769   0.49896   0.00000  Uiso   1.00
C324   C     0.11595   0.16565   0.50104   0.00000  Uiso   1.00
C325   C     0.40326   0.14979   0.44381   0.00000  Uiso   1.00
C326   C     0.09674   0.18354   0.55619   0.00000  Uiso   1.00
C327   C     0.44955   0.14901   0.44388   0.00000  Uiso   1.00
C328   C     0.05045   0.18433   0.55612   0.00000  Uiso   1.00
C329   C     0.47673   0.16701   0.49974   0.00000  Uiso   1.00
C330   C     0.02327   0.16633   0.50026   0.00000  Uiso   1.00
C331   C     0.45740   0.18565   0.55510   0.00000  Uiso   1.00
C332   C     0.04260   0.14768   0.44490   0.00000  Uiso   1.00
C333   C     0.46909   0.13024   0.38920   0.00000  Uiso   1.00
C334   C     0.03091   0.20309   0.61080   0.00000  Uiso   1.00
Cu335  Cu    0.25500   0.17246   0.56146   0.00000  Uiso   1.00
Cu336  Cu    0.24499   0.16087   0.43854   0.00000  Uiso   1.00
H337   H     0.38224   0.13575   0.40110   0.00000  Uiso   1.00
H338   H     0.11776   0.19758   0.59890   0.00000  Uiso   1.00
H339   H     0.02998   0.11493   0.34701   0.00000  Uiso   1.00
H340   H     0.47002   0.21840   0.65299   0.00000  Uiso   1.00
H341   H     0.21531   0.12590   0.64943   0.00000  Uiso   1.00
H342   H     0.28469   0.20744   0.35057   0.00000  Uiso   1.00
N343   N     0.23744   0.15214   0.34617   0.00000  Uiso   1.00
N344   N     0.26255   0.18119   0.65383   0.00000  Uiso   1.00
O345   O     0.25325   0.09538   0.53992   0.00000  Uiso   1.00
O346   O     0.24674   0.23796   0.46008   0.00000  Uiso   1.00
O347   O     0.24480   0.08559   0.43612   0.00000  Uiso   1.00
O348   O     0.25520   0.24774   0.56388   0.00000  Uiso   1.00
O349   O     0.18935   0.17155   0.55191   0.00000  Uiso   1.00
O350   O     0.31064   0.16179   0.44809   0.00000  Uiso   1.00
O351   O     0.18090   0.16176   0.44810   0.00000  Uiso   1.00
O352   O     0.31910   0.17157   0.55190   0.00000  Uiso   1.00
H353   H     0.39626   0.19989   0.59697   0.00000  Uiso   1.00
H354   H     0.10374   0.13345   0.40303   0.00000  Uiso   1.00
H355   H     0.44859   0.11624   0.34608   0.00000  Uiso   1.00
H356   H     0.05141   0.21709   0.65391   0.00000  Uiso   1.00
C357   C     0.20190   0.31832   0.43123   0.00000  Uiso   1.00
H358   H     0.18219   0.01379   0.41223   0.00000  Uiso   1.00
H359   H     0.21626   0.29303   0.39202   0.00000  Uiso   1.00
H360   H     0.17803   0.29490   0.45180   0.00000  Uiso   1.00
C361   C     0.29810   0.01501   0.56877   0.00000  Uiso   1.00
H362   H     0.31781   0.31955   0.58777   0.00000  Uiso   1.00
H363   H     0.32197   0.03843   0.54820   0.00000  Uiso   1.00
H364   H     0.28374   0.04030   0.60798   0.00000  Uiso   1.00
C365   C     0.74712   0.06690   0.48519   0.00000  Uiso   1.00
C366   C     0.75288   0.26643   0.51481   0.00000  Uiso   1.00
C367   C     0.51541   0.12952   0.38973   0.00000  Uiso   1.00
C368   C     0.98459   0.20382   0.61027   0.00000  Uiso   1.00
C369   C     0.73898   0.01188   0.47955   0.00000  Uiso   1.00
C370   C     0.76102   0.32146   0.52045   0.00000  Uiso   1.00
C371   C     0.66434   0.16628   0.50051   0.00000  Uiso   1.00
C372   C     0.83566   0.16705   0.49949   0.00000  Uiso   1.00
C373   C     0.91114   0.18568   0.55435   0.00000  Uiso   1.00
C374   C     0.58886   0.14766   0.44565   0.00000  Uiso   1.00
C375   C     0.88405   0.16769   0.49896   0.00000  Uiso   1.00
C376   C     0.61595   0.16565   0.50104   0.00000  Uiso   1.00
C377   C     0.90326   0.14979   0.44381   0.00000  Uiso   1.00
C378   C     0.59674   0.18354   0.55619   0.00000  Uiso   1.00
C379   C     0.94955   0.14901   0.44388   0.00000  Uiso   1.00
C380   C     0.55045   0.18433   0.55612   0.00000  Uiso   1.00
C381   C     0.97673   0.16701   0.49974   0.00000  Uiso   1.00
C382   C     0.52327   0.16633   0.50026   0.00000  Uiso   1.00
C383   C     0.95740   0.18565   0.55510   0.00000  Uiso   1.00
C384   C     0.54260   0.14768   0.44490   0.00000  Uiso   1.00
C385   C     0.96909   0.13024   0.38920   0.00000  Uiso   1.00
C386   C     0.53091   0.20309   0.61080   0.00000  Uiso   1.00
Cu387  Cu    0.75500   0.17246   0.56146   0.00000  Uiso   1.00
Cu388  Cu    0.74499   0.16087   0.43854   0.00000  Uiso   1.00
H389   H     0.88224   0.13575   0.40110   0.00000  Uiso   1.00
H390   H     0.61776   0.19758   0.59890   0.00000  Uiso   1.00
H391   H     0.52998   0.11493   0.34701   0.00000  Uiso   1.00
H392   H     0.97002   0.21840   0.65299   0.00000  Uiso   1.00
H393   H     0.71531   0.12590   0.64943   0.00000  Uiso   1.00
H394   H     0.78469   0.20744   0.35057   0.00000  Uiso   1.00
N395   N     0.73744   0.15214   0.34617   0.00000  Uiso   1.00
N396   N     0.76255   0.18119   0.65383   0.00000  Uiso   1.00
O397   O     0.75325   0.09538   0.53992   0.00000  Uiso   1.00
O398   O     0.74674   0.23796   0.46008   0.00000  Uiso   1.00
O399   O     0.74480   0.08559   0.43612   0.00000  Uiso   1.00
O400   O     0.75520   0.24774   0.56388   0.00000  Uiso   1.00
O401   O     0.68935   0.17155   0.55191   0.00000  Uiso   1.00
O402   O     0.81064   0.16179   0.44809   0.00000  Uiso   1.00
O403   O     0.68090   0.16176   0.44810   0.00000  Uiso   1.00
O404   O     0.81910   0.17157   0.55190   0.00000  Uiso   1.00
H405   H     0.89626   0.19989   0.59697   0.00000  Uiso   1.00
H406   H     0.60374   0.13345   0.40303   0.00000  Uiso   1.00
H407   H     0.94859   0.11624   0.34608   0.00000  Uiso   1.00
H408   H     0.55141   0.21709   0.65391   0.00000  Uiso   1.00
C409   C     0.70190   0.31832   0.43123   0.00000  Uiso   1.00
H410   H     0.68219   0.01379   0.41223   0.00000  Uiso   1.00
H411   H     0.71626   0.29303   0.39202   0.00000  Uiso   1.00
H412   H     0.67803   0.29490   0.45180   0.00000  Uiso   1.00
C413   C     0.79810   0.01501   0.56877   0.00000  Uiso   1.00
H414   H     0.81781   0.31955   0.58777   0.00000  Uiso   1.00
H415   H     0.82197   0.03843   0.54820   0.00000  Uiso   1.00
H416   H     0.78374   0.04030   0.60798   0.00000  Uiso   1.00
C417   C     0.24712   0.40023   0.48519   0.00000  Uiso   1.00
C418   C     0.25288   0.59977   0.51481   0.00000  Uiso   1.00
C419   C     0.01541   0.46285   0.38973   0.00000  Uiso   1.00
C420   C     0.48459   0.53715   0.61027   0.00000  Uiso   1.00
C421   C     0.23898   0.34521   0.47955   0.00000  Uiso   1.00
C422   C     0.26102   0.65479   0.52045   0.00000  Uiso   1.00
C423   C     0.16434   0.49962   0.50051   0.00000  Uiso   1.00
C424   C     0.33566   0.50038   0.49949   0.00000  Uiso   1.00
C425   C     0.41114   0.51901   0.55435   0.00000  Uiso   1.00
C426   C     0.08886   0.48099   0.44565   0.00000  Uiso   1.00
C427   C     0.38405   0.50102   0.49896   0.00000  Uiso   1.00
C428   C     0.11595   0.49898   0.50104   0.00000  Uiso   1.00
C429   C     0.40326   0.48313   0.44381   0.00000  Uiso   1.00
C430   C     0.09674   0.51687   0.55619   0.00000  Uiso   1.00
C431   C     0.44955   0.48234   0.44388   0.00000  Uiso   1.00
C432   C     0.05045   0.51766   0.55612   0.00000  Uiso   1.00
C433   C     0.47673   0.50034   0.49974   0.00000  Uiso   1.00
C434   C     0.02327   0.49966   0.50026   0.00000  Uiso   1.00
C435   C     0.45740   0.51899   0.55510   0.00000  Uiso   1.00
C436   C     0.04260   0.48102   0.44490   0.00000  Uiso   1.00
C437   C     0.46909   0.46357   0.38920   0.00000  Uiso   1.00
C438   C     0.03091   0.53643   0.61080   0.00000  Uiso   1.00
Cu439  Cu    0.25500   0.50579   0.56146   0.00000  Uiso   1.00
Cu440  Cu    0.24499   0.49421   0.43854   0.00000  Uiso   1.00
H441   H     0.38224   0.46908   0.40110   0.00000  Uiso   1.00
H442   H     0.11776   0.53091   0.59890   0.00000  Uiso   1.00
H443   H     0.02998   0.44827   0.34701   0.00000  Uiso   1.00
H444   H     0.47002   0.55174   0.65299   0.00000  Uiso   1.00
H445   H     0.21531   0.45923   0.64943   0.00000  Uiso   1.00
H446   H     0.28469   0.54077   0.35057   0.00000  Uiso   1.00
N447   N     0.23744   0.48547   0.34617   0.00000  Uiso   1.00
N448   N     0.26255   0.51453   0.65383   0.00000  Uiso   1.00
O449   O     0.25325   0.42871   0.53992   0.00000  Uiso   1.00
O450   O     0.24674   0.57129   0.46008   0.00000  Uiso   1.00
O451   O     0.24480   0.41892   0.43612   0.00000  Uiso   1.00
O452   O     0.25520   0.58108   0.56388   0.00000  Uiso   1.00
O453   O     0.18935   0.50488   0.55191   0.00000  Uiso   1.00
O454   O     0.31064   0.49512   0.44809   0.00000  Uiso   1.00
O455   O     0.18090   0.49510   0.44810   0.00000  Uiso   1.00
O456   O     0.31910   0.50490   0.55190   0.00000  Uiso   1.00
H457   H     0.39626   0.53323   0.59697   0.00000  Uiso   1.00
H458   H     0.10374   0.46678   0.40303   0.00000  Uiso   1.00
H459   H     0.44859   0.44957   0.34608   0.00000  Uiso   1.00
H460   H     0.05141   0.55043   0.65391   0.00000  Uiso   1.00
C461   C     0.20190   0.65165   0.43123   0.00000  Uiso   1.00
H462   H     0.18219   0.34712   0.41223   0.00000  Uiso   1.00
H463   H     0.21626   0.62637   0.39202   0.00000  Uiso   1.00
H464   H     0.17803   0.62824   0.45180   0.00000  Uiso   1.00
C465   C     0.29810   0.34835   0.56877   0.00000  Uiso   1.00
H466   H     0.31781   0.65288   0.58777   0.00000  Uiso   1.00
H467   H     0.32197   0.37176   0.54820   0.00000  Uiso   1.00
H468   H     0.28374   0.37363   0.60798   0.00000  Uiso   1.00
C469   C     0.74712   0.40023   0.48519   0.00000  Uiso   1.00
C470   C     0.75288   0.59977   0.51481   0.00000  Uiso   1.00
C471   C     0.51541   0.46285   0.38973   0.00000  Uiso   1.00
C472   C     0.98459   0.53715   0.61027   0.00000  Uiso   1.00
C473   C     0.73898   0.34521   0.47955   0.00000  Uiso   1.00
C474   C     0.76102   0.65479   0.52045   0.00000  Uiso   1.00
C475   C     0.66434   0.49962   0.50051   0.00000  Uiso   1.00
C476   C     0.83566   0.50038   0.49949   0.00000  Uiso   1.00
C477   C     0.91114   0.51901   0.55435   0.00000  Uiso   1.00
C478   C     0.58886   0.48099   0.44565   0.00000  Uiso   1.00
C479   C     0.88405   0.50102   0.49896   0.00000  Uiso   1.00
C480   C     0.61595   0.49898   0.50104   0.00000  Uiso   1.00
C481   C     0.90326   0.48313   0.44381   0.00000  Uiso   1.00
C482   C     0.59674   0.51687   0.55619   0.00000  Uiso   1.00
C483   C     0.94955   0.48234   0.44388   0.00000  Uiso   1.00
C484   C     0.55045   0.51766   0.55612   0.00000  Uiso   1.00
C485   C     0.97673   0.50034   0.49974   0.00000  Uiso   1.00
C486   C     0.52327   0.49966   0.50026   0.00000  Uiso   1.00
C487   C     0.95740   0.51899   0.55510   0.00000  Uiso   1.00
C488   C     0.54260   0.48102   0.44490   0.00000  Uiso   1.00
C489   C     0.96909   0.46357   0.38920   0.00000  Uiso   1.00
C490   C     0.53091   0.53643   0.61080   0.00000  Uiso   1.00
Cu491  Cu    0.75500   0.50579   0.56146   0.00000  Uiso   1.00
Cu492  Cu    0.74499   0.49421   0.43854   0.00000  Uiso   1.00
H493   H     0.88224   0.46908   0.40110   0.00000  Uiso   1.00
H494   H     0.61776   0.53091   0.59890   0.00000  Uiso   1.00
H495   H     0.52998   0.44827   0.34701   0.00000  Uiso   1.00
H496   H     0.97002   0.55174   0.65299   0.00000  Uiso   1.00
H497   H     0.71531   0.45923   0.64943   0.00000  Uiso   1.00
H498   H     0.78469   0.54077   0.35057   0.00000  Uiso   1.00
N499   N     0.73744   0.48547   0.34617   0.00000  Uiso   1.00
N500   N     0.76255   0.51453   0.65383   0.00000  Uiso   1.00
O501   O     0.75325   0.42871   0.53992   0.00000  Uiso   1.00
O502   O     0.74674   0.57129   0.46008   0.00000  Uiso   1.00
O503   O     0.74480   0.41892   0.43612   0.00000  Uiso   1.00
O504   O     0.75520   0.58108   0.56388   0.00000  Uiso   1.00
O505   O     0.68935   0.50488   0.55191   0.00000  Uiso   1.00
O506   O     0.81064   0.49512   0.44809   0.00000  Uiso   1.00
O507   O     0.68090   0.49510   0.44810   0.00000  Uiso   1.00
O508   O     0.81910   0.50490   0.55190   0.00000  Uiso   1.00
H509   H     0.89626   0.53323   0.59697   0.00000  Uiso   1.00
H510   H     0.60374   0.46678   0.40303   0.00000  Uiso   1.00
H511   H     0.94859   0.44957   0.34608   0.00000  Uiso   1.00
H512   H     0.55141   0.55043   0.65391   0.00000  Uiso   1.00
C513   C     0.70190   0.65165   0.43123   0.00000  Uiso   1.00
H514   H     0.68219   0.34712   0.41223   0.00000  Uiso   1.00
H515   H     0.71626   0.62637   0.39202   0.00000  Uiso   1.00
H516   H     0.67803   0.62824   0.45180   0.00000  Uiso   1.00
C517   C     0.79810   0.34835   0.56877   0.00000  Uiso   1.00
H518   H     0.81781   0.65288   0.58777   0.00000  Uiso   1.00
H519   H     0.82197   0.37176   0.54820   0.00000  Uiso   1.00
H520   H     0.78374   0.37363   0.60798   0.00000  Uiso   1.00
C521   C     0.24712   0.73357   0.48519   0.00000  Uiso   1.00
C522   C     0.25288   0.93310   0.51481   0.00000  Uiso   1.00
C523   C     0.01541   0.79618   0.38973   0.00000  Uiso   1.00
C524   C     0.48459   0.87048   0.61027   0.00000  Uiso   1.00
C525   C     0.23898   0.67854   0.47955   0.00000  Uiso   1.00
C526   C     0.26102   0.98812   0.52045   0.00000  Uiso   1.00
C527   C     0.16434   0.83295   0.50051   0.00000  Uiso   1.00
C528   C     0.33566   0.83372   0.49949   0.00000  Uiso   1.00
C529   C     0.41114   0.85234   0.55435   0.00000  Uiso   1.00
C530   C     0.08886   0.81433   0.44565   0.00000  Uiso   1.00
C531   C     0.38405   0.83435   0.49896   0.00000  Uiso   1.00
C532   C     0.11595   0.83231   0.50104   0.00000  Uiso   1.00
C533   C     0.40326   0.81646   0.44381   0.00000  Uiso   1.00
C534   C     0.09674   0.85020   0.55619   0.00000  Uiso   1.00
C535   C     0.44955   0.81567   0.44388   0.00000  Uiso   1.00
C536   C     0.05045   0.85099   0.55612   0.00000  Uiso   1.00
C537   C     0.47673   0.83367   0.49974   0.00000  Uiso   1.00
C538   C     0.02327   0.83299   0.50026   0.00000  Uiso   1.00
C539   C     0.45740   0.85232   0.55510   0.00000  Uiso   1.00
C540   C     0.04260   0.81435   0.44490   0.00000  Uiso   1.00
C541   C     0.46909   0.79690   0.38920   0.00000  Uiso   1.00
C542   C     0.03091   0.86976   0.61080   0.00000  Uiso   1.00
Cu543  Cu    0.25500   0.83913   0.56146   0.00000  Uiso   1.00
Cu544  Cu    0.24499   0.82754   0.43854   0.00000  Uiso   1.00
H545   H     0.38224   0.80241   0.40110   0.00000  Uiso   1.00
H546   H     0.11776   0.86425   0.59890   0.00000  Uiso   1.00
H547   H     0.02998   0.78160   0.34701   0.00000  Uiso   1.00
H548   H     0.47002   0.88507   0.65299   0.00000  Uiso   1.00
H549   H     0.21531   0.79256   0.64943   0.00000  Uiso   1.00
H550   H     0.28469   0.87410   0.35057   0.00000  Uiso   1.00
N551   N     0.23744   0.81881   0.34617   0.00000  Uiso   1.00
N552   N     0.26255   0.84786   0.65383   0.00000  Uiso   1.00
O553   O     0.25325   0.76204   0.53992   0.00000  Uiso   1.00
O554   O     0.24674   0.90462   0.46008   0.00000  Uiso   1.00
O555   O     0.24480   0.75226   0.43612   0.00000  Uiso   1.00
O556   O     0.25520   0.91441   0.56388   0.00000  Uiso   1.00
O557   O     0.18935   0.83821   0.55191   0.00000  Uiso   1.00
O558   O     0.31064   0.82845   0.44809   0.00000  Uiso   1.00
O559   O     0.18090   0.82843   0.44810   0.00000  Uiso   1.00
O560   O     0.31910   0.83824   0.55190   0.00000  Uiso   1.00
H561   H     0.39626   0.86656   0.59697   0.00000  Uiso   1.00
H562   H     0.10374   0.80011   0.40303   0.00000  Uiso   1.00
H563   H     0.44859   0.78291   0.34608   0.00000  Uiso   1.00
H564   H     0.05141   0.88376   0.65391   0.00000  Uiso   1.00
C565   C     0.20190   0.98499   0.43123   0.00000  Uiso   1.00
H566   H     0.18219   0.68045   0.41223   0.00000  Uiso   1.00
H567   H     0.21626   0.95970   0.39202   0.00000  Uiso   1.00
H568   H     0.17803   0.96157   0.45180   0.00000  Uiso   1.00
C569   C     0.29810   0.68168   0.56877   0.00000  Uiso   1.00
H570   H     0.31781   0.98621   0.58777   0.00000  Uiso   1.00
H571   H     0.32197   0.70510   0.54820   0.00000  Uiso   1.00
H572   H     0.28374   0.70697   0.60798   0.00000  Uiso   1.00
C573   C     0.74712   0.73357   0.48519   0.00000  Uiso   1.00
C574   C     0.75288   0.93310   0.51481   0.00000  Uiso   1.00
C575   C     0.51541   0.79618   0.38973   0.00000  Uiso   1.00
C576   C     0.98459   0.87048   0.61027   0.00000  Uiso   1.00
C577   C     0.73898   0.67854   0.47955   0.00000  Uiso   1.00
C578   C     0.76102   0.98812   0.52045   0.00000  Uiso   1.00
C579   C     0.66434   0.83295   0.50051   0.00000  Uiso   1.00
C580   C     0.83566   0.83372   0.49949   0.00000  Uiso   1.00
C581   C     0.91114   0.85234   0.55435   0.00000  Uiso   1.00
C582   C     0.58886   0.81433   0.44565   0.00000  Uiso   1.00
C583   C     0.88405   0.83435   0.49896   0.00000  Uiso   1.00
C584   C     0.61595   0.83231   0.50104   0.00000  Uiso   1.00
C585   C     0.90326   0.81646   0.44381   0.00000  Uiso   1.00
C586   C     0.59674   0.85020   0.55619   0.00000  Uiso   1.00
C587   C     0.94955   0.81567   0.44388   0.00000  Uiso   1.00
C588   C     0.55045   0.85099   0.55612   0.00000  Uiso   1.00
C589   C     0.97673   0.83367   0.49974   0.00000  Uiso   1.00
C590   C     0.52327   0.83299   0.50026   0.00000  Uiso   1.00
C591   C     0.95740   0.85232   0.55510   0.00000  Uiso   1.00
C592   C     0.54260   0.81435   0.44490   0.00000  Uiso   1.00
C593   C     0.96909   0.79690   0.38920   0.00000  Uiso   1.00
C594   C     0.53091   0.86976   0.61080   0.00000  Uiso   1.00
Cu595  Cu    0.75500   0.83913   0.56146   0.00000  Uiso   1.00
Cu596  Cu    0.74499   0.82754   0.43854   0.00000  Uiso   1.00
H597   H     0.88224   0.80241   0.40110   0.00000  Uiso   1.00
H598   H     0.61776   0.86425   0.59890   0.00000  Uiso   1.00
H599   H     0.52998   0.78160   0.34701   0.00000  Uiso   1.00
H600   H     0.97002   0.88507   0.65299   0.00000  Uiso   1.00
H601   H     0.71531   0.79256   0.64943   0.00000  Uiso   1.00
H602   H     0.78469   0.87410   0.35057   0.00000  Uiso   1.00
N603   N     0.73744   0.81881   0.34617   0.00000  Uiso   1.00
N604   N     0.76255   0.84786   0.65383   0.00000  Uiso   1.00
O605   O     0.75325   0.76204   0.53992   0.00000  Uiso   1.00
O606   O     0.74674   0.90462   0.46008   0.00000  Uiso   1.00
O607   O     0.74480   0.75226   0.43612   0.00000  Uiso   1.00
O608   O     0.75520   0.91441   0.56388   0.00000  Uiso   1.00
O609   O     0.68935   0.83821   0.55191   0.00000  Uiso   1.00
O610   O     0.81064   0.82845   0.44809   0.00000  Uiso   1.00
O611   O     0.68090   0.82843   0.44810   0.00000  Uiso   1.00
O612   O     0.81910   0.83824   0.55190   0.00000  Uiso   1.00
H613   H     0.89626   0.86656   0.59697   0.00000  Uiso   1.00
H614   H     0.60374   0.80011   0.40303   0.00000  Uiso   1.00
H615   H     0.94859   0.78291   0.34608   0.00000  Uiso   1.00
H616   H     0.55141   0.88376   0.65391   0.00000  Uiso   1.00
C617   C     0.70190   0.98499   0.43123   0.00000  Uiso   1.00
H618   H     0.68219   0.68045   0.41223   0.00000  Uiso   1.00
H619   H     0.71626   0.95970   0.39202   0.00000  Uiso   1.00
H620   H     0.67803   0.96157   0.45180   0.00000  Uiso   1.00
C621   C     0.79810   0.68168   0.56877   0.00000  Uiso   1.00
H622   H     0.81781   0.98621   0.58777   0.00000  Uiso   1.00
H623   H     0.82197   0.70510   0.54820   0.00000  Uiso   1.00
H624   H     0.78374   0.70697   0.60798   0.00000  Uiso   1.00
C625   C     0.24712   0.06690   0.81852   0.00000  Uiso   1.00
C626   C     0.25288   0.26643   0.84814   0.00000  Uiso   1.00
C627   C     0.01541   0.12952   0.72307   0.00000  Uiso   1.00
C628   C     0.48459   0.20382   0.94360   0.00000  Uiso   1.00
C629   C     0.23898   0.01188   0.81289   0.00000  Uiso   1.00
C630   C     0.26102   0.32146   0.85378   0.00000  Uiso   1.00
C631   C     0.16434   0.16628   0.83384   0.00000  Uiso   1.00
C632   C     0.33566   0.16705   0.83283   0.00000  Uiso   1.00
C633   C     0.41114   0.18568   0.88768   0.00000  Uiso   1.00
C634   C     0.08886   0.14766   0.77899   0.00000  Uiso   1.00
C635   C     0.38405   0.16769   0.83229   0.00000  Uiso   1.00
C636   C     0.11595   0.16565   0.83438   0.00000  Uiso   1.00
C637   C     0.40326   0.14979   0.77714   0.00000  Uiso   1.00
C638   C     0.09674   0.18354   0.88953   0.00000  Uiso   1.00
C639   C     0.44955   0.14901   0.77721   0.00000  Uiso   1.00
C640   C     0.05045   0.18433   0.88946   0.00000  Uiso   1.00
C641   C     0.47673   0.16701   0.83307   0.00000  Uiso   1.00
C642   C     0.02327   0.16633   0.83359   0.00000  Uiso   1.00
C643   C     0.45740   0.18565   0.88843   0.00000  Uiso   1.00
C644   C     0.04260   0.14768   0.77824   0.00000  Uiso   1.00
C645   C     0.46909   0.13024   0.72254   0.00000  Uiso   1.00
C646   C     0.03091   0.20309   0.94413   0.00000  Uiso   1.00
Cu647  Cu    0.25500   0.17246   0.89479   0.00000  Uiso   1.00
Cu648  Cu    0.24499   0.16087   0.77187   0.00000  Uiso   1.00
H649   H     0.38224   0.13575   0.73443   0.00000  Uiso   1.00
H650   H     0.11776   0.19758   0.93223   0.00000  Uiso   1.00
H651   H     0.02998   0.11493   0.68034   0.00000  Uiso   1.00
H652   H     0.47002   0.21840   0.98633   0.00000  Uiso   1.00
H653   H     0.21531   0.12590   0.98276   0.00000  Uiso   1.00
H654   H     0.28469   0.20744   0.68390   0.00000  Uiso   1.00
N655   N     0.23744   0.15214   0.67951   0.00000  Uiso   1.00
N656   N     0.26255   0.18119   0.98716   0.00000  Uiso   1.00
O657   O     0.25325   0.09538   0.87326   0.00000  Uiso   1.00
O658   O     0.24674   0.23796   0.79341   0.00000  Uiso   1.00
O659   O     0.24480   0.08559   0.76945   0.00000  Uiso   1.00
O660   O     0.25520   0.24774   0.89721   0.00000  Uiso   1.00
O661   O     0.18935   0.17155   0.88524   0.00000  Uiso   1.00
O662   O     0.31064   0.16179   0.78143   0.00000  Uiso   1.00
O663   O     0.18090   0.16176   0.78143   0.00000  Uiso   1.00
O664   O     0.31910   0.17157   0.88523   0.00000  Uiso   1.00
H665   H     0.39626   0.19989   0.93030   0.00000  Uiso   1.00
H666   H     0.10374   0.13345   0.73636   0.00000  Uiso   1.00
H667   H     0.44859   0.11624   0.67942   0.00000  Uiso   1.00
H668   H     0.05141   0.21709   0.98725   0.00000  Uiso   1.00
C669   C     0.20190   0.31832   0.76456   0.00000  Uiso   1.00
H670   H     0.18219   0.01379   0.74557   0.00000  Uiso   1.00
H671   H     0.21626   0.29303   0.72535   0.00000  Uiso   1.00
H672   H     0.17803   0.29490   0.78514   0.00000  Uiso   1.00
C673   C     0.29810   0.01501   0.90211   0.00000  Uiso   1.00
H674   H     0.31781   0.31955   0.92110   0.00000  Uiso   1.00
H675   H     0.32197   0.03843   0.88153   0.00000  Uiso   1.00
H676   H     0.28374   0.04030   0.94132   0.00000  Uiso   1.00
C677   C     0.74712   0.06690   0.81852   0.00000  Uiso   1.00
C678   C     0.75288   0.26643   0.84814   0.00000  Uiso   1.00
C679   C     0.51541   0.12952   0.72307   0.00000  Uiso   1.00
C680   C     0.98459   0.20382   0.94360   0.00000  Uiso   1.00
C681   C     0.73898   0.01188   0.81289   0.00000  Uiso   1.00
C682   C     0.76102   0.32146   0.85378   0.00000  Uiso   1.00
C683   C     0.66434   0.16628   0.83384   0.00000  Uiso   1.00
C684   C     0.83566   0.16705   0.83283   0.00000  Uiso   1.00
C685   C     0.91114   0.18568   0.88768   0.00000  Uiso   1.00
C686   C     0.58886   0.14766   0.77899   0.00000  Uiso   1.00
C687   C     0.88405   0.16769   0.83229   0.00000  Uiso   1.00
C688   C     0.61595   0.16565   0.83438   0.00000  Uiso   1.00
C689   C     0.90326   0.14979   0.77714   0.00000  Uiso   1.00
C690   C     0.59674   0.18354   0.88953   0.00000  Uiso   1.00
C691   C     0.94955   0.14901   0.77721   0.00000  Uiso   1.00
C692   C     0.55045   0.18433   0.88946   0.00000  Uiso   1.00
C693   C     0.97673   0.16701   0.83307   0.00000  Uiso   1.00
C694   C     0.52327   0.16633   0.83359   0.00000  Uiso   1.00
C695   C     0.95740   0.18565   0.88843   0.00000  Uiso   1.00
C696   C     0.54260   0.14768   0.77824   0.00000  Uiso   1.00
C697   C     0.96909   0.13024   0.72254   0.00000  Uiso   1.00
C698   C     0.53091   0.20309   0.94413   0.00000  Uiso   1.00
Cu699  Cu    0.75500   0.17246   0.89479   0.00000  Uiso   1.00
Cu700  Cu    0.74499   0.16087   0.77187   0.00000  Uiso   1.00
H701   H     0.88224   0.13575   0.73443   0.00000  Uiso   1.00
H702   H     0.61776   0.19758   0.93223   0.00000  Uiso   1.00
H703   H     0.52998   0.11493   0.68034   0.00000  Uiso   1.00
H704   H     0.97002   0.21840   0.98633   0.00000  Uiso   1.00
H705   H     0.71531   0.12590   0.98276   0.00000  Uiso   1.00
H706   H     0.78469   0.20744   0.68390   0.00000  Uiso   1.00
N707   N     0.73744   0.15214   0.67951   0.00000  Uiso   1.00
N708   N     0.76255   0.18119   0.98716   0.00000  Uiso   1.00
O709   O     0.75325   0.09538   0.87326   0.00000  Uiso   1.00
O710   O     0.74674   0.23796   0.79341   0.00000  Uiso   1.00
O711   O     0.74480   0.08559   0.76945   0.00000  Uiso   1.00
O712   O     0.75520   0.24774   0.89721   0.00000  Uiso   1.00
O713   O     0.68935   0.17155   0.88524   0.00000  Uiso   1.00
O714   O     0.81064   0.16179   0.78143   0.00000  Uiso   1.00
O715   O     0.68090   0.16176   0.78143   0.00000  Uiso   1.00
O716   O     0.81910   0.17157   0.88523   0.00000  Uiso   1.00
H717   H     0.89626   0.19989   0.93030   0.00000  Uiso   1.00
H718   H     0.60374   0.13345   0.73636   0.00000  Uiso   1.00
H719   H     0.94859   0.11624   0.67942   0.00000  Uiso   1.00
H720   H     0.55141   0.21709   0.98725   0.00000  Uiso   1.00
C721   C     0.70190   0.31832   0.76456   0.00000  Uiso   1.00
H722   H     0.68219   0.01379   0.74557   0.00000  Uiso   1.00
H723   H     0.71626   0.29303   0.72535   0.00000  Uiso   1.00
H724   H     0.67803   0.29490   0.78514   0.00000  Uiso   1.00
C725   C     0.79810   0.01501   0.90211   0.00000  Uiso   1.00
H726   H     0.81781   0.31955   0.92110   0.00000  Uiso   1.00
H727   H     0.82197   0.03843   0.88153   0.00000  Uiso   1.00
H728   H     0.78374   0.04030   0.94132   0.00000  Uiso   1.00
C729   C     0.24712   0.40023   0.81852   0.00000  Uiso   1.00
C730   C     0.25288   0.59977   0.84814   0.00000  Uiso   1.00
C731   C     0.01541   0.46285   0.72307   0.00000  Uiso   1.00
C732   C     0.48459   0.53715   0.94360   0.00000  Uiso   1.00
C733   C     0.23898   0.34521   0.81289   0.00000  Uiso   1.00
C734   C     0.26102   0.65479   0.85378   0.00000  Uiso   1.00
C735   C     0.16434   0.49962   0.83384   0.00000  Uiso   1.00
C736   C     0.33566   0.50038   0.83283   0.00000  Uiso   1.00
C737   C     0.41114   0.51901   0.88768   0.00000  Uiso   1.00
C738   C     0.08886   0.48099   0.77899   0.00000  Uiso   1.00
C739   C     0.38405   0.50102   0.83229   0.00000  Uiso   1.00
C740   C     0.11595   0.49898   0.83438   0.00000  Uiso   1.00
C741   C     0.40326   0.48313   0.77714   0.00000  Uiso   1.00
C742   C     0.09674   0.51687   0.88953   0.00000  Uiso   1.00
C743   C     0.44955   0.48234   0.77721   0.00000  Uiso   1.00
C744   C     0.05045   0.51766   0.88946   0.00000  Uiso   1.00
C745   C     0.47673   0.50034   0.83307   0.00000  Uiso   1.00
C746   C     0.02327   0.49966   0.83359   0.00000  Uiso   1.00
C747   C     0.45740   0.51899   0.88843   0.00000  Uiso   1.00
C748   C     0.04260   0.48102   0.77824   0.00000  Uiso   1.00
C749   C     0.46909   0.46357   0.72254   0.00000  Uiso   1.00
C750   C     0.03091   0.53643   0.94413   0.00000  Uiso   1.00
Cu751  Cu    0.25500   0.50579   0.89479   0.00000  Uiso   1.00
Cu752  Cu    0.24499   0.49421   0.77187   0.00000  Uiso   1.00
H753   H     0.38224   0.46908   0.73443   0.00000  Uiso   1.00
H754   H     0.11776   0.53091   0.93223   0.00000  Uiso   1.00
H755   H     0.02998   0.44827   0.68034   0.00000  Uiso   1.00
H756   H     0.47002   0.55174   0.98633   0.00000  Uiso   1.00
H757   H     0.21531   0.45923   0.98276   0.00000  Uiso   1.00
H758   H     0.28469   0.54077   0.68390   0.00000  Uiso   1.00
N759   N     0.23744   0.48547   0.67951   0.00000  Uiso   1.00
N760   N     0.26255   0.51453   0.98716   0.00000  Uiso   1.00
O761   O     0.25325   0.42871   0.87326   0.00000  Uiso   1.00
O762   O     0.24674   0.57129   0.79341   0.00000  Uiso   1.00
O763   O     0.24480   0.41892   0.76945   0.00000  Uiso   1.00
O764   O     0.25520   0.58108   0.89721   0.00000  Uiso   1.00
O765   O     0.18935   0.50488   0.88524   0.00000  Uiso   1.00
O766   O     0.31064   0.49512   0.78143   0.00000  Uiso   1.00
O767   O     0.18090   0.49510   0.78143   0.00000  Uiso   1.00
O768   O     0.31910   0.50490   0.88523   0.00000  Uiso   1.00
H769   H     0.39626   0.53323   0.93030   0.00000  Uiso   1.00
H770   H     0.10374   0.46678   0.73636   0.00000  Uiso   1.00
H771   H     0.44859   0.44957   0.67942   0.00000  Uiso   1.00
H772   H     0.05141   0.55043   0.98725   0.00000  Uiso   1.00
C773   C     0.20190   0.65165   0.76456   0.00000  Uiso   1.00
H774   H     0.18219   0.34712   0.74557   0.00000  Uiso   1.00
H775   H     0.21626   0.62637   0.72535   0.00000  Uiso   1.00
H776   H     0.17803   0.62824   0.78514   0.00000  Uiso   1.00
C777   C     0.29810   0.34835   0.90211   0.00000  Uiso   1.00
H778   H     0.31781   0.65288   0.92110   0.00000  Uiso   1.00
H779   H     0.32197   0.37176   0.88153   0.00000  Uiso   1.00
H780   H     0.28374   0.37363   0.94132   0.00000  Uiso   1.00
C781   C     0.74712   0.40023   0.81852   0.00000  Uiso   1.00
C782   C     0.75288   0.59977   0.84814   0.00000  Uiso   1.00
C783   C     0.51541   0.46285   0.72307   0.00000  Uiso   1.00
C784   C     0.98459   0.53715   0.94360   0.00000  Uiso   1.00
C785   C     0.73898   0.34521   0.81289   0.00000  Uiso   1.00
C786   C     0.76102   0.65479   0.85378   0.00000  Uiso   1.00
C787   C     0.66434   0.49962   0.83384   0.00000  Uiso   1.00
C788   C     0.83566   0.50038   0.83283   0.00000  Uiso   1.00
C789   C     0.91114   0.51901   0.88768   0.00000  Uiso   1.00
C790   C     0.58886   0.48099   0.77899   0.00000  Uiso   1.00
C791   C     0.88405   0.50102   0.83229   0.00000  Uiso   1.00
C792   C     0.61595   0.49898   0.83438   0.00000  Uiso   1.00
C793   C     0.90326   0.48313   0.77714   0.00000  Uiso   1.00
C794   C     0.59674   0.51687   0.88953   0.00000  Uiso   1.00
C795   C     0.94955   0.48234   0.77721   0.00000  Uiso   1.00
C796   C     0.55045   0.51766   0.88946   0.00000  Uiso   1.00
C797   C     0.97673   0.50034   0.83307   0.00000  Uiso   1.00
C798   C     0.52327   0.49966   0.83359   0.00000  Uiso   1.00
C799   C     0.95740   0.51899   0.88843   0.00000  Uiso   1.00
C800   C     0.54260   0.48102   0.77824   0.00000  Uiso   1.00
C801   C     0.96909   0.46357   0.72254   0.00000  Uiso   1.00
C802   C     0.53091   0.53643   0.94413   0.00000  Uiso   1.00
Cu803  Cu    0.75500   0.50579   0.89479   0.00000  Uiso   1.00
Cu804  Cu    0.74499   0.49421   0.77187   0.00000  Uiso   1.00
H805   H     0.88224   0.46908   0.73443   0.00000  Uiso   1.00
H806   H     0.61776   0.53091   0.93223   0.00000  Uiso   1.00
H807   H     0.52998   0.44827   0.68034   0.00000  Uiso   1.00
H808   H     0.97002   0.55174   0.98633   0.00000  Uiso   1.00
H809   H     0.71531   0.45923   0.98276   0.00000  Uiso   1.00
H810   H     0.78469   0.54077   0.68390   0.00000  Uiso   1.00
N811   N     0.73744   0.48547   0.67951   0.00000  Uiso   1.00
N812   N     0.76255   0.51453   0.98716   0.00000  Uiso   1.00
O813   O     0.75325   0.42871   0.87326   0.00000  Uiso   1.00
O814   O     0.74674   0.57129   0.79341   0.00000  Uiso   1.00
O815   O     0.74480   0.41892   0.76945   0.00000  Uiso   1.00
O816   O     0.75520   0.58108   0.89721   0.00000  Uiso   1.00
O817   O     0.68935   0.50488   0.88524   0.00000  Uiso   1.00
O818   O     0.81064   0.49512   0.78143   0.00000  Uiso   1.00
O819   O     0.68090   0.49510   0.78143   0.00000  Uiso   1.00
O820   O     0.81910   0.50490   0.88523   0.00000  Uiso   1.00
H821   H     0.89626   0.53323   0.93030   0.00000  Uiso   1.00
H822   H     0.60374   0.46678   0.73636   0.00000  Uiso   1.00
H823   H     0.94859   0.44957   0.67942   0.00000  Uiso   1.00
H824   H     0.55141   0.55043   0.98725   0.00000  Uiso   1.00
C825   C     0.70190   0.65165   0.76456   0.00000  Uiso   1.00
H826   H     0.68219   0.34712   0.74557   0.00000  Uiso   1.00
H827   H     0.71626   0.62637   0.72535   0.00000  Uiso   1.00
H828   H     0.67803   0.62824   0.78514   0.00000  Uiso   1.00
C829   C     0.79810   0.34835   0.90211   0.00000  Uiso   1.00
H830   H     0.81781   0.65288   0.92110   0.00000  Uiso   1.00
H831   H     0.82197   0.37176   0.88153   0.00000  Uiso   1.00
H832   H     0.78374   0.37363   0.94132   0.00000  Uiso   1.00
C833   C     0.24712   0.73357   0.81852   0.00000  Uiso   1.00
C834   C     0.25288   0.93310   0.84814   0.00000  Uiso   1.00
C835   C     0.01541   0.79618   0.72307   0.00000  Uiso   1.00
C836   C     0.48459   0.87048   0.94360   0.00000  Uiso   1.00
C837   C     0.23898   0.67854   0.81289   0.00000  Uiso   1.00
C838   C     0.26102   0.98812   0.85378   0.00000  Uiso   1.00
C839   C     0.16434   0.83295   0.83384   0.00000  Uiso   1.00
C840   C     0.33566   0.83372   0.83283   0.00000  Uiso   1.00
C841   C     0.41114   0.85234   0.88768   0.00000  Uiso   1.00
C842   C     0.08886   0.81433   0.77899   0.00000  Uiso   1.00
C843   C     0.38405   0.83435   0.83229   0.00000  Uiso   1.00
C844   C     0.11595   0.83231   0.83438   0.00000  Uiso   1.00
C845   C     0.40326   0.81646   0.77714   0.00000  Uiso   1.00
C846   C     0.09674   0.85020   0.88953   0.00000  Uiso   1.00
C847   C     0.44955   0.81567   0.77721   0.00000  Uiso   1.00
C848   C     0.05045   0.85099   0.88946   0.00000  Uiso   1.00
C849   C     0.47673   0.83367   0.83307   0.00000  Uiso   1.00
C850   C     0.02327   0.83299   0.83359   0.00000  Uiso   1.00
C851   C     0.45740   0.85232   0.88843   0.00000  Uiso   1.00
C852   C     0.04260   0.81435   0.77824   0.00000  Uiso   1.00
C853   C     0.46909   0.79690   0.72254   0.00000  Uiso   1.00
C854   C     0.03091   0.86976   0.94413   0.00000  Uiso   1.00
Cu855  Cu    0.25500   0.83913   0.89479   0.00000  Uiso   1.00
Cu856  Cu    0.24499   0.82754   0.77187   0.00000  Uiso   1.00
H857   H     0.38224   0.80241   0.73443   0.00000  Uiso   1.00
H858   H     0.11776   0.86425   0.93223   0.00000  Uiso   1.00
H859   H     0.02998   0.78160   0.68034   0.00000  Uiso   1.00
H860   H     0.47002   0.88507   0.98633   0.00000  Uiso   1.00
H861   H     0.21531   0.79256   0.98276   0.00000  Uiso   1.00
H862   H     0.28469   0.87410   0.68390   0.00000  Uiso   1.00
N863   N     0.23744   0.81881   0.67951   0.00000  Uiso   1.00
N864   N     0.26255   0.84786   0.98716   0.00000  Uiso   1.00
O865   O     0.25325   0.76204   0.87326   0.00000  Uiso   1.00
O866   O     0.24674   0.90462   0.79341   0.00000  Uiso   1.00
O867   O     0.24480   0.75226   0.76945   0.00000  Uiso   1.00
O868   O     0.25520   0.91441   0.89721   0.00000  Uiso   1.00
O869   O     0.18935   0.83821   0.88524   0.00000  Uiso   1.00
O870   O     0.31064   0.82845   0.78143   0.00000  Uiso   1.00
O871   O     0.18090   0.82843   0.78143   0.00000  Uiso   1.00
O872   O     0.31910   0.83824   0.88523   0.00000  Uiso   1.00
H873   H     0.39626   0.86656   0.93030   0.00000  Uiso   1.00
H874   H     0.10374   0.80011   0.73636   0.00000  Uiso   1.00
H875   H     0.44859   0.78291   0.67942   0.00000  Uiso   1.00
H876   H     0.05141   0.88376   0.98725   0.00000  Uiso   1.00
C877   C     0.20190   0.98499   0.76456   0.00000  Uiso   1.00
H878   H     0.18219   0.68045   0.74557   0.00000  Uiso   1.00
H879   H     0.21626   0.95970   0.72535   0.00000  Uiso   1.00
H880   H     0.17803   0.96157   0.78514   0.00000  Uiso   1.00
C881   C     0.29810   0.68168   0.90211   0.00000  Uiso   1.00
H882   H     0.31781   0.98621   0.92110   0.00000  Uiso   1.00
H883   H     0.32197   0.70510   0.88153   0.00000  Uiso   1.00
H884   H     0.28374   0.70697   0.94132   0.00000  Uiso   1.00
C885   C     0.74712   0.73357   0.81852   0.00000  Uiso   1.00
C886   C     0.75288   0.93310   0.84814   0.00000  Uiso   1.00
C887   C     0.51541   0.79618   0.72307   0.00000  Uiso   1.00
C888   C     0.98459   0.87048   0.94360   0.00000  Uiso   1.00
C889   C     0.73898   0.67854   0.81289   0.00000  Uiso   1.00
C890   C     0.76102   0.98812   0.85378   0.00000  Uiso   1.00
C891   C     0.66434   0.83295   0.83384   0.00000  Uiso   1.00
C892   C     0.83566   0.83372   0.83283   0.00000  Uiso   1.00
C893   C     0.91114   0.85234   0.88768   0.00000  Uiso   1.00
C894   C     0.58886   0.81433   0.77899   0.00000  Uiso   1.00
C895   C     0.88405   0.83435   0.83229   0.00000  Uiso   1.00
C896   C     0.61595   0.83231   0.83438   0.00000  Uiso   1.00
C897   C     0.90326   0.81646   0.77714   0.00000  Uiso   1.00
C898   C     0.59674   0.85020   0.88953   0.00000  Uiso   1.00
C899   C     0.94955   0.81567   0.77721   0.00000  Uiso   1.00
C900   C     0.55045   0.85099   0.88946   0.00000  Uiso   1.00
C901   C     0.97673   0.83367   0.83307   0.00000  Uiso   1.00
C902   C     0.52327   0.83299   0.83359   0.00000  Uiso   1.00
C903   C     0.95740   0.85232   0.88843   0.00000  Uiso   1.00
C904   C     0.54260   0.81435   0.77824   0.00000  Uiso   1.00
C905   C     0.96909   0.79690   0.72254   0.00000  Uiso   1.00
C906   C     0.53091   0.86976   0.94413   0.00000  Uiso   1.00
Cu907  Cu    0.75500   0.83913   0.89479   0.00000  Uiso   1.00
Cu908  Cu    0.74499   0.82754   0.77187   0.00000  Uiso   1.00
H909   H     0.88224   0.80241   0.73443   0.00000  Uiso   1.00
H910   H     0.61776   0.86425   0.93223   0.00000  Uiso   1.00
H911   H     0.52998   0.78160   0.68034   0.00000  Uiso   1.00
H912   H     0.97002   0.88507   0.98633   0.00000  Uiso   1.00
H913   H     0.71531   0.79256   0.98276   0.00000  Uiso   1.00
H914   H     0.78469   0.87410   0.68390   0.00000  Uiso   1.00
N915   N     0.73744   0.81881   0.67951   0.00000  Uiso   1.00
N916   N     0.76255   0.84786   0.98716   0.00000  Uiso   1.00
O917   O     0.75325   0.76204   0.87326   0.00000  Uiso   1.00
O918   O     0.74674   0.90462   0.79341   0.00000  Uiso   1.00
O919   O     0.74480   0.75226   0.76945   0.00000  Uiso   1.00
O920   O     0.75520   0.91441   0.89721   0.00000  Uiso   1.00
O921   O     0.68935   0.83821   0.88524   0.00000  Uiso   1.00
O922   O     0.81064   0.82845   0.78143   0.00000  Uiso   1.00
O923   O     0.68090   0.82843   0.78143   0.00000  Uiso   1.00
O924   O     0.81910   0.83824   0.88523   0.00000  Uiso   1.00
H925   H     0.89626   0.86656   0.93030   0.00000  Uiso   1.00
H926   H     0.60374   0.80011   0.73636   0.00000  Uiso   1.00
H927   H     0.94859   0.78291   0.67942   0.00000  Uiso   1.00
H928   H     0.55141   0.88376   0.98725   0.00000  Uiso   1.00
C929   C     0.70190   0.98499   0.76456   0.00000  Uiso   1.00
H930   H     0.68219   0.68045   0.74557   0.00000  Uiso   1.00
H931   H     0.71626   0.95970   0.72535   0.00000  Uiso   1.00
H932   H     0.67803   0.96157   0.78514   0.00000  Uiso   1.00
C933   C     0.79810   0.68168   0.90211   0.00000  Uiso   1.00
H934   H     0.81781   0.98621   0.92110   0.00000  Uiso   1.00
H935   H     0.82197   0.70510   0.88153   0.00000  Uiso   1.00
H936   H     0.78374   0.70697   0.94132   0.00000  Uiso   1.00
loop_
_geom_bond_atom_site_label_1
_geom_bond_atom_site_label_2
_geom_bond_distance
_geom_bond_site_symmetry_2
_ccdc_geom_bond_type
C1     O33     1.284   .     A
C1     C5      1.429   .     S
C1     O35     1.287   .     A
C2     O34     1.284   .     A
C2     C6      1.429   .     S
C2     O36     1.287   .     A
C3     H27     1.084   .     S
C3     C20     1.402   .     A
C3     C73     1.393   1_455 S
C4     H28     1.084   .     S
C4     C19     1.402   .     A
C4     C74     1.393   .     S
C5     C214    1.355   1_545 S
C5     C253    1.522   1_545 S
C6     C109    1.355   .     S
C6     C153    1.522   .     S
C7     O37     1.297   .     A
C7     C12     1.456   .     S
C7     O39     1.291   .     A
C8     O38     1.297   .     A
C8     C11     1.456   .     S
C8     O40     1.291   .     A
C9     H41     1.085   .     S
C9     C11     1.403   .     A
C9     C19     1.390   .     A
C10    H42     1.085   .     S
C10    C12     1.403   .     A
C10    C20     1.390   .     A
C11    C13     1.401   .     A
C12    C14     1.401   .     A
C13    H25     1.085   .     S
C13    C15     1.393   .     A
C14    H26     1.085   .     S
C14    C16     1.393   .     A
C15    C21     1.401   .     A
C15    C17     1.413   .     A
C16    C18     1.413   .     A
C16    C22     1.401   .     A
C17    C19     1.410   .     A
C17    C70     1.400   .     S
C18    C20     1.410   .     A
C18    C69     1.400   1_455 S
C21    H43     1.084   .     S
C21    C55     1.393   .     S
C22    H44     1.084   .     S
C22    C56     1.393   1_455 S
Cu23   O33     1.973   .     S
Cu23   Cu24    2.683   .     S
Cu23   N32     2.016   .     S
Cu23   O36     1.962   .     S
Cu23   O40     1.957   .     S
Cu23   O37     1.968   .     S
Cu24   O38     1.968   .     S
Cu24   N31     2.016   .     S
Cu24   O35     1.962   .     S
Cu24   O39     1.957   .     S
Cu24   O34     1.973   .     S
H29    N343    1.029   .     S
H30    N656    1.029   1_554 S
N31    H653    1.029   1_554 S
N31    N656    1.296   1_554 S
N32    N343    1.296   .     S
N32    H342    1.029   .     S
C45    H47     1.110   .     S
C45    H48     1.111   .     S
C45    C109    1.522   .     S
C45    H150    1.111   .     S
H46    C253    1.111   1_545 S
C49    H52     1.110   .     S
C49    H51     1.111   .     S
C49    C214    1.522   1_545 S
C49    H258    1.111   1_545 S
H50    C153    1.111   .     S
C53    O85     1.284   .     A
C53    C57     1.429   .     S
C53    O87     1.287   .     A
C54    O86     1.284   .     A
C54    C58     1.429   .     S
C54    O88     1.287   .     A
C55    H79     1.084   .     S
C55    C72     1.402   .     A
C56    H80     1.084   .     S
C56    C71     1.402   .     A
C56    C22     1.393   1_655 S
C57    C266    1.355   1_545 S
C57    C305    1.522   1_545 S
C58    C161    1.355   .     S
C58    C205    1.522   .     S
C59    O89     1.297   .     A
C59    C64     1.456   .     S
C59    O91     1.291   .     A
C60    O90     1.297   .     A
C60    C63     1.456   .     S
C60    O92     1.291   .     A
C61    H93     1.085   .     S
C61    C63     1.403   .     A
C61    C71     1.390   .     A
C62    H94     1.085   .     S
C62    C64     1.403   .     A
C62    C72     1.390   .     A
C63    C65     1.401   .     A
C64    C66     1.401   .     A
C65    H77     1.085   .     S
C65    C67     1.393   .     A
C66    H78     1.085   .     S
C66    C68     1.393   .     A
C67    C73     1.401   .     A
C67    C69     1.413   .     A
C68    C70     1.413   .     A
C68    C74     1.401   .     A
C69    C71     1.410   .     A
C69    C18     1.400   1_655 S
C70    C72     1.410   .     A
C73    H95     1.084   .     S
C73    C3      1.393   1_655 S
C74    H96     1.084   .     S
Cu75   O85     1.973   .     S
Cu75   Cu76    2.683   .     S
Cu75   N84     2.016   .     S
Cu75   O88     1.962   .     S
Cu75   O92     1.957   .     S
Cu75   O89     1.968   .     S
Cu76   O90     1.968   .     S
Cu76   N83     2.016   .     S
Cu76   O87     1.962   .     S
Cu76   O91     1.957   .     S
Cu76   O86     1.973   .     S
H81    N395    1.029   .     S
H82    N708    1.029   1_554 S
N83    H705    1.029   1_554 S
N83    N708    1.296   1_554 S
N84    N395    1.296   .     S
N84    H394    1.029   .     S
C97    H99     1.110   .     S
C97    H100    1.111   .     S
C97    C161    1.522   .     S
C97    H202    1.111   .     S
H98    C305    1.111   1_545 S
C101   H104    1.110   .     S
C101   H103    1.111   .     S
C101   C266    1.522   1_545 S
C101   H310    1.111   1_545 S
H102   C205    1.111   .     S
C105   O137    1.284   .     A
C105   C109    1.429   .     S
C105   O139    1.287   .     A
C106   O138    1.284   .     A
C106   C110    1.429   .     S
C106   O140    1.287   .     A
C107   H131    1.084   .     S
C107   C124    1.402   .     A
C107   C177    1.393   1_455 S
C108   H132    1.084   .     S
C108   C123    1.402   .     A
C108   C178    1.393   .     S
C110   C213    1.355   .     S
C110   C257    1.522   .     S
C111   O141    1.297   .     A
C111   C116    1.456   .     S
C111   O143    1.291   .     A
C112   O142    1.297   .     A
C112   C115    1.456   .     S
C112   O144    1.291   .     A
C113   H145    1.085   .     S
C113   C115    1.403   .     A
C113   C123    1.390   .     A
C114   H146    1.085   .     S
C114   C116    1.403   .     A
C114   C124    1.390   .     A
C115   C117    1.401   .     A
C116   C118    1.401   .     A
C117   H129    1.085   .     S
C117   C119    1.393   .     A
C118   H130    1.085   .     S
C118   C120    1.393   .     A
C119   C125    1.401   .     A
C119   C121    1.413   .     A
C120   C122    1.413   .     A
C120   C126    1.401   .     A
C121   C123    1.410   .     A
C121   C174    1.400   .     S
C122   C124    1.410   .     A
C122   C173    1.400   1_455 S
C125   H147    1.084   .     S
C125   C159    1.393   .     S
C126   H148    1.084   .     S
C126   C160    1.393   1_455 S
Cu127  O137    1.973   .     S
Cu127  Cu128   2.683   .     S
Cu127  N136    2.016   .     S
Cu127  O140    1.962   .     S
Cu127  O144    1.957   .     S
Cu127  O141    1.968   .     S
Cu128  O142    1.968   .     S
Cu128  N135    2.016   .     S
Cu128  O139    1.962   .     S
Cu128  O143    1.957   .     S
Cu128  O138    1.973   .     S
H133   N447    1.029   .     S
H134   N760    1.029   1_554 S
N135   H757    1.029   1_554 S
N135   N760    1.296   1_554 S
N136   N447    1.296   .     S
N136   H446    1.029   .     S
C149   H151    1.110   .     S
C149   H152    1.111   .     S
C149   C213    1.522   .     S
C149   H254    1.111   .     S
C153   H156    1.110   .     S
C153   H155    1.111   .     S
H154   C257    1.111   .     S
C157   O189    1.284   .     A
C157   C161    1.429   .     S
C157   O191    1.287   .     A
C158   O190    1.284   .     A
C158   C162    1.429   .     S
C158   O192    1.287   .     A
C159   H183    1.084   .     S
C159   C176    1.402   .     A
C160   H184    1.084   .     S
C160   C175    1.402   .     A
C160   C126    1.393   1_655 S
C162   C265    1.355   .     S
C162   C309    1.522   .     S
C163   O193    1.297   .     A
C163   C168    1.456   .     S
C163   O195    1.291   .     A
C164   O194    1.297   .     A
C164   C167    1.456   .     S
C164   O196    1.291   .     A
C165   H197    1.085   .     S
C165   C167    1.403   .     A
C165   C175    1.390   .     A
C166   H198    1.085   .     S
C166   C168    1.403   .     A
C166   C176    1.390   .     A
C167   C169    1.401   .     A
C168   C170    1.401   .     A
C169   H181    1.085   .     S
C169   C171    1.393   .     A
C170   H182    1.085   .     S
C170   C172    1.393   .     A
C171   C177    1.401   .     A
C171   C173    1.413   .     A
C172   C174    1.413   .     A
C172   C178    1.401   .     A
C173   C175    1.410   .     A
C173   C122    1.400   1_655 S
C174   C176    1.410   .     A
C177   H199    1.084   .     S
C177   C107    1.393   1_655 S
C178   H200    1.084   .     S
Cu179  O189    1.973   .     S
Cu179  Cu180   2.683   .     S
Cu179  N188    2.016   .     S
Cu179  O192    1.962   .     S
Cu179  O196    1.957   .     S
Cu179  O193    1.968   .     S
Cu180  O194    1.968   .     S
Cu180  N187    2.016   .     S
Cu180  O191    1.962   .     S
Cu180  O195    1.957   .     S
Cu180  O190    1.973   .     S
H185   N499    1.029   .     S
H186   N812    1.029   1_554 S
N187   H809    1.029   1_554 S
N187   N812    1.296   1_554 S
N188   N499    1.296   .     S
N188   H498    1.029   .     S
C201   H203    1.110   .     S
C201   H204    1.111   .     S
C201   C265    1.522   .     S
C201   H306    1.111   .     S
C205   H208    1.110   .     S
C205   H207    1.111   .     S
H206   C309    1.111   .     S
C209   O241    1.284   .     A
C209   C213    1.429   .     S
C209   O243    1.287   .     A
C210   O242    1.284   .     A
C210   C214    1.429   .     S
C210   O244    1.287   .     A
C211   H235    1.084   .     S
C211   C228    1.402   .     A
C211   C281    1.393   1_455 S
C212   H236    1.084   .     S
C212   C227    1.402   .     A
C212   C282    1.393   .     S
C214   C5      1.355   1_565 S
C214   C49     1.522   1_565 S
C215   O245    1.297   .     A
C215   C220    1.456   .     S
C215   O247    1.291   .     A
C216   O246    1.297   .     A
C216   C219    1.456   .     S
C216   O248    1.291   .     A
C217   H249    1.085   .     S
C217   C219    1.403   .     A
C217   C227    1.390   .     A
C218   H250    1.085   .     S
C218   C220    1.403   .     A
C218   C228    1.390   .     A
C219   C221    1.401   .     A
C220   C222    1.401   .     A
C221   H233    1.085   .     S
C221   C223    1.393   .     A
C222   H234    1.085   .     S
C222   C224    1.393   .     A
C223   C229    1.401   .     A
C223   C225    1.413   .     A
C224   C226    1.413   .     A
C224   C230    1.401   .     A
C225   C227    1.410   .     A
C225   C278    1.400   .     S
C226   C228    1.410   .     A
C226   C277    1.400   1_455 S
C229   H251    1.084   .     S
C229   C263    1.393   .     S
C230   H252    1.084   .     S
C230   C264    1.393   1_455 S
Cu231  O241    1.973   .     S
Cu231  Cu232   2.683   .     S
Cu231  N240    2.016   .     S
Cu231  O244    1.962   .     S
Cu231  O248    1.957   .     S
Cu231  O245    1.968   .     S
Cu232  O246    1.968   .     S
Cu232  N239    2.016   .     S
Cu232  O243    1.962   .     S
Cu232  O247    1.957   .     S
Cu232  O242    1.973   .     S
H237   N551    1.029   .     S
H238   N864    1.029   1_554 S
N239   H861    1.029   1_554 S
N239   N864    1.296   1_554 S
N240   N551    1.296   .     S
N240   H550    1.029   .     S
C253   H255    1.110   .     S
C253   H256    1.111   .     S
C253   C5      1.522   1_565 S
C253   H46     1.111   1_565 S
C257   H260    1.110   .     S
C257   H259    1.111   .     S
H258   C49     1.111   1_565 S
C261   O293    1.284   .     A
C261   C265    1.429   .     S
C261   O295    1.287   .     A
C262   O294    1.284   .     A
C262   C266    1.429   .     S
C262   O296    1.287   .     A
C263   H287    1.084   .     S
C263   C280    1.402   .     A
C264   H288    1.084   .     S
C264   C279    1.402   .     A
C264   C230    1.393   1_655 S
C266   C57     1.355   1_565 S
C266   C101    1.522   1_565 S
C267   O297    1.297   .     A
C267   C272    1.456   .     S
C267   O299    1.291   .     A
C268   O298    1.297   .     A
C268   C271    1.456   .     S
C268   O300    1.291   .     A
C269   H301    1.085   .     S
C269   C271    1.403   .     A
C269   C279    1.390   .     A
C270   H302    1.085   .     S
C270   C272    1.403   .     A
C270   C280    1.390   .     A
C271   C273    1.401   .     A
C272   C274    1.401   .     A
C273   H285    1.085   .     S
C273   C275    1.393   .     A
C274   H286    1.085   .     S
C274   C276    1.393   .     A
C275   C281    1.401   .     A
C275   C277    1.413   .     A
C276   C278    1.413   .     A
C276   C282    1.401   .     A
C277   C279    1.410   .     A
C277   C226    1.400   1_655 S
C278   C280    1.410   .     A
C281   H303    1.084   .     S
C281   C211    1.393   1_655 S
C282   H304    1.084   .     S
Cu283  O293    1.973   .     S
Cu283  Cu284   2.683   .     S
Cu283  N292    2.016   .     S
Cu283  O296    1.962   .     S
Cu283  O300    1.957   .     S
Cu283  O297    1.968   .     S
Cu284  O298    1.968   .     S
Cu284  N291    2.016   .     S
Cu284  O295    1.962   .     S
Cu284  O299    1.957   .     S
Cu284  O294    1.973   .     S
H289   N603    1.029   .     S
H290   N916    1.029   1_554 S
N291   H913    1.029   1_554 S
N291   N916    1.296   1_554 S
N292   N603    1.296   .     S
N292   H602    1.029   .     S
C305   H307    1.110   .     S
C305   H308    1.111   .     S
C305   C57     1.522   1_565 S
C305   H98     1.111   1_565 S
C309   H312    1.110   .     S
C309   H311    1.111   .     S
H310   C101    1.111   1_565 S
C313   O345    1.284   .     A
C313   C317    1.429   .     S
C313   O347    1.287   .     A
C314   O346    1.284   .     A
C314   C318    1.429   .     S
C314   O348    1.287   .     A
C315   H339    1.084   .     S
C315   C332    1.402   .     A
C315   C385    1.393   1_455 S
C316   H340    1.084   .     S
C316   C331    1.402   .     A
C316   C386    1.393   .     S
C317   C526    1.355   1_545 S
C317   C565    1.522   1_545 S
C318   C421    1.355   .     S
C318   C465    1.522   .     S
C319   O349    1.297   .     A
C319   C324    1.456   .     S
C319   O351    1.291   .     A
C320   O350    1.297   .     A
C320   C323    1.456   .     S
C320   O352    1.291   .     A
C321   H353    1.085   .     S
C321   C323    1.403   .     A
C321   C331    1.390   .     A
C322   H354    1.085   .     S
C322   C324    1.403   .     A
C322   C332    1.390   .     A
C323   C325    1.401   .     A
C324   C326    1.401   .     A
C325   H337    1.085   .     S
C325   C327    1.393   .     A
C326   H338    1.085   .     S
C326   C328    1.393   .     A
C327   C333    1.401   .     A
C327   C329    1.413   .     A
C328   C330    1.413   .     A
C328   C334    1.401   .     A
C329   C331    1.410   .     A
C329   C382    1.400   .     S
C330   C332    1.410   .     A
C330   C381    1.400   1_455 S
C333   H355    1.084   .     S
C333   C367    1.393   .     S
C334   H356    1.084   .     S
C334   C368    1.393   1_455 S
Cu335  O345    1.973   .     S
Cu335  Cu336   2.683   .     S
Cu335  N344    2.016   .     S
Cu335  O348    1.962   .     S
Cu335  O352    1.957   .     S
Cu335  O349    1.968   .     S
Cu336  O350    1.968   .     S
Cu336  N343    2.016   .     S
Cu336  O347    1.962   .     S
Cu336  O351    1.957   .     S
Cu336  O346    1.973   .     S
H341   N655    1.029   .     S
N344   N655    1.296   .     S
N344   H654    1.029   .     S
C357   H359    1.110   .     S
C357   H360    1.111   .     S
C357   C421    1.522   .     S
C357   H462    1.111   .     S
H358   C565    1.111   1_545 S
C361   H364    1.110   .     S
C361   H363    1.111   .     S
C361   C526    1.522   1_545 S
C361   H570    1.111   1_545 S
H362   C465    1.111   .     S
C365   O397    1.284   .     A
C365   C369    1.429   .     S
C365   O399    1.287   .     A
C366   O398    1.284   .     A
C366   C370    1.429   .     S
C366   O400    1.287   .     A
C367   H391    1.084   .     S
C367   C384    1.402   .     A
C368   H392    1.084   .     S
C368   C383    1.402   .     A
C368   C334    1.393   1_655 S
C369   C578    1.355   1_545 S
C369   C617    1.522   1_545 S
C370   C473    1.355   .     S
C370   C517    1.522   .     S
C371   O401    1.297   .     A
C371   C376    1.456   .     S
C371   O403    1.291   .     A
C372   O402    1.297   .     A
C372   C375    1.456   .     S
C372   O404    1.291   .     A
C373   H405    1.085   .     S
C373   C375    1.403   .     A
C373   C383    1.390   .     A
C374   H406    1.085   .     S
C374   C376    1.403   .     A
C374   C384    1.390   .     A
C375   C377    1.401   .     A
C376   C378    1.401   .     A
C377   H389    1.085   .     S
C377   C379    1.393   .     A
C378   H390    1.085   .     S
C378   C380    1.393   .     A
C379   C385    1.401   .     A
C379   C381    1.413   .     A
C380   C382    1.413   .     A
C380   C386    1.401   .     A
C381   C383    1.410   .     A
C381   C330    1.400   1_655 S
C382   C384    1.410   .     A
C385   H407    1.084   .     S
C385   C315    1.393   1_655 S
C386   H408    1.084   .     S
Cu387  O397    1.973   .     S
Cu387  Cu388   2.683   .     S
Cu387  N396    2.016   .     S
Cu387  O400    1.962   .     S
Cu387  O404    1.957   .     S
Cu387  O401    1.968   .     S
Cu388  O402    1.968   .     S
Cu388  N395    2.016   .     S
Cu388  O399    1.962   .     S
Cu388  O403    1.957   .     S
Cu388  O398    1.973   .     S
H393   N707    1.029   .     S
N396   N707    1.296   .     S
N396   H706    1.029   .     S
C409   H411    1.110   .     S
C409   H412    1.111   .     S
C409   C473    1.522   .     S
C409   H514    1.111   .     S
H410   C617    1.111   1_545 S
C413   H416    1.110   .     S
C413   H415    1.111   .     S
C413   C578    1.522   1_545 S
C413   H622    1.111   1_545 S
H414   C517    1.111   .     S
C417   O449    1.284   .     A
C417   C421    1.429   .     S
C417   O451    1.287   .     A
C418   O450    1.284   .     A
C418   C422    1.429   .     S
C418   O452    1.287   .     A
C419   H443    1.084   .     S
C419   C436    1.402   .     A
C419   C489    1.393   1_455 S
C420   H444    1.084   .     S
C420   C435    1.402   .     A
C420   C490    1.393   .     S
C422   C525    1.355   .     S
C422   C569    1.522   .     S
C423   O453    1.297   .     A
C423   C428    1.456   .     S
C423   O455    1.291   .     A
C424   O454    1.297   .     A
C424   C427    1.456   .     S
C424   O456    1.291   .     A
C425   H457    1.085   .     S
C425   C427    1.403   .     A
C425   C435    1.390   .     A
C426   H458    1.085   .     S
C426   C428    1.403   .     A
C426   C436    1.390   .     A
C427   C429    1.401   .     A
C428   C430    1.401   .     A
C429   H441    1.085   .     S
C429   C431    1.393   .     A
C430   H442    1.085   .     S
C430   C432    1.393   .     A
C431   C437    1.401   .     A
C431   C433    1.413   .     A
C432   C434    1.413   .     A
C432   C438    1.401   .     A
C433   C435    1.410   .     A
C433   C486    1.400   .     S
C434   C436    1.410   .     A
C434   C485    1.400   1_455 S
C437   H459    1.084   .     S
C437   C471    1.393   .     S
C438   H460    1.084   .     S
C438   C472    1.393   1_455 S
Cu439  O449    1.973   .     S
Cu439  Cu440   2.683   .     S
Cu439  N448    2.016   .     S
Cu439  O452    1.962   .     S
Cu439  O456    1.957   .     S
Cu439  O453    1.968   .     S
Cu440  O454    1.968   .     S
Cu440  N447    2.016   .     S
Cu440  O451    1.962   .     S
Cu440  O455    1.957   .     S
Cu440  O450    1.973   .     S
H445   N759    1.029   .     S
N448   N759    1.296   .     S
N448   H758    1.029   .     S
C461   H463    1.110   .     S
C461   H464    1.111   .     S
C461   C525    1.522   .     S
C461   H566    1.111   .     S
C465   H468    1.110   .     S
C465   H467    1.111   .     S
H466   C569    1.111   .     S
C469   O501    1.284   .     A
C469   C473    1.429   .     S
C469   O503    1.287   .     A
C470   O502    1.284   .     A
C470   C474    1.429   .     S
C470   O504    1.287   .     A
C471   H495    1.084   .     S
C471   C488    1.402   .     A
C472   H496    1.084   .     S
C472   C487    1.402   .     A
C472   C438    1.393   1_655 S
C474   C577    1.355   .     S
C474   C621    1.522   .     S
C475   O505    1.297   .     A
C475   C480    1.456   .     S
C475   O507    1.291   .     A
C476   O506    1.297   .     A
C476   C479    1.456   .     S
C476   O508    1.291   .     A
C477   H509    1.085   .     S
C477   C479    1.403   .     A
C477   C487    1.390   .     A
C478   H510    1.085   .     S
C478   C480    1.403   .     A
C478   C488    1.390   .     A
C479   C481    1.401   .     A
C480   C482    1.401   .     A
C481   H493    1.085   .     S
C481   C483    1.393   .     A
C482   H494    1.085   .     S
C482   C484    1.393   .     A
C483   C489    1.401   .     A
C483   C485    1.413   .     A
C484   C486    1.413   .     A
C484   C490    1.401   .     A
C485   C487    1.410   .     A
C485   C434    1.400   1_655 S
C486   C488    1.410   .     A
C489   H511    1.084   .     S
C489   C419    1.393   1_655 S
C490   H512    1.084   .     S
Cu491  O501    1.973   .     S
Cu491  Cu492   2.683   .     S
Cu491  N500    2.016   .     S
Cu491  O504    1.962   .     S
Cu491  O508    1.957   .     S
Cu491  O505    1.968   .     S
Cu492  O506    1.968   .     S
Cu492  N499    2.016   .     S
Cu492  O503    1.962   .     S
Cu492  O507    1.957   .     S
Cu492  O502    1.973   .     S
H497   N811    1.029   .     S
N500   N811    1.296   .     S
N500   H810    1.029   .     S
C513   H515    1.110   .     S
C513   H516    1.111   .     S
C513   C577    1.522   .     S
C513   H618    1.111   .     S
C517   H520    1.110   .     S
C517   H519    1.111   .     S
H518   C621    1.111   .     S
C521   O553    1.284   .     A
C521   C525    1.429   .     S
C521   O555    1.287   .     A
C522   O554    1.284   .     A
C522   C526    1.429   .     S
C522   O556    1.287   .     A
C523   H547    1.084   .     S
C523   C540    1.402   .     A
C523   C593    1.393   1_455 S
C524   H548    1.084   .     S
C524   C539    1.402   .     A
C524   C594    1.393   .     S
C526   C317    1.355   1_565 S
C526   C361    1.522   1_565 S
C527   O557    1.297   .     A
C527   C532    1.456   .     S
C527   O559    1.291   .     A
C528   O558    1.297   .     A
C528   C531    1.456   .     S
C528   O560    1.291   .     A
C529   H561    1.085   .     S
C529   C531    1.403   .     A
C529   C539    1.390   .     A
C530   H562    1.085   .     S
C530   C532    1.403   .     A
C530   C540    1.390   .     A
C531   C533    1.401   .     A
C532   C534    1.401   .     A
C533   H545    1.085   .     S
C533   C535    1.393   .     A
C534   H546    1.085   .     S
C534   C536    1.393   .     A
C535   C541    1.401   .     A
C535   C537    1.413   .     A
C536   C538    1.413   .     A
C536   C542    1.401   .     A
C537   C539    1.410   .     A
C537   C590    1.400   .     S
C538   C540    1.410   .     A
C538   C589    1.400   1_455 S
C541   H563    1.084   .     S
C541   C575    1.393   .     S
C542   H564    1.084   .     S
C542   C576    1.393   1_455 S
Cu543  O553    1.973   .     S
Cu543  Cu544   2.683   .     S
Cu543  N552    2.016   .     S
Cu543  O556    1.962   .     S
Cu543  O560    1.957   .     S
Cu543  O557    1.968   .     S
Cu544  O558    1.968   .     S
Cu544  N551    2.016   .     S
Cu544  O555    1.962   .     S
Cu544  O559    1.957   .     S
Cu544  O554    1.973   .     S
H549   N863    1.029   .     S
N552   N863    1.296   .     S
N552   H862    1.029   .     S
C565   H567    1.110   .     S
C565   H568    1.111   .     S
C565   C317    1.522   1_565 S
C565   H358    1.111   1_565 S
C569   H572    1.110   .     S
C569   H571    1.111   .     S
H570   C361    1.111   1_565 S
C573   O605    1.284   .     A
C573   C577    1.429   .     S
C573   O607    1.287   .     A
C574   O606    1.284   .     A
C574   C578    1.429   .     S
C574   O608    1.287   .     A
C575   H599    1.084   .     S
C575   C592    1.402   .     A
C576   H600    1.084   .     S
C576   C591    1.402   .     A
C576   C542    1.393   1_655 S
C578   C369    1.355   1_565 S
C578   C413    1.522   1_565 S
C579   O609    1.297   .     A
C579   C584    1.456   .     S
C579   O611    1.291   .     A
C580   O610    1.297   .     A
C580   C583    1.456   .     S
C580   O612    1.291   .     A
C581   H613    1.085   .     S
C581   C583    1.403   .     A
C581   C591    1.390   .     A
C582   H614    1.085   .     S
C582   C584    1.403   .     A
C582   C592    1.390   .     A
C583   C585    1.401   .     A
C584   C586    1.401   .     A
C585   H597    1.085   .     S
C585   C587    1.393   .     A
C586   H598    1.085   .     S
C586   C588    1.393   .     A
C587   C593    1.401   .     A
C587   C589    1.413   .     A
C588   C590    1.413   .     A
C588   C594    1.401   .     A
C589   C591    1.410   .     A
C589   C538    1.400   1_655 S
C590   C592    1.410   .     A
C593   H615    1.084   .     S
C593   C523    1.393   1_655 S
C594   H616    1.084   .     S
Cu595  O605    1.973   .     S
Cu595  Cu596   2.683   .     S
Cu595  N604    2.016   .     S
Cu595  O608    1.962   .     S
Cu595  O612    1.957   .     S
Cu595  O609    1.968   .     S
Cu596  O610    1.968   .     S
Cu596  N603    2.016   .     S
Cu596  O607    1.962   .     S
Cu596  O611    1.957   .     S
Cu596  O606    1.973   .     S
H601   N915    1.029   .     S
N604   N915    1.296   .     S
N604   H914    1.029   .     S
C617   H619    1.110   .     S
C617   H620    1.111   .     S
C617   C369    1.522   1_565 S
C617   H410    1.111   1_565 S
C621   H624    1.110   .     S
C621   H623    1.111   .     S
H622   C413    1.111   1_565 S
C625   O657    1.284   .     A
C625   C629    1.429   .     S
C625   O659    1.287   .     A
C626   O658    1.284   .     A
C626   C630    1.429   .     S
C626   O660    1.287   .     A
C627   H651    1.084   .     S
C627   C644    1.402   .     A
C627   C697    1.393   1_455 S
C628   H652    1.084   .     S
C628   C643    1.402   .     A
C628   C698    1.393   .     S
C629   C838    1.355   1_545 S
C629   C877    1.522   1_545 S
C630   C733    1.355   .     S
C630   C777    1.522   .     S
C631   O661    1.297   .     A
C631   C636    1.456   .     S
C631   O663    1.291   .     A
C632   O662    1.297   .     A
C632   C635    1.456   .     S
C632   O664    1.291   .     A
C633   H665    1.085   .     S
C633   C635    1.403   .     A
C633   C643    1.390   .     A
C634   H666    1.085   .     S
C634   C636    1.403   .     A
C634   C644    1.390   .     A
C635   C637    1.401   .     A
C636   C638    1.401   .     A
C637   H649    1.085   .     S
C637   C639    1.393   .     A
C638   H650    1.085   .     S
C638   C640    1.393   .     A
C639   C645    1.401   .     A
C639   C641    1.413   .     A
C640   C642    1.413   .     A
C640   C646    1.401   .     A
C641   C643    1.410   .     A
C641   C694    1.400   .     S
C642   C644    1.410   .     A
C642   C693    1.400   1_455 S
C645   H667    1.084   .     S
C645   C679    1.393   .     S
C646   H668    1.084   .     S
C646   C680    1.393   1_455 S
Cu647  O657    1.973   .     S
Cu647  Cu648   2.683   .     S
Cu647  N656    2.016   .     S
Cu647  O660    1.962   .     S
Cu647  O664    1.957   .     S
Cu647  O661    1.968   .     S
Cu648  O662    1.968   .     S
Cu648  N655    2.016   .     S
Cu648  O659    1.962   .     S
Cu648  O663    1.957   .     S
Cu648  O658    1.973   .     S
H653   N31     1.029   1_556 S
N656   N31     1.296   1_556 S
N656   H30     1.029   1_556 S
C669   H671    1.110   .     S
C669   H672    1.111   .     S
C669   C733    1.522   .     S
C669   H774    1.111   .     S
H670   C877    1.111   1_545 S
C673   H676    1.110   .     S
C673   H675    1.111   .     S
C673   C838    1.522   1_545 S
C673   H882    1.111   1_545 S
H674   C777    1.111   .     S
C677   O709    1.284   .     A
C677   C681    1.429   .     S
C677   O711    1.287   .     A
C678   O710    1.284   .     A
C678   C682    1.429   .     S
C678   O712    1.287   .     A
C679   H703    1.084   .     S
C679   C696    1.402   .     A
C680   H704    1.084   .     S
C680   C695    1.402   .     A
C680   C646    1.393   1_655 S
C681   C890    1.355   1_545 S
C681   C929    1.522   1_545 S
C682   C785    1.355   .     S
C682   C829    1.522   .     S
C683   O713    1.297   .     A
C683   C688    1.456   .     S
C683   O715    1.291   .     A
C684   O714    1.297   .     A
C684   C687    1.456   .     S
C684   O716    1.291   .     A
C685   H717    1.085   .     S
C685   C687    1.403   .     A
C685   C695    1.390   .     A
C686   H718    1.085   .     S
C686   C688    1.403   .     A
C686   C696    1.390   .     A
C687   C689    1.401   .     A
C688   C690    1.401   .     A
C689   H701    1.085   .     S
C689   C691    1.393   .     A
C690   H702    1.085   .     S
C690   C692    1.393   .     A
C691   C697    1.401   .     A
C691   C693    1.413   .     A
C692   C694    1.413   .     A
C692   C698    1.401   .     A
C693   C695    1.410   .     A
C693   C642    1.400   1_655 S
C694   C696    1.410   .     A
C697   H719    1.084   .     S
C697   C627    1.393   1_655 S
C698   H720    1.084   .     S
Cu699  O709    1.973   .     S
Cu699  Cu700   2.683   .     S
Cu699  N708    2.016   .     S
Cu699  O712    1.962   .     S
Cu699  O716    1.957   .     S
Cu699  O713    1.968   .     S
Cu700  O714    1.968   .     S
Cu700  N707    2.016   .     S
Cu700  O711    1.962   .     S
Cu700  O715    1.957   .     S
Cu700  O710    1.973   .     S
H705   N83     1.029   1_556 S
N708   N83     1.296   1_556 S
N708   H82     1.029   1_556 S
C721   H723    1.110   .     S
C721   H724    1.111   .     S
C721   C785    1.522   .     S
C721   H826    1.111   .     S
H722   C929    1.111   1_545 S
C725   H728    1.110   .     S
C725   H727    1.111   .     S
C725   C890    1.522   1_545 S
C725   H934    1.111   1_545 S
H726   C829    1.111   .     S
C729   O761    1.284   .     A
C729   C733    1.429   .     S
C729   O763    1.287   .     A
C730   O762    1.284   .     A
C730   C734    1.429   .     S
C730   O764    1.287   .     A
C731   H755    1.084   .     S
C731   C748    1.402   .     A
C731   C801    1.393   1_455 S
C732   H756    1.084   .     S
C732   C747    1.402   .     A
C732   C802    1.393   .     S
C734   C837    1.355   .     S
C734   C881    1.522   .     S
C735   O765    1.297   .     A
C735   C740    1.456   .     S
C735   O767    1.291   .     A
C736   O766    1.297   .     A
C736   C739    1.456   .     S
C736   O768    1.291   .     A
C737   H769    1.085   .     S
C737   C739    1.403   .     A
C737   C747    1.390   .     A
C738   H770    1.085   .     S
C738   C740    1.403   .     A
C738   C748    1.390   .     A
C739   C741    1.401   .     A
C740   C742    1.401   .     A
C741   H753    1.085   .     S
C741   C743    1.393   .     A
C742   H754    1.085   .     S
C742   C744    1.393   .     A
C743   C749    1.401   .     A
C743   C745    1.413   .     A
C744   C746    1.413   .     A
C744   C750    1.401   .     A
C745   C747    1.410   .     A
C745   C798    1.400   .     S
C746   C748    1.410   .     A
C746   C797    1.400   1_455 S
C749   H771    1.084   .     S
C749   C783    1.393   .     S
C750   H772    1.084   .     S
C750   C784    1.393   1_455 S
Cu751  O761    1.973   .     S
Cu751  Cu752   2.683   .     S
Cu751  N760    2.016   .     S
Cu751  O764    1.962   .     S
Cu751  O768    1.957   .     S
Cu751  O765    1.968   .     S
Cu752  O766    1.968   .     S
Cu752  N759    2.016   .     S
Cu752  O763    1.962   .     S
Cu752  O767    1.957   .     S
Cu752  O762    1.973   .     S
H757   N135    1.029   1_556 S
N760   N135    1.296   1_556 S
N760   H134    1.029   1_556 S
C773   H775    1.110   .     S
C773   H776    1.111   .     S
C773   C837    1.522   .     S
C773   H878    1.111   .     S
C777   H780    1.110   .     S
C777   H779    1.111   .     S
H778   C881    1.111   .     S
C781   O813    1.284   .     A
C781   C785    1.429   .     S
C781   O815    1.287   .     A
C782   O814    1.284   .     A
C782   C786    1.429   .     S
C782   O816    1.287   .     A
C783   H807    1.084   .     S
C783   C800    1.402   .     A
C784   H808    1.084   .     S
C784   C799    1.402   .     A
C784   C750    1.393   1_655 S
C786   C889    1.355   .     S
C786   C933    1.522   .     S
C787   O817    1.297   .     A
C787   C792    1.456   .     S
C787   O819    1.291   .     A
C788   O818    1.297   .     A
C788   C791    1.456   .     S
C788   O820    1.291   .     A
C789   H821    1.085   .     S
C789   C791    1.403   .     A
C789   C799    1.390   .     A
C790   H822    1.085   .     S
C790   C792    1.403   .     A
C790   C800    1.390   .     A
C791   C793    1.401   .     A
C792   C794    1.401   .     A
C793   H805    1.085   .     S
C793   C795    1.393   .     A
C794   H806    1.085   .     S
C794   C796    1.393   .     A
C795   C801    1.401   .     A
C795   C797    1.413   .     A
C796   C798    1.413   .     A
C796   C802    1.401   .     A
C797   C799    1.410   .     A
C797   C746    1.400   1_655 S
C798   C800    1.410   .     A
C801   H823    1.084   .     S
C801   C731    1.393   1_655 S
C802   H824    1.084   .     S
Cu803  O813    1.973   .     S
Cu803  Cu804   2.683   .     S
Cu803  N812    2.016   .     S
Cu803  O816    1.962   .     S
Cu803  O820    1.957   .     S
Cu803  O817    1.968   .     S
Cu804  O818    1.968   .     S
Cu804  N811    2.016   .     S
Cu804  O815    1.962   .     S
Cu804  O819    1.957   .     S
Cu804  O814    1.973   .     S
H809   N187    1.029   1_556 S
N812   N187    1.296   1_556 S
N812   H186    1.029   1_556 S
C825   H827    1.110   .     S
C825   H828    1.111   .     S
C825   C889    1.522   .     S
C825   H930    1.111   .     S
C829   H832    1.110   .     S
C829   H831    1.111   .     S
H830   C933    1.111   .     S
C833   O865    1.284   .     A
C833   C837    1.429   .     S
C833   O867    1.287   .     A
C834   O866    1.284   .     A
C834   C838    1.429   .     S
C834   O868    1.287   .     A
C835   H859    1.084   .     S
C835   C852    1.402   .     A
C835   C905    1.393   1_455 S
C836   H860    1.084   .     S
C836   C851    1.402   .     A
C836   C906    1.393   .     S
C838   C629    1.355   1_565 S
C838   C673    1.522   1_565 S
C839   O869    1.297   .     A
C839   C844    1.456   .     S
C839   O871    1.291   .     A
C840   O870    1.297   .     A
C840   C843    1.456   .     S
C840   O872    1.291   .     A
C841   H873    1.085   .     S
C841   C843    1.403   .     A
C841   C851    1.390   .     A
C842   H874    1.085   .     S
C842   C844    1.403   .     A
C842   C852    1.390   .     A
C843   C845    1.401   .     A
C844   C846    1.401   .     A
C845   H857    1.085   .     S
C845   C847    1.393   .     A
C846   H858    1.085   .     S
C846   C848    1.393   .     A
C847   C853    1.401   .     A
C847   C849    1.413   .     A
C848   C850    1.413   .     A
C848   C854    1.401   .     A
C849   C851    1.410   .     A
C849   C902    1.400   .     S
C850   C852    1.410   .     A
C850   C901    1.400   1_455 S
C853   H875    1.084   .     S
C853   C887    1.393   .     S
C854   H876    1.084   .     S
C854   C888    1.393   1_455 S
Cu855  O865    1.973   .     S
Cu855  Cu856   2.683   .     S
Cu855  N864    2.016   .     S
Cu855  O868    1.962   .     S
Cu855  O872    1.957   .     S
Cu855  O869    1.968   .     S
Cu856  O870    1.968   .     S
Cu856  N863    2.016   .     S
Cu856  O867    1.962   .     S
Cu856  O871    1.957   .     S
Cu856  O866    1.973   .     S
H861   N239    1.029   1_556 S
N864   N239    1.296   1_556 S
N864   H238    1.029   1_556 S
C877   H879    1.110   .     S
C877   H880    1.111   .     S
C877   C629    1.522   1_565 S
C877   H670    1.111   1_565 S
C881   H884    1.110   .     S
C881   H883    1.111   .     S
H882   C673    1.111   1_565 S
C885   O917    1.284   .     A
C885   C889    1.429   .     S
C885   O919    1.287   .     A
C886   O918    1.284   .     A
C886   C890    1.429   .     S
C886   O920    1.287   .     A
C887   H911    1.084   .     S
C887   C904    1.402   .     A
C888   H912    1.084   .     S
C888   C903    1.402   .     A
C888   C854    1.393   1_655 S
C890   C681    1.355   1_565 S
C890   C725    1.522   1_565 S
C891   O921    1.297   .     A
C891   C896    1.456   .     S
C891   O923    1.291   .     A
C892   O922    1.297   .     A
C892   C895    1.456   .     S
C892   O924    1.291   .     A
C893   H925    1.085   .     S
C893   C895    1.403   .     A
C893   C903    1.390   .     A
C894   H926    1.085   .     S
C894   C896    1.403   .     A
C894   C904    1.390   .     A
C895   C897    1.401   .     A
C896   C898    1.401   .     A
C897   H909    1.085   .     S
C897   C899    1.393   .     A
C898   H910    1.085   .     S
C898   C900    1.393   .     A
C899   C905    1.401   .     A
C899   C901    1.413   .     A
C900   C902    1.413   .     A
C900   C906    1.401   .     A
C901   C903    1.410   .     A
C901   C850    1.400   1_655 S
C902   C904    1.410   .     A
C905   H927    1.084   .     S
C905   C835    1.393   1_655 S
C906   H928    1.084   .     S
Cu907  O917    1.973   .     S
Cu907  Cu908   2.683   .     S
Cu907  N916    2.016   .     S
Cu907  O920    1.962   .     S
Cu907  O924    1.957   .     S
Cu907  O921    1.968   .     S
Cu908  O922    1.968   .     S
Cu908  N915    2.016   .     S
Cu908  O919    1.962   .     S
Cu908  O923    1.957   .     S
Cu908  O918    1.973   .     S
H913   N291    1.029   1_556 S
N916   N291    1.296   1_556 S
N916   H290    1.029   1_556 S
C929   H931    1.110   .     S
C929   H932    1.111   .     S
C929   C681    1.522   1_565 S
C929   H722    1.111   1_565 S
C933   H936    1.110   .     S
C933   H935    1.111   .     S
H934   C725    1.111   1_565 S
