data_str_m2_o1_o18_pcu_sym.188
_audit_creation_date              2020-01-03
_audit_creation_method            'Materials Studio'
_symmetry_space_group_name_H-M    'P1'
_symmetry_Int_Tables_number       1
_symmetry_cell_setting            triclinic
loop_
_symmetry_equiv_pos_as_xyz
  x,y,z
_cell_length_a                    28.4547
_cell_length_b                    32.5964
_cell_length_c                    31.0481
_cell_angle_alpha                 89.5109
_cell_angle_beta                  74.2973
_cell_angle_gamma                 89.1574
loop_
_atom_site_label
_atom_site_type_symbol
_atom_site_fract_x
_atom_site_fract_y
_atom_site_fract_z
_atom_site_U_iso_or_equiv
_atom_site_adp_type
_atom_site_occupancy
C1     C     0.00032   0.08734   0.25035   0.00000  Uiso   1.00
C2     C     0.33278   0.24599   0.25032   0.00000  Uiso   1.00
C3     C     0.18798   0.19472   0.04251   0.00000  Uiso   1.00
C4     C     0.14067   0.15428   0.45171   0.00000  Uiso   1.00
C5     C     0.23442   0.20667   0.01876   0.00000  Uiso   1.00
C6     C     0.09105   0.15194   0.47364   0.00000  Uiso   1.00
C7     C     0.29551   0.02267   0.24053   0.00000  Uiso   1.00
C8     C     0.03670   0.31064   0.26194   0.00000  Uiso   1.00
C9     C     0.29321   0.31353   0.24140   0.00000  Uiso   1.00
C10    C     0.03872   0.01982   0.26155   0.00000  Uiso   1.00
C11    C     0.33151   0.29059   0.25131   0.00000  Uiso   1.00
C12    C     0.00100   0.04274   0.25062   0.00000  Uiso   1.00
C13    C     0.18328   0.14227   0.27910   0.00000  Uiso   1.00
C14    C     0.15000   0.19125   0.22110   0.00000  Uiso   1.00
C15    C     0.13359   0.14231   0.27910   0.00000  Uiso   1.00
C16    C     0.19973   0.19106   0.22093   0.00000  Uiso   1.00
C17    C     0.30608   0.16707   0.33600   0.00000  Uiso   1.00
C18    C     0.02755   0.16471   0.16370   0.00000  Uiso   1.00
C19    C     0.29132   0.17252   0.38464   0.00000  Uiso   1.00
C20    C     0.04322   0.16104   0.11409   0.00000  Uiso   1.00
C21    C     0.29881   0.20943   0.44994   0.00000  Uiso   1.00
C22    C     0.02499   0.15530   0.04195   0.00000  Uiso   1.00
C23    C     0.31663   0.20045   0.40452   0.00000  Uiso   1.00
C24    C     0.00871   0.15887   0.08861   0.00000  Uiso   1.00
C25    C     0.24803   0.15428   0.41061   0.00000  Uiso   1.00
C26    C     0.09379   0.15939   0.09127   0.00000  Uiso   1.00
C27    C     0.22512   0.17078   0.45320   0.00000  Uiso   1.00
C28    C     0.10885   0.16383   0.04451   0.00000  Uiso   1.00
C29    C     0.25317   0.19520   0.47423   0.00000  Uiso   1.00
C30    C     0.07475   0.15713   0.01990   0.00000  Uiso   1.00
C31    C     0.17499   0.16457   0.47524   0.00000  Uiso   1.00
C32    C     0.15774   0.17310   0.02149   0.00000  Uiso   1.00
Cu33   Cu    0.04689   0.16667   0.25000   0.00000  Uiso   1.00
Cu34   Cu    0.28645   0.16666   0.25000   0.00000  Uiso   1.00
H35    H     0.25555   0.22537   0.03520   0.00000  Uiso   1.00
H36    H     0.06537   0.14567   0.45442   0.00000  Uiso   1.00
H37    H     0.31914   0.22988   0.46540   0.00000  Uiso   1.00
H38    H     0.33186   0.15141   0.02293   0.00000  Uiso   1.00
H39    H     0.26630   0.03995   0.23216   0.00000  Uiso   1.00
H40    H     0.06568   0.29332   0.27062   0.00000  Uiso   1.00
H41    H     0.19549   0.12264   0.30228   0.00000  Uiso   1.00
H42    H     0.13770   0.21115   0.19819   0.00000  Uiso   1.00
H43    H     0.10822   0.12278   0.30232   0.00000  Uiso   1.00
H44    H     0.22510   0.21059   0.19772   0.00000  Uiso   1.00
N45    N     0.11736   0.16668   0.24999   0.00000  Uiso   1.00
N46    N     0.21597   0.16666   0.25001   0.00000  Uiso   1.00
O47    O     0.03958   0.10655   0.25000   0.00000  Uiso   1.00
O48    O     0.29375   0.22678   0.25000   0.00000  Uiso   1.00
O49    O     0.29372   0.10654   0.25000   0.00000  Uiso   1.00
O50    O     0.03961   0.22679   0.24999   0.00000  Uiso   1.00
O51    O     0.01852   0.16668   0.31491   0.00000  Uiso   1.00
O52    O     0.31481   0.16666   0.18508   0.00000  Uiso   1.00
O53    O     0.27267   0.16667   0.31492   0.00000  Uiso   1.00
O54    O     0.06067   0.16667   0.18508   0.00000  Uiso   1.00
N55    N     0.12928   0.14476   0.11275   0.00000  Uiso   1.00
H56    H     0.13763   0.16349   0.13606   0.00000  Uiso   1.00
C57    C     0.12764   0.10130   0.12269   0.00000  Uiso   1.00
H58    H     0.15859   0.09249   0.13629   0.00000  Uiso   1.00
H59    H     0.13080   0.08345   0.09168   0.00000  Uiso   1.00
H60    H     0.09294   0.09352   0.14775   0.00000  Uiso   1.00
N61    N     0.23041   0.11723   0.39628   0.00000  Uiso   1.00
H62    H     0.24213   0.11055   0.36274   0.00000  Uiso   1.00
C63    C     0.23391   0.08138   0.42317   0.00000  Uiso   1.00
H64    H     0.21789   0.05464   0.41060   0.00000  Uiso   1.00
H65    H     0.21350   0.08619   0.45869   0.00000  Uiso   1.00
H66    H     0.27281   0.07429   0.42099   0.00000  Uiso   1.00
N67    N     0.29099   0.15841   0.10959   0.00000  Uiso   1.00
H68    H     0.27054   0.17470   0.09233   0.00000  Uiso   1.00
C69    C     0.27162   0.11794   0.12216   0.00000  Uiso   1.00
H70    H     0.27228   0.09985   0.09181   0.00000  Uiso   1.00
H71    H     0.23338   0.12091   0.14307   0.00000  Uiso   1.00
H72    H     0.29309   0.10139   0.14208   0.00000  Uiso   1.00
N73    N     0.02405   0.22236   0.37810   0.00000  Uiso   1.00
H74    H     0.02099   0.25363   0.38322   0.00000  Uiso   1.00
C75    C     0.07109   0.20655   0.38021   0.00000  Uiso   1.00
H76    H     0.07697   0.21350   0.41329   0.00000  Uiso   1.00
H77    H     0.10025   0.22147   0.35384   0.00000  Uiso   1.00
H78    H     0.07372   0.17290   0.37443   0.00000  Uiso   1.00
H79    H     0.17456   0.20589   0.07635   0.00000  Uiso   1.00
H80    H     0.15100   0.15127   0.41573   0.00000  Uiso   1.00
N81    N     0.25262   0.29446   0.23163   0.00000  Uiso   1.00
H82    H     0.24373   0.30720   0.20427   0.00000  Uiso   1.00
C83    C     0.21028   0.29129   0.26981   0.00000  Uiso   1.00
H84    H     0.21962   0.27400   0.29743   0.00000  Uiso   1.00
H85    H     0.19628   0.32234   0.28181   0.00000  Uiso   1.00
H86    H     0.18096   0.27470   0.26006   0.00000  Uiso   1.00
N87    N     0.07792   0.03898   0.27363   0.00000  Uiso   1.00
H88    H     0.08337   0.02744   0.30297   0.00000  Uiso   1.00
C89    C     0.12294   0.03981   0.23812   0.00000  Uiso   1.00
H90    H     0.13651   0.00810   0.22867   0.00000  Uiso   1.00
H91    H     0.15115   0.05635   0.24958   0.00000  Uiso   1.00
H92    H     0.11717   0.05600   0.20839   0.00000  Uiso   1.00
C93    C     0.33366   0.08734   0.25035   0.00000  Uiso   1.00
C94    C     0.66611   0.24599   0.25032   0.00000  Uiso   1.00
C95    C     0.52132   0.19472   0.04251   0.00000  Uiso   1.00
C96    C     0.47400   0.15428   0.45171   0.00000  Uiso   1.00
C97    C     0.56775   0.20667   0.01876   0.00000  Uiso   1.00
C98    C     0.42438   0.15194   0.47364   0.00000  Uiso   1.00
C99    C     0.62884   0.02267   0.24053   0.00000  Uiso   1.00
C100   C     0.37003   0.31064   0.26194   0.00000  Uiso   1.00
C101   C     0.62654   0.31353   0.24140   0.00000  Uiso   1.00
C102   C     0.37205   0.01982   0.26155   0.00000  Uiso   1.00
C103   C     0.66484   0.29059   0.25131   0.00000  Uiso   1.00
C104   C     0.33433   0.04274   0.25062   0.00000  Uiso   1.00
C105   C     0.51661   0.14227   0.27910   0.00000  Uiso   1.00
C106   C     0.48333   0.19125   0.22110   0.00000  Uiso   1.00
C107   C     0.46693   0.14231   0.27910   0.00000  Uiso   1.00
C108   C     0.53307   0.19106   0.22093   0.00000  Uiso   1.00
C109   C     0.63941   0.16707   0.33600   0.00000  Uiso   1.00
C110   C     0.36088   0.16471   0.16370   0.00000  Uiso   1.00
C111   C     0.62466   0.17252   0.38464   0.00000  Uiso   1.00
C112   C     0.37656   0.16104   0.11409   0.00000  Uiso   1.00
C113   C     0.63215   0.20943   0.44994   0.00000  Uiso   1.00
C114   C     0.35832   0.15530   0.04195   0.00000  Uiso   1.00
C115   C     0.64996   0.20045   0.40452   0.00000  Uiso   1.00
C116   C     0.34205   0.15887   0.08861   0.00000  Uiso   1.00
C117   C     0.58136   0.15428   0.41061   0.00000  Uiso   1.00
C118   C     0.42712   0.15939   0.09127   0.00000  Uiso   1.00
C119   C     0.55845   0.17078   0.45320   0.00000  Uiso   1.00
C120   C     0.44218   0.16383   0.04451   0.00000  Uiso   1.00
C121   C     0.58651   0.19520   0.47423   0.00000  Uiso   1.00
C122   C     0.40808   0.15713   0.01990   0.00000  Uiso   1.00
C123   C     0.50832   0.16457   0.47524   0.00000  Uiso   1.00
C124   C     0.49107   0.17310   0.02149   0.00000  Uiso   1.00
Cu125  Cu    0.38022   0.16667   0.25000   0.00000  Uiso   1.00
Cu126  Cu    0.61978   0.16666   0.25000   0.00000  Uiso   1.00
H127   H     0.58888   0.22537   0.03520   0.00000  Uiso   1.00
H128   H     0.39870   0.14567   0.45442   0.00000  Uiso   1.00
H129   H     0.65248   0.22988   0.46540   0.00000  Uiso   1.00
H130   H     0.66520   0.15141   0.02293   0.00000  Uiso   1.00
H131   H     0.59963   0.03995   0.23216   0.00000  Uiso   1.00
H132   H     0.39902   0.29332   0.27062   0.00000  Uiso   1.00
H133   H     0.52882   0.12264   0.30228   0.00000  Uiso   1.00
H134   H     0.47104   0.21115   0.19819   0.00000  Uiso   1.00
H135   H     0.44156   0.12278   0.30232   0.00000  Uiso   1.00
H136   H     0.55843   0.21059   0.19772   0.00000  Uiso   1.00
N137   N     0.45069   0.16668   0.24999   0.00000  Uiso   1.00
N138   N     0.54931   0.16666   0.25001   0.00000  Uiso   1.00
O139   O     0.37291   0.10655   0.25000   0.00000  Uiso   1.00
O140   O     0.62709   0.22678   0.25000   0.00000  Uiso   1.00
O141   O     0.62706   0.10654   0.25000   0.00000  Uiso   1.00
O142   O     0.37294   0.22679   0.24999   0.00000  Uiso   1.00
O143   O     0.35186   0.16668   0.31491   0.00000  Uiso   1.00
O144   O     0.64814   0.16666   0.18508   0.00000  Uiso   1.00
O145   O     0.60600   0.16667   0.31492   0.00000  Uiso   1.00
O146   O     0.39400   0.16667   0.18508   0.00000  Uiso   1.00
N147   N     0.46261   0.14476   0.11275   0.00000  Uiso   1.00
H148   H     0.47097   0.16349   0.13606   0.00000  Uiso   1.00
C149   C     0.46097   0.10130   0.12269   0.00000  Uiso   1.00
H150   H     0.49193   0.09249   0.13629   0.00000  Uiso   1.00
H151   H     0.46413   0.08345   0.09168   0.00000  Uiso   1.00
H152   H     0.42627   0.09352   0.14775   0.00000  Uiso   1.00
N153   N     0.56374   0.11723   0.39628   0.00000  Uiso   1.00
H154   H     0.57547   0.11055   0.36274   0.00000  Uiso   1.00
C155   C     0.56724   0.08138   0.42317   0.00000  Uiso   1.00
H156   H     0.55122   0.05464   0.41060   0.00000  Uiso   1.00
H157   H     0.54683   0.08619   0.45869   0.00000  Uiso   1.00
H158   H     0.60614   0.07429   0.42099   0.00000  Uiso   1.00
N159   N     0.62432   0.15841   0.10959   0.00000  Uiso   1.00
H160   H     0.60387   0.17470   0.09233   0.00000  Uiso   1.00
C161   C     0.60495   0.11794   0.12216   0.00000  Uiso   1.00
H162   H     0.60562   0.09985   0.09181   0.00000  Uiso   1.00
H163   H     0.56672   0.12091   0.14307   0.00000  Uiso   1.00
H164   H     0.62642   0.10139   0.14208   0.00000  Uiso   1.00
N165   N     0.35738   0.22236   0.37810   0.00000  Uiso   1.00
H166   H     0.35433   0.25363   0.38322   0.00000  Uiso   1.00
C167   C     0.40442   0.20655   0.38021   0.00000  Uiso   1.00
H168   H     0.41030   0.21350   0.41329   0.00000  Uiso   1.00
H169   H     0.43358   0.22147   0.35384   0.00000  Uiso   1.00
H170   H     0.40706   0.17290   0.37443   0.00000  Uiso   1.00
H171   H     0.50789   0.20589   0.07635   0.00000  Uiso   1.00
H172   H     0.48433   0.15127   0.41573   0.00000  Uiso   1.00
N173   N     0.58595   0.29446   0.23163   0.00000  Uiso   1.00
H174   H     0.57706   0.30720   0.20427   0.00000  Uiso   1.00
C175   C     0.54361   0.29129   0.26981   0.00000  Uiso   1.00
H176   H     0.55295   0.27400   0.29743   0.00000  Uiso   1.00
H177   H     0.52962   0.32234   0.28181   0.00000  Uiso   1.00
H178   H     0.51430   0.27470   0.26006   0.00000  Uiso   1.00
N179   N     0.41125   0.03898   0.27363   0.00000  Uiso   1.00
H180   H     0.41670   0.02744   0.30297   0.00000  Uiso   1.00
C181   C     0.45628   0.03981   0.23812   0.00000  Uiso   1.00
H182   H     0.46985   0.00810   0.22867   0.00000  Uiso   1.00
H183   H     0.48448   0.05635   0.24958   0.00000  Uiso   1.00
H184   H     0.45050   0.05600   0.20839   0.00000  Uiso   1.00
C185   C     0.66699   0.08734   0.25035   0.00000  Uiso   1.00
C186   C     0.99944   0.24599   0.25032   0.00000  Uiso   1.00
C187   C     0.85465   0.19472   0.04251   0.00000  Uiso   1.00
C188   C     0.80733   0.15428   0.45171   0.00000  Uiso   1.00
C189   C     0.90109   0.20667   0.01876   0.00000  Uiso   1.00
C190   C     0.75772   0.15194   0.47364   0.00000  Uiso   1.00
C191   C     0.96217   0.02267   0.24053   0.00000  Uiso   1.00
C192   C     0.70336   0.31064   0.26194   0.00000  Uiso   1.00
C193   C     0.95987   0.31353   0.24140   0.00000  Uiso   1.00
C194   C     0.70539   0.01982   0.26155   0.00000  Uiso   1.00
C195   C     0.99818   0.29059   0.25131   0.00000  Uiso   1.00
C196   C     0.66767   0.04274   0.25062   0.00000  Uiso   1.00
C197   C     0.84994   0.14227   0.27910   0.00000  Uiso   1.00
C198   C     0.81667   0.19125   0.22110   0.00000  Uiso   1.00
C199   C     0.80026   0.14231   0.27910   0.00000  Uiso   1.00
C200   C     0.86640   0.19106   0.22093   0.00000  Uiso   1.00
C201   C     0.97275   0.16707   0.33600   0.00000  Uiso   1.00
C202   C     0.69422   0.16471   0.16370   0.00000  Uiso   1.00
C203   C     0.95799   0.17252   0.38464   0.00000  Uiso   1.00
C204   C     0.70989   0.16104   0.11409   0.00000  Uiso   1.00
C205   C     0.96548   0.20943   0.44994   0.00000  Uiso   1.00
C206   C     0.69165   0.15530   0.04195   0.00000  Uiso   1.00
C207   C     0.98330   0.20045   0.40452   0.00000  Uiso   1.00
C208   C     0.67538   0.15887   0.08861   0.00000  Uiso   1.00
C209   C     0.91469   0.15428   0.41061   0.00000  Uiso   1.00
C210   C     0.76046   0.15939   0.09127   0.00000  Uiso   1.00
C211   C     0.89178   0.17078   0.45320   0.00000  Uiso   1.00
C212   C     0.77551   0.16383   0.04451   0.00000  Uiso   1.00
C213   C     0.91984   0.19520   0.47423   0.00000  Uiso   1.00
C214   C     0.74142   0.15713   0.01990   0.00000  Uiso   1.00
C215   C     0.84165   0.16457   0.47524   0.00000  Uiso   1.00
C216   C     0.82440   0.17310   0.02149   0.00000  Uiso   1.00
Cu217  Cu    0.71355   0.16667   0.25000   0.00000  Uiso   1.00
Cu218  Cu    0.95311   0.16666   0.25000   0.00000  Uiso   1.00
H219   H     0.92221   0.22537   0.03520   0.00000  Uiso   1.00
H220   H     0.73204   0.14567   0.45442   0.00000  Uiso   1.00
H221   H     0.98581   0.22988   0.46540   0.00000  Uiso   1.00
H222   H     0.99853   0.15141   0.02293   0.00000  Uiso   1.00
H223   H     0.93297   0.03995   0.23216   0.00000  Uiso   1.00
H224   H     0.73235   0.29332   0.27062   0.00000  Uiso   1.00
H225   H     0.86215   0.12264   0.30228   0.00000  Uiso   1.00
H226   H     0.80437   0.21115   0.19819   0.00000  Uiso   1.00
H227   H     0.77489   0.12278   0.30232   0.00000  Uiso   1.00
H228   H     0.89176   0.21059   0.19772   0.00000  Uiso   1.00
N229   N     0.78403   0.16668   0.24999   0.00000  Uiso   1.00
N230   N     0.88264   0.16666   0.25001   0.00000  Uiso   1.00
O231   O     0.70625   0.10655   0.25000   0.00000  Uiso   1.00
O232   O     0.96042   0.22678   0.25000   0.00000  Uiso   1.00
O233   O     0.96039   0.10654   0.25000   0.00000  Uiso   1.00
O234   O     0.70628   0.22679   0.24999   0.00000  Uiso   1.00
O235   O     0.68519   0.16668   0.31491   0.00000  Uiso   1.00
O236   O     0.98148   0.16666   0.18508   0.00000  Uiso   1.00
O237   O     0.93933   0.16667   0.31492   0.00000  Uiso   1.00
O238   O     0.72733   0.16667   0.18508   0.00000  Uiso   1.00
N239   N     0.79595   0.14476   0.11275   0.00000  Uiso   1.00
H240   H     0.80430   0.16349   0.13606   0.00000  Uiso   1.00
C241   C     0.79430   0.10130   0.12269   0.00000  Uiso   1.00
H242   H     0.82526   0.09249   0.13629   0.00000  Uiso   1.00
H243   H     0.79747   0.08345   0.09168   0.00000  Uiso   1.00
H244   H     0.75960   0.09352   0.14775   0.00000  Uiso   1.00
N245   N     0.89707   0.11723   0.39628   0.00000  Uiso   1.00
H246   H     0.90880   0.11055   0.36274   0.00000  Uiso   1.00
C247   C     0.90058   0.08138   0.42317   0.00000  Uiso   1.00
H248   H     0.88455   0.05464   0.41060   0.00000  Uiso   1.00
H249   H     0.88016   0.08619   0.45869   0.00000  Uiso   1.00
H250   H     0.93948   0.07429   0.42099   0.00000  Uiso   1.00
N251   N     0.95765   0.15841   0.10959   0.00000  Uiso   1.00
H252   H     0.93720   0.17470   0.09233   0.00000  Uiso   1.00
C253   C     0.93829   0.11794   0.12216   0.00000  Uiso   1.00
H254   H     0.93895   0.09985   0.09181   0.00000  Uiso   1.00
H255   H     0.90005   0.12091   0.14307   0.00000  Uiso   1.00
H256   H     0.95975   0.10139   0.14208   0.00000  Uiso   1.00
N257   N     0.69071   0.22236   0.37810   0.00000  Uiso   1.00
H258   H     0.68766   0.25363   0.38322   0.00000  Uiso   1.00
C259   C     0.73775   0.20655   0.38021   0.00000  Uiso   1.00
H260   H     0.74363   0.21350   0.41329   0.00000  Uiso   1.00
H261   H     0.76692   0.22147   0.35384   0.00000  Uiso   1.00
H262   H     0.74039   0.17290   0.37443   0.00000  Uiso   1.00
H263   H     0.84122   0.20589   0.07635   0.00000  Uiso   1.00
H264   H     0.81766   0.15127   0.41573   0.00000  Uiso   1.00
N265   N     0.91929   0.29446   0.23163   0.00000  Uiso   1.00
H266   H     0.91039   0.30720   0.20427   0.00000  Uiso   1.00
C267   C     0.87695   0.29129   0.26981   0.00000  Uiso   1.00
H268   H     0.88628   0.27400   0.29743   0.00000  Uiso   1.00
H269   H     0.86295   0.32234   0.28181   0.00000  Uiso   1.00
H270   H     0.84763   0.27470   0.26006   0.00000  Uiso   1.00
N271   N     0.74458   0.03898   0.27363   0.00000  Uiso   1.00
H272   H     0.75004   0.02744   0.30297   0.00000  Uiso   1.00
C273   C     0.78961   0.03981   0.23812   0.00000  Uiso   1.00
H274   H     0.80318   0.00810   0.22867   0.00000  Uiso   1.00
H275   H     0.81782   0.05635   0.24958   0.00000  Uiso   1.00
H276   H     0.78384   0.05600   0.20839   0.00000  Uiso   1.00
C277   C     0.00032   0.42067   0.25035   0.00000  Uiso   1.00
C278   C     0.33278   0.57932   0.25032   0.00000  Uiso   1.00
C279   C     0.18798   0.52805   0.04251   0.00000  Uiso   1.00
C280   C     0.14067   0.48761   0.45171   0.00000  Uiso   1.00
C281   C     0.23442   0.54001   0.01876   0.00000  Uiso   1.00
C282   C     0.09105   0.48527   0.47364   0.00000  Uiso   1.00
C283   C     0.29551   0.35601   0.24053   0.00000  Uiso   1.00
C284   C     0.03670   0.64397   0.26194   0.00000  Uiso   1.00
C285   C     0.29321   0.64687   0.24140   0.00000  Uiso   1.00
C286   C     0.03872   0.35316   0.26155   0.00000  Uiso   1.00
C287   C     0.33151   0.62392   0.25131   0.00000  Uiso   1.00
C288   C     0.00100   0.37607   0.25062   0.00000  Uiso   1.00
C289   C     0.18328   0.47561   0.27910   0.00000  Uiso   1.00
C290   C     0.15000   0.52458   0.22110   0.00000  Uiso   1.00
C291   C     0.13359   0.47565   0.27910   0.00000  Uiso   1.00
C292   C     0.19973   0.52439   0.22093   0.00000  Uiso   1.00
C293   C     0.30608   0.50040   0.33600   0.00000  Uiso   1.00
C294   C     0.02755   0.49804   0.16370   0.00000  Uiso   1.00
C295   C     0.29132   0.50585   0.38464   0.00000  Uiso   1.00
C296   C     0.04322   0.49437   0.11409   0.00000  Uiso   1.00
C297   C     0.29881   0.54276   0.44994   0.00000  Uiso   1.00
C298   C     0.02499   0.48863   0.04195   0.00000  Uiso   1.00
C299   C     0.31663   0.53379   0.40452   0.00000  Uiso   1.00
C300   C     0.00871   0.49221   0.08861   0.00000  Uiso   1.00
C301   C     0.24803   0.48761   0.41061   0.00000  Uiso   1.00
C302   C     0.09379   0.49273   0.09127   0.00000  Uiso   1.00
C303   C     0.22512   0.50411   0.45320   0.00000  Uiso   1.00
C304   C     0.10885   0.49717   0.04451   0.00000  Uiso   1.00
C305   C     0.25317   0.52853   0.47423   0.00000  Uiso   1.00
C306   C     0.07475   0.49046   0.01990   0.00000  Uiso   1.00
C307   C     0.17499   0.49790   0.47524   0.00000  Uiso   1.00
C308   C     0.15774   0.50644   0.02149   0.00000  Uiso   1.00
Cu309  Cu    0.04689   0.50001   0.25000   0.00000  Uiso   1.00
Cu310  Cu    0.28645   0.49999   0.25000   0.00000  Uiso   1.00
H311   H     0.25555   0.55871   0.03520   0.00000  Uiso   1.00
H312   H     0.06537   0.47901   0.45442   0.00000  Uiso   1.00
H313   H     0.31914   0.56321   0.46540   0.00000  Uiso   1.00
H314   H     0.33186   0.48475   0.02293   0.00000  Uiso   1.00
H315   H     0.26630   0.37329   0.23216   0.00000  Uiso   1.00
H316   H     0.06568   0.62665   0.27062   0.00000  Uiso   1.00
H317   H     0.19549   0.45597   0.30228   0.00000  Uiso   1.00
H318   H     0.13770   0.54448   0.19819   0.00000  Uiso   1.00
H319   H     0.10822   0.45612   0.30232   0.00000  Uiso   1.00
H320   H     0.22510   0.54393   0.19772   0.00000  Uiso   1.00
N321   N     0.11736   0.50001   0.24999   0.00000  Uiso   1.00
N322   N     0.21597   0.49999   0.25001   0.00000  Uiso   1.00
O323   O     0.03958   0.43989   0.25000   0.00000  Uiso   1.00
O324   O     0.29375   0.56011   0.25000   0.00000  Uiso   1.00
O325   O     0.29372   0.43988   0.25000   0.00000  Uiso   1.00
O326   O     0.03961   0.56012   0.24999   0.00000  Uiso   1.00
O327   O     0.01852   0.50001   0.31491   0.00000  Uiso   1.00
O328   O     0.31481   0.49999   0.18508   0.00000  Uiso   1.00
O329   O     0.27267   0.50000   0.31492   0.00000  Uiso   1.00
O330   O     0.06067   0.50000   0.18508   0.00000  Uiso   1.00
N331   N     0.12928   0.47810   0.11275   0.00000  Uiso   1.00
H332   H     0.13763   0.49682   0.13606   0.00000  Uiso   1.00
C333   C     0.12764   0.43463   0.12269   0.00000  Uiso   1.00
H334   H     0.15859   0.42582   0.13629   0.00000  Uiso   1.00
H335   H     0.13080   0.41678   0.09168   0.00000  Uiso   1.00
H336   H     0.09294   0.42685   0.14775   0.00000  Uiso   1.00
N337   N     0.23041   0.45056   0.39628   0.00000  Uiso   1.00
H338   H     0.24213   0.44388   0.36274   0.00000  Uiso   1.00
C339   C     0.23391   0.41471   0.42317   0.00000  Uiso   1.00
H340   H     0.21789   0.38798   0.41060   0.00000  Uiso   1.00
H341   H     0.21350   0.41953   0.45869   0.00000  Uiso   1.00
H342   H     0.27281   0.40762   0.42099   0.00000  Uiso   1.00
N343   N     0.29099   0.49175   0.10959   0.00000  Uiso   1.00
H344   H     0.27054   0.50803   0.09233   0.00000  Uiso   1.00
C345   C     0.27162   0.45127   0.12216   0.00000  Uiso   1.00
H346   H     0.27228   0.43319   0.09181   0.00000  Uiso   1.00
H347   H     0.23338   0.45424   0.14307   0.00000  Uiso   1.00
H348   H     0.29309   0.43473   0.14208   0.00000  Uiso   1.00
N349   N     0.02405   0.55570   0.37810   0.00000  Uiso   1.00
H350   H     0.02099   0.58697   0.38322   0.00000  Uiso   1.00
C351   C     0.07109   0.53988   0.38021   0.00000  Uiso   1.00
H352   H     0.07697   0.54684   0.41329   0.00000  Uiso   1.00
H353   H     0.10025   0.55480   0.35384   0.00000  Uiso   1.00
H354   H     0.07372   0.50623   0.37443   0.00000  Uiso   1.00
H355   H     0.17456   0.53922   0.07635   0.00000  Uiso   1.00
H356   H     0.15100   0.48460   0.41573   0.00000  Uiso   1.00
N357   N     0.25262   0.62779   0.23163   0.00000  Uiso   1.00
H358   H     0.24373   0.64053   0.20427   0.00000  Uiso   1.00
C359   C     0.21028   0.62463   0.26981   0.00000  Uiso   1.00
H360   H     0.21962   0.60734   0.29743   0.00000  Uiso   1.00
H361   H     0.19628   0.65567   0.28181   0.00000  Uiso   1.00
H362   H     0.18096   0.60804   0.26006   0.00000  Uiso   1.00
N363   N     0.07792   0.37231   0.27363   0.00000  Uiso   1.00
H364   H     0.08337   0.36077   0.30297   0.00000  Uiso   1.00
C365   C     0.12294   0.37314   0.23812   0.00000  Uiso   1.00
H366   H     0.13651   0.34144   0.22867   0.00000  Uiso   1.00
H367   H     0.15115   0.38969   0.24958   0.00000  Uiso   1.00
H368   H     0.11717   0.38933   0.20839   0.00000  Uiso   1.00
C369   C     0.33366   0.42067   0.25035   0.00000  Uiso   1.00
C370   C     0.66611   0.57932   0.25032   0.00000  Uiso   1.00
C371   C     0.52132   0.52805   0.04251   0.00000  Uiso   1.00
C372   C     0.47400   0.48761   0.45171   0.00000  Uiso   1.00
C373   C     0.56775   0.54001   0.01876   0.00000  Uiso   1.00
C374   C     0.42438   0.48527   0.47364   0.00000  Uiso   1.00
C375   C     0.62884   0.35601   0.24053   0.00000  Uiso   1.00
C376   C     0.37003   0.64397   0.26194   0.00000  Uiso   1.00
C377   C     0.62654   0.64687   0.24140   0.00000  Uiso   1.00
C378   C     0.37205   0.35316   0.26155   0.00000  Uiso   1.00
C379   C     0.66484   0.62392   0.25131   0.00000  Uiso   1.00
C380   C     0.33433   0.37607   0.25062   0.00000  Uiso   1.00
C381   C     0.51661   0.47561   0.27910   0.00000  Uiso   1.00
C382   C     0.48333   0.52458   0.22110   0.00000  Uiso   1.00
C383   C     0.46693   0.47565   0.27910   0.00000  Uiso   1.00
C384   C     0.53307   0.52439   0.22093   0.00000  Uiso   1.00
C385   C     0.63941   0.50040   0.33600   0.00000  Uiso   1.00
C386   C     0.36088   0.49804   0.16370   0.00000  Uiso   1.00
C387   C     0.62466   0.50585   0.38464   0.00000  Uiso   1.00
C388   C     0.37656   0.49437   0.11409   0.00000  Uiso   1.00
C389   C     0.63215   0.54276   0.44994   0.00000  Uiso   1.00
C390   C     0.35832   0.48863   0.04195   0.00000  Uiso   1.00
C391   C     0.64996   0.53379   0.40452   0.00000  Uiso   1.00
C392   C     0.34205   0.49221   0.08861   0.00000  Uiso   1.00
C393   C     0.58136   0.48761   0.41061   0.00000  Uiso   1.00
C394   C     0.42712   0.49273   0.09127   0.00000  Uiso   1.00
C395   C     0.55845   0.50411   0.45320   0.00000  Uiso   1.00
C396   C     0.44218   0.49717   0.04451   0.00000  Uiso   1.00
C397   C     0.58651   0.52853   0.47423   0.00000  Uiso   1.00
C398   C     0.40808   0.49046   0.01990   0.00000  Uiso   1.00
C399   C     0.50832   0.49790   0.47524   0.00000  Uiso   1.00
C400   C     0.49107   0.50644   0.02149   0.00000  Uiso   1.00
Cu401  Cu    0.38022   0.50001   0.25000   0.00000  Uiso   1.00
Cu402  Cu    0.61978   0.49999   0.25000   0.00000  Uiso   1.00
H403   H     0.58888   0.55871   0.03520   0.00000  Uiso   1.00
H404   H     0.39870   0.47901   0.45442   0.00000  Uiso   1.00
H405   H     0.65248   0.56321   0.46540   0.00000  Uiso   1.00
H406   H     0.66520   0.48475   0.02293   0.00000  Uiso   1.00
H407   H     0.59963   0.37329   0.23216   0.00000  Uiso   1.00
H408   H     0.39902   0.62665   0.27062   0.00000  Uiso   1.00
H409   H     0.52882   0.45597   0.30228   0.00000  Uiso   1.00
H410   H     0.47104   0.54448   0.19819   0.00000  Uiso   1.00
H411   H     0.44156   0.45612   0.30232   0.00000  Uiso   1.00
H412   H     0.55843   0.54393   0.19772   0.00000  Uiso   1.00
N413   N     0.45069   0.50001   0.24999   0.00000  Uiso   1.00
N414   N     0.54931   0.49999   0.25001   0.00000  Uiso   1.00
O415   O     0.37291   0.43989   0.25000   0.00000  Uiso   1.00
O416   O     0.62709   0.56011   0.25000   0.00000  Uiso   1.00
O417   O     0.62706   0.43988   0.25000   0.00000  Uiso   1.00
O418   O     0.37294   0.56012   0.24999   0.00000  Uiso   1.00
O419   O     0.35186   0.50001   0.31491   0.00000  Uiso   1.00
O420   O     0.64814   0.49999   0.18508   0.00000  Uiso   1.00
O421   O     0.60600   0.50000   0.31492   0.00000  Uiso   1.00
O422   O     0.39400   0.50000   0.18508   0.00000  Uiso   1.00
N423   N     0.46261   0.47810   0.11275   0.00000  Uiso   1.00
H424   H     0.47097   0.49682   0.13606   0.00000  Uiso   1.00
C425   C     0.46097   0.43463   0.12269   0.00000  Uiso   1.00
H426   H     0.49193   0.42582   0.13629   0.00000  Uiso   1.00
H427   H     0.46413   0.41678   0.09168   0.00000  Uiso   1.00
H428   H     0.42627   0.42685   0.14775   0.00000  Uiso   1.00
N429   N     0.56374   0.45056   0.39628   0.00000  Uiso   1.00
H430   H     0.57547   0.44388   0.36274   0.00000  Uiso   1.00
C431   C     0.56724   0.41471   0.42317   0.00000  Uiso   1.00
H432   H     0.55122   0.38798   0.41060   0.00000  Uiso   1.00
H433   H     0.54683   0.41953   0.45869   0.00000  Uiso   1.00
H434   H     0.60614   0.40762   0.42099   0.00000  Uiso   1.00
N435   N     0.62432   0.49175   0.10959   0.00000  Uiso   1.00
H436   H     0.60387   0.50803   0.09233   0.00000  Uiso   1.00
C437   C     0.60495   0.45127   0.12216   0.00000  Uiso   1.00
H438   H     0.60562   0.43319   0.09181   0.00000  Uiso   1.00
H439   H     0.56672   0.45424   0.14307   0.00000  Uiso   1.00
H440   H     0.62642   0.43473   0.14208   0.00000  Uiso   1.00
N441   N     0.35738   0.55570   0.37810   0.00000  Uiso   1.00
H442   H     0.35433   0.58697   0.38322   0.00000  Uiso   1.00
C443   C     0.40442   0.53988   0.38021   0.00000  Uiso   1.00
H444   H     0.41030   0.54684   0.41329   0.00000  Uiso   1.00
H445   H     0.43358   0.55480   0.35384   0.00000  Uiso   1.00
H446   H     0.40706   0.50623   0.37443   0.00000  Uiso   1.00
H447   H     0.50789   0.53922   0.07635   0.00000  Uiso   1.00
H448   H     0.48433   0.48460   0.41573   0.00000  Uiso   1.00
N449   N     0.58595   0.62779   0.23163   0.00000  Uiso   1.00
H450   H     0.57706   0.64053   0.20427   0.00000  Uiso   1.00
C451   C     0.54361   0.62463   0.26981   0.00000  Uiso   1.00
H452   H     0.55295   0.60734   0.29743   0.00000  Uiso   1.00
H453   H     0.52962   0.65567   0.28181   0.00000  Uiso   1.00
H454   H     0.51430   0.60804   0.26006   0.00000  Uiso   1.00
N455   N     0.41125   0.37231   0.27363   0.00000  Uiso   1.00
H456   H     0.41670   0.36077   0.30297   0.00000  Uiso   1.00
C457   C     0.45628   0.37314   0.23812   0.00000  Uiso   1.00
H458   H     0.46985   0.34144   0.22867   0.00000  Uiso   1.00
H459   H     0.48448   0.38969   0.24958   0.00000  Uiso   1.00
H460   H     0.45050   0.38933   0.20839   0.00000  Uiso   1.00
C461   C     0.66699   0.42067   0.25035   0.00000  Uiso   1.00
C462   C     0.99944   0.57932   0.25032   0.00000  Uiso   1.00
C463   C     0.85465   0.52805   0.04251   0.00000  Uiso   1.00
C464   C     0.80733   0.48761   0.45171   0.00000  Uiso   1.00
C465   C     0.90109   0.54001   0.01876   0.00000  Uiso   1.00
C466   C     0.75772   0.48527   0.47364   0.00000  Uiso   1.00
C467   C     0.96217   0.35601   0.24053   0.00000  Uiso   1.00
C468   C     0.70336   0.64397   0.26194   0.00000  Uiso   1.00
C469   C     0.95987   0.64687   0.24140   0.00000  Uiso   1.00
C470   C     0.70539   0.35316   0.26155   0.00000  Uiso   1.00
C471   C     0.99818   0.62392   0.25131   0.00000  Uiso   1.00
C472   C     0.66767   0.37607   0.25062   0.00000  Uiso   1.00
C473   C     0.84994   0.47561   0.27910   0.00000  Uiso   1.00
C474   C     0.81667   0.52458   0.22110   0.00000  Uiso   1.00
C475   C     0.80026   0.47565   0.27910   0.00000  Uiso   1.00
C476   C     0.86640   0.52439   0.22093   0.00000  Uiso   1.00
C477   C     0.97275   0.50040   0.33600   0.00000  Uiso   1.00
C478   C     0.69422   0.49804   0.16370   0.00000  Uiso   1.00
C479   C     0.95799   0.50585   0.38464   0.00000  Uiso   1.00
C480   C     0.70989   0.49437   0.11409   0.00000  Uiso   1.00
C481   C     0.96548   0.54276   0.44994   0.00000  Uiso   1.00
C482   C     0.69165   0.48863   0.04195   0.00000  Uiso   1.00
C483   C     0.98330   0.53379   0.40452   0.00000  Uiso   1.00
C484   C     0.67538   0.49221   0.08861   0.00000  Uiso   1.00
C485   C     0.91469   0.48761   0.41061   0.00000  Uiso   1.00
C486   C     0.76046   0.49273   0.09127   0.00000  Uiso   1.00
C487   C     0.89178   0.50411   0.45320   0.00000  Uiso   1.00
C488   C     0.77551   0.49717   0.04451   0.00000  Uiso   1.00
C489   C     0.91984   0.52853   0.47423   0.00000  Uiso   1.00
C490   C     0.74142   0.49046   0.01990   0.00000  Uiso   1.00
C491   C     0.84165   0.49790   0.47524   0.00000  Uiso   1.00
C492   C     0.82440   0.50644   0.02149   0.00000  Uiso   1.00
Cu493  Cu    0.71355   0.50001   0.25000   0.00000  Uiso   1.00
Cu494  Cu    0.95311   0.49999   0.25000   0.00000  Uiso   1.00
H495   H     0.92221   0.55871   0.03520   0.00000  Uiso   1.00
H496   H     0.73204   0.47901   0.45442   0.00000  Uiso   1.00
H497   H     0.98581   0.56321   0.46540   0.00000  Uiso   1.00
H498   H     0.99853   0.48475   0.02293   0.00000  Uiso   1.00
H499   H     0.93297   0.37329   0.23216   0.00000  Uiso   1.00
H500   H     0.73235   0.62665   0.27062   0.00000  Uiso   1.00
H501   H     0.86215   0.45597   0.30228   0.00000  Uiso   1.00
H502   H     0.80437   0.54448   0.19819   0.00000  Uiso   1.00
H503   H     0.77489   0.45612   0.30232   0.00000  Uiso   1.00
H504   H     0.89176   0.54393   0.19772   0.00000  Uiso   1.00
N505   N     0.78403   0.50001   0.24999   0.00000  Uiso   1.00
N506   N     0.88264   0.49999   0.25001   0.00000  Uiso   1.00
O507   O     0.70625   0.43989   0.25000   0.00000  Uiso   1.00
O508   O     0.96042   0.56011   0.25000   0.00000  Uiso   1.00
O509   O     0.96039   0.43988   0.25000   0.00000  Uiso   1.00
O510   O     0.70628   0.56012   0.24999   0.00000  Uiso   1.00
O511   O     0.68519   0.50001   0.31491   0.00000  Uiso   1.00
O512   O     0.98148   0.49999   0.18508   0.00000  Uiso   1.00
O513   O     0.93933   0.50000   0.31492   0.00000  Uiso   1.00
O514   O     0.72733   0.50000   0.18508   0.00000  Uiso   1.00
N515   N     0.79595   0.47810   0.11275   0.00000  Uiso   1.00
H516   H     0.80430   0.49682   0.13606   0.00000  Uiso   1.00
C517   C     0.79430   0.43463   0.12269   0.00000  Uiso   1.00
H518   H     0.82526   0.42582   0.13629   0.00000  Uiso   1.00
H519   H     0.79747   0.41678   0.09168   0.00000  Uiso   1.00
H520   H     0.75960   0.42685   0.14775   0.00000  Uiso   1.00
N521   N     0.89707   0.45056   0.39628   0.00000  Uiso   1.00
H522   H     0.90880   0.44388   0.36274   0.00000  Uiso   1.00
C523   C     0.90058   0.41471   0.42317   0.00000  Uiso   1.00
H524   H     0.88455   0.38798   0.41060   0.00000  Uiso   1.00
H525   H     0.88016   0.41953   0.45869   0.00000  Uiso   1.00
H526   H     0.93948   0.40762   0.42099   0.00000  Uiso   1.00
N527   N     0.95765   0.49175   0.10959   0.00000  Uiso   1.00
H528   H     0.93720   0.50803   0.09233   0.00000  Uiso   1.00
C529   C     0.93829   0.45127   0.12216   0.00000  Uiso   1.00
H530   H     0.93895   0.43319   0.09181   0.00000  Uiso   1.00
H531   H     0.90005   0.45424   0.14307   0.00000  Uiso   1.00
H532   H     0.95975   0.43473   0.14208   0.00000  Uiso   1.00
N533   N     0.69071   0.55570   0.37810   0.00000  Uiso   1.00
H534   H     0.68766   0.58697   0.38322   0.00000  Uiso   1.00
C535   C     0.73775   0.53988   0.38021   0.00000  Uiso   1.00
H536   H     0.74363   0.54684   0.41329   0.00000  Uiso   1.00
H537   H     0.76692   0.55480   0.35384   0.00000  Uiso   1.00
H538   H     0.74039   0.50623   0.37443   0.00000  Uiso   1.00
H539   H     0.84122   0.53922   0.07635   0.00000  Uiso   1.00
H540   H     0.81766   0.48460   0.41573   0.00000  Uiso   1.00
N541   N     0.91929   0.62779   0.23163   0.00000  Uiso   1.00
H542   H     0.91039   0.64053   0.20427   0.00000  Uiso   1.00
C543   C     0.87695   0.62463   0.26981   0.00000  Uiso   1.00
H544   H     0.88628   0.60734   0.29743   0.00000  Uiso   1.00
H545   H     0.86295   0.65567   0.28181   0.00000  Uiso   1.00
H546   H     0.84763   0.60804   0.26006   0.00000  Uiso   1.00
N547   N     0.74458   0.37231   0.27363   0.00000  Uiso   1.00
H548   H     0.75004   0.36077   0.30297   0.00000  Uiso   1.00
C549   C     0.78961   0.37314   0.23812   0.00000  Uiso   1.00
H550   H     0.80318   0.34144   0.22867   0.00000  Uiso   1.00
H551   H     0.81782   0.38969   0.24958   0.00000  Uiso   1.00
H552   H     0.78384   0.38933   0.20839   0.00000  Uiso   1.00
C553   C     0.00032   0.75401   0.25035   0.00000  Uiso   1.00
C554   C     0.33278   0.91266   0.25032   0.00000  Uiso   1.00
C555   C     0.18798   0.86139   0.04251   0.00000  Uiso   1.00
C556   C     0.14067   0.82095   0.45171   0.00000  Uiso   1.00
C557   C     0.23442   0.87334   0.01876   0.00000  Uiso   1.00
C558   C     0.09105   0.81861   0.47364   0.00000  Uiso   1.00
C559   C     0.29551   0.68934   0.24053   0.00000  Uiso   1.00
C560   C     0.03670   0.97731   0.26194   0.00000  Uiso   1.00
C561   C     0.29321   0.98020   0.24140   0.00000  Uiso   1.00
C562   C     0.03872   0.68649   0.26155   0.00000  Uiso   1.00
C563   C     0.33151   0.95726   0.25131   0.00000  Uiso   1.00
C564   C     0.00100   0.70940   0.25062   0.00000  Uiso   1.00
C565   C     0.18328   0.80894   0.27910   0.00000  Uiso   1.00
C566   C     0.15000   0.85792   0.22110   0.00000  Uiso   1.00
C567   C     0.13359   0.80898   0.27910   0.00000  Uiso   1.00
C568   C     0.19973   0.85772   0.22093   0.00000  Uiso   1.00
C569   C     0.30608   0.83374   0.33600   0.00000  Uiso   1.00
C570   C     0.02755   0.83137   0.16370   0.00000  Uiso   1.00
C571   C     0.29132   0.83919   0.38464   0.00000  Uiso   1.00
C572   C     0.04322   0.82771   0.11409   0.00000  Uiso   1.00
C573   C     0.29881   0.87610   0.44994   0.00000  Uiso   1.00
C574   C     0.02499   0.82197   0.04195   0.00000  Uiso   1.00
C575   C     0.31663   0.86712   0.40452   0.00000  Uiso   1.00
C576   C     0.00871   0.82554   0.08861   0.00000  Uiso   1.00
C577   C     0.24803   0.82094   0.41061   0.00000  Uiso   1.00
C578   C     0.09379   0.82606   0.09127   0.00000  Uiso   1.00
C579   C     0.22512   0.83745   0.45320   0.00000  Uiso   1.00
C580   C     0.10885   0.83050   0.04451   0.00000  Uiso   1.00
C581   C     0.25317   0.86186   0.47423   0.00000  Uiso   1.00
C582   C     0.07475   0.82380   0.01990   0.00000  Uiso   1.00
C583   C     0.17499   0.83124   0.47524   0.00000  Uiso   1.00
C584   C     0.15774   0.83977   0.02149   0.00000  Uiso   1.00
Cu585  Cu    0.04689   0.83334   0.25000   0.00000  Uiso   1.00
Cu586  Cu    0.28645   0.83333   0.25000   0.00000  Uiso   1.00
H587   H     0.25555   0.89204   0.03520   0.00000  Uiso   1.00
H588   H     0.06537   0.81234   0.45442   0.00000  Uiso   1.00
H589   H     0.31914   0.89654   0.46540   0.00000  Uiso   1.00
H590   H     0.33186   0.81808   0.02293   0.00000  Uiso   1.00
H591   H     0.26630   0.70662   0.23216   0.00000  Uiso   1.00
H592   H     0.06568   0.95998   0.27062   0.00000  Uiso   1.00
H593   H     0.19549   0.78931   0.30228   0.00000  Uiso   1.00
H594   H     0.13770   0.87782   0.19819   0.00000  Uiso   1.00
H595   H     0.10822   0.78945   0.30232   0.00000  Uiso   1.00
H596   H     0.22510   0.87726   0.19772   0.00000  Uiso   1.00
N597   N     0.11736   0.83334   0.24999   0.00000  Uiso   1.00
N598   N     0.21597   0.83332   0.25001   0.00000  Uiso   1.00
O599   O     0.03958   0.77322   0.25000   0.00000  Uiso   1.00
O600   O     0.29375   0.89345   0.25000   0.00000  Uiso   1.00
O601   O     0.29372   0.77321   0.25000   0.00000  Uiso   1.00
O602   O     0.03961   0.89346   0.24999   0.00000  Uiso   1.00
O603   O     0.01852   0.83334   0.31491   0.00000  Uiso   1.00
O604   O     0.31481   0.83332   0.18508   0.00000  Uiso   1.00
O605   O     0.27267   0.83333   0.31492   0.00000  Uiso   1.00
O606   O     0.06067   0.83333   0.18508   0.00000  Uiso   1.00
N607   N     0.12928   0.81143   0.11275   0.00000  Uiso   1.00
H608   H     0.13763   0.83015   0.13606   0.00000  Uiso   1.00
C609   C     0.12764   0.76796   0.12269   0.00000  Uiso   1.00
H610   H     0.15859   0.75915   0.13629   0.00000  Uiso   1.00
H611   H     0.13080   0.75011   0.09168   0.00000  Uiso   1.00
H612   H     0.09294   0.76018   0.14775   0.00000  Uiso   1.00
N613   N     0.23041   0.78389   0.39628   0.00000  Uiso   1.00
H614   H     0.24213   0.77722   0.36274   0.00000  Uiso   1.00
C615   C     0.23391   0.74805   0.42317   0.00000  Uiso   1.00
H616   H     0.21789   0.72131   0.41060   0.00000  Uiso   1.00
H617   H     0.21350   0.75286   0.45869   0.00000  Uiso   1.00
H618   H     0.27281   0.74095   0.42099   0.00000  Uiso   1.00
N619   N     0.29099   0.82508   0.10959   0.00000  Uiso   1.00
H620   H     0.27054   0.84136   0.09233   0.00000  Uiso   1.00
C621   C     0.27162   0.78461   0.12216   0.00000  Uiso   1.00
H622   H     0.27228   0.76652   0.09181   0.00000  Uiso   1.00
H623   H     0.23338   0.78757   0.14307   0.00000  Uiso   1.00
H624   H     0.29309   0.76806   0.14208   0.00000  Uiso   1.00
N625   N     0.02405   0.88903   0.37810   0.00000  Uiso   1.00
H626   H     0.02099   0.92030   0.38322   0.00000  Uiso   1.00
C627   C     0.07109   0.87322   0.38021   0.00000  Uiso   1.00
H628   H     0.07697   0.88017   0.41329   0.00000  Uiso   1.00
H629   H     0.10025   0.88814   0.35384   0.00000  Uiso   1.00
H630   H     0.07372   0.83956   0.37443   0.00000  Uiso   1.00
H631   H     0.17456   0.87255   0.07635   0.00000  Uiso   1.00
H632   H     0.15100   0.81794   0.41573   0.00000  Uiso   1.00
N633   N     0.25262   0.96113   0.23163   0.00000  Uiso   1.00
H634   H     0.24373   0.97386   0.20427   0.00000  Uiso   1.00
C635   C     0.21028   0.95796   0.26981   0.00000  Uiso   1.00
H636   H     0.21962   0.94067   0.29743   0.00000  Uiso   1.00
H637   H     0.19628   0.98901   0.28181   0.00000  Uiso   1.00
H638   H     0.18096   0.94137   0.26006   0.00000  Uiso   1.00
N639   N     0.07792   0.70565   0.27363   0.00000  Uiso   1.00
H640   H     0.08337   0.69410   0.30297   0.00000  Uiso   1.00
C641   C     0.12294   0.70647   0.23812   0.00000  Uiso   1.00
H642   H     0.13651   0.67477   0.22867   0.00000  Uiso   1.00
H643   H     0.15115   0.72302   0.24958   0.00000  Uiso   1.00
H644   H     0.11717   0.72266   0.20839   0.00000  Uiso   1.00
C645   C     0.33366   0.75401   0.25035   0.00000  Uiso   1.00
C646   C     0.66611   0.91266   0.25032   0.00000  Uiso   1.00
C647   C     0.52132   0.86139   0.04251   0.00000  Uiso   1.00
C648   C     0.47400   0.82095   0.45171   0.00000  Uiso   1.00
C649   C     0.56775   0.87334   0.01876   0.00000  Uiso   1.00
C650   C     0.42438   0.81861   0.47364   0.00000  Uiso   1.00
C651   C     0.62884   0.68934   0.24053   0.00000  Uiso   1.00
C652   C     0.37003   0.97731   0.26194   0.00000  Uiso   1.00
C653   C     0.62654   0.98020   0.24140   0.00000  Uiso   1.00
C654   C     0.37205   0.68649   0.26155   0.00000  Uiso   1.00
C655   C     0.66484   0.95726   0.25131   0.00000  Uiso   1.00
C656   C     0.33433   0.70940   0.25062   0.00000  Uiso   1.00
C657   C     0.51661   0.80894   0.27910   0.00000  Uiso   1.00
C658   C     0.48333   0.85792   0.22110   0.00000  Uiso   1.00
C659   C     0.46693   0.80898   0.27910   0.00000  Uiso   1.00
C660   C     0.53307   0.85772   0.22093   0.00000  Uiso   1.00
C661   C     0.63941   0.83374   0.33600   0.00000  Uiso   1.00
C662   C     0.36088   0.83137   0.16370   0.00000  Uiso   1.00
C663   C     0.62466   0.83919   0.38464   0.00000  Uiso   1.00
C664   C     0.37656   0.82771   0.11409   0.00000  Uiso   1.00
C665   C     0.63215   0.87610   0.44994   0.00000  Uiso   1.00
C666   C     0.35832   0.82197   0.04195   0.00000  Uiso   1.00
C667   C     0.64996   0.86712   0.40452   0.00000  Uiso   1.00
C668   C     0.34205   0.82554   0.08861   0.00000  Uiso   1.00
C669   C     0.58136   0.82094   0.41061   0.00000  Uiso   1.00
C670   C     0.42712   0.82606   0.09127   0.00000  Uiso   1.00
C671   C     0.55845   0.83745   0.45320   0.00000  Uiso   1.00
C672   C     0.44218   0.83050   0.04451   0.00000  Uiso   1.00
C673   C     0.58651   0.86186   0.47423   0.00000  Uiso   1.00
C674   C     0.40808   0.82380   0.01990   0.00000  Uiso   1.00
C675   C     0.50832   0.83124   0.47524   0.00000  Uiso   1.00
C676   C     0.49107   0.83977   0.02149   0.00000  Uiso   1.00
Cu677  Cu    0.38022   0.83334   0.25000   0.00000  Uiso   1.00
Cu678  Cu    0.61978   0.83333   0.25000   0.00000  Uiso   1.00
H679   H     0.58888   0.89204   0.03520   0.00000  Uiso   1.00
H680   H     0.39870   0.81234   0.45442   0.00000  Uiso   1.00
H681   H     0.65248   0.89654   0.46540   0.00000  Uiso   1.00
H682   H     0.66520   0.81808   0.02293   0.00000  Uiso   1.00
H683   H     0.59963   0.70662   0.23216   0.00000  Uiso   1.00
H684   H     0.39902   0.95998   0.27062   0.00000  Uiso   1.00
H685   H     0.52882   0.78931   0.30228   0.00000  Uiso   1.00
H686   H     0.47104   0.87782   0.19819   0.00000  Uiso   1.00
H687   H     0.44156   0.78945   0.30232   0.00000  Uiso   1.00
H688   H     0.55843   0.87726   0.19772   0.00000  Uiso   1.00
N689   N     0.45069   0.83334   0.24999   0.00000  Uiso   1.00
N690   N     0.54931   0.83332   0.25001   0.00000  Uiso   1.00
O691   O     0.37291   0.77322   0.25000   0.00000  Uiso   1.00
O692   O     0.62709   0.89345   0.25000   0.00000  Uiso   1.00
O693   O     0.62706   0.77321   0.25000   0.00000  Uiso   1.00
O694   O     0.37294   0.89346   0.24999   0.00000  Uiso   1.00
O695   O     0.35186   0.83334   0.31491   0.00000  Uiso   1.00
O696   O     0.64814   0.83332   0.18508   0.00000  Uiso   1.00
O697   O     0.60600   0.83333   0.31492   0.00000  Uiso   1.00
O698   O     0.39400   0.83333   0.18508   0.00000  Uiso   1.00
N699   N     0.46261   0.81143   0.11275   0.00000  Uiso   1.00
H700   H     0.47097   0.83015   0.13606   0.00000  Uiso   1.00
C701   C     0.46097   0.76796   0.12269   0.00000  Uiso   1.00
H702   H     0.49193   0.75915   0.13629   0.00000  Uiso   1.00
H703   H     0.46413   0.75011   0.09168   0.00000  Uiso   1.00
H704   H     0.42627   0.76018   0.14775   0.00000  Uiso   1.00
N705   N     0.56374   0.78389   0.39628   0.00000  Uiso   1.00
H706   H     0.57547   0.77722   0.36274   0.00000  Uiso   1.00
C707   C     0.56724   0.74805   0.42317   0.00000  Uiso   1.00
H708   H     0.55122   0.72131   0.41060   0.00000  Uiso   1.00
H709   H     0.54683   0.75286   0.45869   0.00000  Uiso   1.00
H710   H     0.60614   0.74095   0.42099   0.00000  Uiso   1.00
N711   N     0.62432   0.82508   0.10959   0.00000  Uiso   1.00
H712   H     0.60387   0.84136   0.09233   0.00000  Uiso   1.00
C713   C     0.60495   0.78461   0.12216   0.00000  Uiso   1.00
H714   H     0.60562   0.76652   0.09181   0.00000  Uiso   1.00
H715   H     0.56672   0.78757   0.14307   0.00000  Uiso   1.00
H716   H     0.62642   0.76806   0.14208   0.00000  Uiso   1.00
N717   N     0.35738   0.88903   0.37810   0.00000  Uiso   1.00
H718   H     0.35433   0.92030   0.38322   0.00000  Uiso   1.00
C719   C     0.40442   0.87322   0.38021   0.00000  Uiso   1.00
H720   H     0.41030   0.88017   0.41329   0.00000  Uiso   1.00
H721   H     0.43358   0.88814   0.35384   0.00000  Uiso   1.00
H722   H     0.40706   0.83956   0.37443   0.00000  Uiso   1.00
H723   H     0.50789   0.87255   0.07635   0.00000  Uiso   1.00
H724   H     0.48433   0.81794   0.41573   0.00000  Uiso   1.00
N725   N     0.58595   0.96113   0.23163   0.00000  Uiso   1.00
H726   H     0.57706   0.97386   0.20427   0.00000  Uiso   1.00
C727   C     0.54361   0.95796   0.26981   0.00000  Uiso   1.00
H728   H     0.55295   0.94067   0.29743   0.00000  Uiso   1.00
H729   H     0.52962   0.98901   0.28181   0.00000  Uiso   1.00
H730   H     0.51430   0.94137   0.26006   0.00000  Uiso   1.00
N731   N     0.41125   0.70565   0.27363   0.00000  Uiso   1.00
H732   H     0.41670   0.69410   0.30297   0.00000  Uiso   1.00
C733   C     0.45628   0.70647   0.23812   0.00000  Uiso   1.00
H734   H     0.46985   0.67477   0.22867   0.00000  Uiso   1.00
H735   H     0.48448   0.72302   0.24958   0.00000  Uiso   1.00
H736   H     0.45050   0.72266   0.20839   0.00000  Uiso   1.00
C737   C     0.66699   0.75401   0.25035   0.00000  Uiso   1.00
C738   C     0.99944   0.91266   0.25032   0.00000  Uiso   1.00
C739   C     0.85465   0.86139   0.04251   0.00000  Uiso   1.00
C740   C     0.80733   0.82095   0.45171   0.00000  Uiso   1.00
C741   C     0.90109   0.87334   0.01876   0.00000  Uiso   1.00
C742   C     0.75772   0.81861   0.47364   0.00000  Uiso   1.00
C743   C     0.96217   0.68934   0.24053   0.00000  Uiso   1.00
C744   C     0.70336   0.97731   0.26194   0.00000  Uiso   1.00
C745   C     0.95987   0.98020   0.24140   0.00000  Uiso   1.00
C746   C     0.70539   0.68649   0.26155   0.00000  Uiso   1.00
C747   C     0.99818   0.95726   0.25131   0.00000  Uiso   1.00
C748   C     0.66767   0.70940   0.25062   0.00000  Uiso   1.00
C749   C     0.84994   0.80894   0.27910   0.00000  Uiso   1.00
C750   C     0.81667   0.85792   0.22110   0.00000  Uiso   1.00
C751   C     0.80026   0.80898   0.27910   0.00000  Uiso   1.00
C752   C     0.86640   0.85772   0.22093   0.00000  Uiso   1.00
C753   C     0.97275   0.83374   0.33600   0.00000  Uiso   1.00
C754   C     0.69422   0.83137   0.16370   0.00000  Uiso   1.00
C755   C     0.95799   0.83919   0.38464   0.00000  Uiso   1.00
C756   C     0.70989   0.82771   0.11409   0.00000  Uiso   1.00
C757   C     0.96548   0.87610   0.44994   0.00000  Uiso   1.00
C758   C     0.69165   0.82197   0.04195   0.00000  Uiso   1.00
C759   C     0.98330   0.86712   0.40452   0.00000  Uiso   1.00
C760   C     0.67538   0.82554   0.08861   0.00000  Uiso   1.00
C761   C     0.91469   0.82094   0.41061   0.00000  Uiso   1.00
C762   C     0.76046   0.82606   0.09127   0.00000  Uiso   1.00
C763   C     0.89178   0.83745   0.45320   0.00000  Uiso   1.00
C764   C     0.77551   0.83050   0.04451   0.00000  Uiso   1.00
C765   C     0.91984   0.86186   0.47423   0.00000  Uiso   1.00
C766   C     0.74142   0.82380   0.01990   0.00000  Uiso   1.00
C767   C     0.84165   0.83124   0.47524   0.00000  Uiso   1.00
C768   C     0.82440   0.83977   0.02149   0.00000  Uiso   1.00
Cu769  Cu    0.71355   0.83334   0.25000   0.00000  Uiso   1.00
Cu770  Cu    0.95311   0.83333   0.25000   0.00000  Uiso   1.00
H771   H     0.92221   0.89204   0.03520   0.00000  Uiso   1.00
H772   H     0.73204   0.81234   0.45442   0.00000  Uiso   1.00
H773   H     0.98581   0.89654   0.46540   0.00000  Uiso   1.00
H774   H     0.99853   0.81808   0.02293   0.00000  Uiso   1.00
H775   H     0.93297   0.70662   0.23216   0.00000  Uiso   1.00
H776   H     0.73235   0.95998   0.27062   0.00000  Uiso   1.00
H777   H     0.86215   0.78931   0.30228   0.00000  Uiso   1.00
H778   H     0.80437   0.87782   0.19819   0.00000  Uiso   1.00
H779   H     0.77489   0.78945   0.30232   0.00000  Uiso   1.00
H780   H     0.89176   0.87726   0.19772   0.00000  Uiso   1.00
N781   N     0.78403   0.83334   0.24999   0.00000  Uiso   1.00
N782   N     0.88264   0.83332   0.25001   0.00000  Uiso   1.00
O783   O     0.70625   0.77322   0.25000   0.00000  Uiso   1.00
O784   O     0.96042   0.89345   0.25000   0.00000  Uiso   1.00
O785   O     0.96039   0.77321   0.25000   0.00000  Uiso   1.00
O786   O     0.70628   0.89346   0.24999   0.00000  Uiso   1.00
O787   O     0.68519   0.83334   0.31491   0.00000  Uiso   1.00
O788   O     0.98148   0.83332   0.18508   0.00000  Uiso   1.00
O789   O     0.93933   0.83333   0.31492   0.00000  Uiso   1.00
O790   O     0.72733   0.83333   0.18508   0.00000  Uiso   1.00
N791   N     0.79595   0.81143   0.11275   0.00000  Uiso   1.00
H792   H     0.80430   0.83015   0.13606   0.00000  Uiso   1.00
C793   C     0.79430   0.76796   0.12269   0.00000  Uiso   1.00
H794   H     0.82526   0.75915   0.13629   0.00000  Uiso   1.00
H795   H     0.79747   0.75011   0.09168   0.00000  Uiso   1.00
H796   H     0.75960   0.76018   0.14775   0.00000  Uiso   1.00
N797   N     0.89707   0.78389   0.39628   0.00000  Uiso   1.00
H798   H     0.90880   0.77722   0.36274   0.00000  Uiso   1.00
C799   C     0.90058   0.74805   0.42317   0.00000  Uiso   1.00
H800   H     0.88455   0.72131   0.41060   0.00000  Uiso   1.00
H801   H     0.88016   0.75286   0.45869   0.00000  Uiso   1.00
H802   H     0.93948   0.74095   0.42099   0.00000  Uiso   1.00
N803   N     0.95765   0.82508   0.10959   0.00000  Uiso   1.00
H804   H     0.93720   0.84136   0.09233   0.00000  Uiso   1.00
C805   C     0.93829   0.78461   0.12216   0.00000  Uiso   1.00
H806   H     0.93895   0.76652   0.09181   0.00000  Uiso   1.00
H807   H     0.90005   0.78757   0.14307   0.00000  Uiso   1.00
H808   H     0.95975   0.76806   0.14208   0.00000  Uiso   1.00
N809   N     0.69071   0.88903   0.37810   0.00000  Uiso   1.00
H810   H     0.68766   0.92030   0.38322   0.00000  Uiso   1.00
C811   C     0.73775   0.87322   0.38021   0.00000  Uiso   1.00
H812   H     0.74363   0.88017   0.41329   0.00000  Uiso   1.00
H813   H     0.76692   0.88814   0.35384   0.00000  Uiso   1.00
H814   H     0.74039   0.83956   0.37443   0.00000  Uiso   1.00
H815   H     0.84122   0.87255   0.07635   0.00000  Uiso   1.00
H816   H     0.81766   0.81794   0.41573   0.00000  Uiso   1.00
N817   N     0.91929   0.96113   0.23163   0.00000  Uiso   1.00
H818   H     0.91039   0.97386   0.20427   0.00000  Uiso   1.00
C819   C     0.87695   0.95796   0.26981   0.00000  Uiso   1.00
H820   H     0.88628   0.94067   0.29743   0.00000  Uiso   1.00
H821   H     0.86295   0.98901   0.28181   0.00000  Uiso   1.00
H822   H     0.84763   0.94137   0.26006   0.00000  Uiso   1.00
N823   N     0.74458   0.70565   0.27363   0.00000  Uiso   1.00
H824   H     0.75004   0.69410   0.30297   0.00000  Uiso   1.00
C825   C     0.78961   0.70647   0.23812   0.00000  Uiso   1.00
H826   H     0.80318   0.67477   0.22867   0.00000  Uiso   1.00
H827   H     0.81782   0.72302   0.24958   0.00000  Uiso   1.00
H828   H     0.78384   0.72266   0.20839   0.00000  Uiso   1.00
C829   C     0.00032   0.08734   0.75035   0.00000  Uiso   1.00
C830   C     0.33278   0.24599   0.75032   0.00000  Uiso   1.00
C831   C     0.18798   0.19472   0.54251   0.00000  Uiso   1.00
C832   C     0.14067   0.15428   0.95171   0.00000  Uiso   1.00
C833   C     0.23442   0.20667   0.51876   0.00000  Uiso   1.00
C834   C     0.09105   0.15194   0.97364   0.00000  Uiso   1.00
C835   C     0.29551   0.02267   0.74053   0.00000  Uiso   1.00
C836   C     0.03670   0.31064   0.76194   0.00000  Uiso   1.00
C837   C     0.29321   0.31353   0.74140   0.00000  Uiso   1.00
C838   C     0.03872   0.01982   0.76155   0.00000  Uiso   1.00
C839   C     0.33151   0.29059   0.75131   0.00000  Uiso   1.00
C840   C     0.00100   0.04274   0.75062   0.00000  Uiso   1.00
C841   C     0.18328   0.14227   0.77910   0.00000  Uiso   1.00
C842   C     0.15000   0.19125   0.72110   0.00000  Uiso   1.00
C843   C     0.13359   0.14231   0.77910   0.00000  Uiso   1.00
C844   C     0.19973   0.19106   0.72093   0.00000  Uiso   1.00
C845   C     0.30608   0.16707   0.83600   0.00000  Uiso   1.00
C846   C     0.02755   0.16471   0.66370   0.00000  Uiso   1.00
C847   C     0.29132   0.17252   0.88464   0.00000  Uiso   1.00
C848   C     0.04322   0.16104   0.61409   0.00000  Uiso   1.00
C849   C     0.29881   0.20943   0.94994   0.00000  Uiso   1.00
C850   C     0.02499   0.15530   0.54195   0.00000  Uiso   1.00
C851   C     0.31663   0.20045   0.90452   0.00000  Uiso   1.00
C852   C     0.00871   0.15887   0.58861   0.00000  Uiso   1.00
C853   C     0.24803   0.15428   0.91061   0.00000  Uiso   1.00
C854   C     0.09379   0.15939   0.59127   0.00000  Uiso   1.00
C855   C     0.22512   0.17078   0.95320   0.00000  Uiso   1.00
C856   C     0.10885   0.16383   0.54451   0.00000  Uiso   1.00
C857   C     0.25317   0.19520   0.97423   0.00000  Uiso   1.00
C858   C     0.07475   0.15713   0.51990   0.00000  Uiso   1.00
C859   C     0.17499   0.16457   0.97524   0.00000  Uiso   1.00
C860   C     0.15774   0.17310   0.52149   0.00000  Uiso   1.00
Cu861  Cu    0.04689   0.16667   0.75000   0.00000  Uiso   1.00
Cu862  Cu    0.28645   0.16666   0.75000   0.00000  Uiso   1.00
H863   H     0.25555   0.22537   0.53520   0.00000  Uiso   1.00
H864   H     0.06537   0.14567   0.95442   0.00000  Uiso   1.00
H865   H     0.31914   0.22988   0.96540   0.00000  Uiso   1.00
H866   H     0.33186   0.15141   0.52293   0.00000  Uiso   1.00
H867   H     0.26630   0.03995   0.73216   0.00000  Uiso   1.00
H868   H     0.06568   0.29332   0.77062   0.00000  Uiso   1.00
H869   H     0.19549   0.12264   0.80228   0.00000  Uiso   1.00
H870   H     0.13770   0.21115   0.69819   0.00000  Uiso   1.00
H871   H     0.10822   0.12278   0.80232   0.00000  Uiso   1.00
H872   H     0.22510   0.21059   0.69772   0.00000  Uiso   1.00
N873   N     0.11736   0.16668   0.74999   0.00000  Uiso   1.00
N874   N     0.21597   0.16666   0.75001   0.00000  Uiso   1.00
O875   O     0.03958   0.10655   0.75000   0.00000  Uiso   1.00
O876   O     0.29375   0.22678   0.75000   0.00000  Uiso   1.00
O877   O     0.29372   0.10654   0.75000   0.00000  Uiso   1.00
O878   O     0.03961   0.22679   0.74999   0.00000  Uiso   1.00
O879   O     0.01852   0.16668   0.81491   0.00000  Uiso   1.00
O880   O     0.31481   0.16666   0.68508   0.00000  Uiso   1.00
O881   O     0.27267   0.16667   0.81492   0.00000  Uiso   1.00
O882   O     0.06067   0.16667   0.68508   0.00000  Uiso   1.00
N883   N     0.12928   0.14476   0.61275   0.00000  Uiso   1.00
H884   H     0.13763   0.16349   0.63606   0.00000  Uiso   1.00
C885   C     0.12764   0.10130   0.62269   0.00000  Uiso   1.00
H886   H     0.15859   0.09249   0.63629   0.00000  Uiso   1.00
H887   H     0.13080   0.08345   0.59168   0.00000  Uiso   1.00
H888   H     0.09294   0.09352   0.64775   0.00000  Uiso   1.00
N889   N     0.23041   0.11723   0.89628   0.00000  Uiso   1.00
H890   H     0.24213   0.11055   0.86274   0.00000  Uiso   1.00
C891   C     0.23391   0.08138   0.92317   0.00000  Uiso   1.00
H892   H     0.21789   0.05464   0.91060   0.00000  Uiso   1.00
H893   H     0.21350   0.08619   0.95869   0.00000  Uiso   1.00
H894   H     0.27281   0.07429   0.92099   0.00000  Uiso   1.00
N895   N     0.29099   0.15841   0.60959   0.00000  Uiso   1.00
H896   H     0.27054   0.17470   0.59233   0.00000  Uiso   1.00
C897   C     0.27162   0.11794   0.62216   0.00000  Uiso   1.00
H898   H     0.27228   0.09985   0.59181   0.00000  Uiso   1.00
H899   H     0.23338   0.12091   0.64307   0.00000  Uiso   1.00
H900   H     0.29309   0.10139   0.64208   0.00000  Uiso   1.00
N901   N     0.02405   0.22236   0.87810   0.00000  Uiso   1.00
H902   H     0.02099   0.25363   0.88322   0.00000  Uiso   1.00
C903   C     0.07109   0.20655   0.88021   0.00000  Uiso   1.00
H904   H     0.07697   0.21350   0.91329   0.00000  Uiso   1.00
H905   H     0.10025   0.22147   0.85384   0.00000  Uiso   1.00
H906   H     0.07372   0.17290   0.87443   0.00000  Uiso   1.00
H907   H     0.17456   0.20589   0.57635   0.00000  Uiso   1.00
H908   H     0.15100   0.15127   0.91573   0.00000  Uiso   1.00
N909   N     0.25262   0.29446   0.73163   0.00000  Uiso   1.00
H910   H     0.24373   0.30720   0.70427   0.00000  Uiso   1.00
C911   C     0.21028   0.29129   0.76981   0.00000  Uiso   1.00
H912   H     0.21962   0.27400   0.79743   0.00000  Uiso   1.00
H913   H     0.19628   0.32234   0.78181   0.00000  Uiso   1.00
H914   H     0.18096   0.27470   0.76006   0.00000  Uiso   1.00
N915   N     0.07792   0.03898   0.77363   0.00000  Uiso   1.00
H916   H     0.08337   0.02744   0.80297   0.00000  Uiso   1.00
C917   C     0.12294   0.03981   0.73812   0.00000  Uiso   1.00
H918   H     0.13651   0.00810   0.72867   0.00000  Uiso   1.00
H919   H     0.15115   0.05635   0.74958   0.00000  Uiso   1.00
H920   H     0.11717   0.05600   0.70839   0.00000  Uiso   1.00
C921   C     0.33366   0.08734   0.75035   0.00000  Uiso   1.00
C922   C     0.66611   0.24599   0.75032   0.00000  Uiso   1.00
C923   C     0.52132   0.19472   0.54251   0.00000  Uiso   1.00
C924   C     0.47400   0.15428   0.95171   0.00000  Uiso   1.00
C925   C     0.56775   0.20667   0.51876   0.00000  Uiso   1.00
C926   C     0.42438   0.15194   0.97364   0.00000  Uiso   1.00
C927   C     0.62884   0.02267   0.74053   0.00000  Uiso   1.00
C928   C     0.37003   0.31064   0.76194   0.00000  Uiso   1.00
C929   C     0.62654   0.31353   0.74140   0.00000  Uiso   1.00
C930   C     0.37205   0.01982   0.76155   0.00000  Uiso   1.00
C931   C     0.66484   0.29059   0.75131   0.00000  Uiso   1.00
C932   C     0.33433   0.04274   0.75062   0.00000  Uiso   1.00
C933   C     0.51661   0.14227   0.77910   0.00000  Uiso   1.00
C934   C     0.48333   0.19125   0.72110   0.00000  Uiso   1.00
C935   C     0.46693   0.14231   0.77910   0.00000  Uiso   1.00
C936   C     0.53307   0.19106   0.72093   0.00000  Uiso   1.00
C937   C     0.63941   0.16707   0.83600   0.00000  Uiso   1.00
C938   C     0.36088   0.16471   0.66370   0.00000  Uiso   1.00
C939   C     0.62466   0.17252   0.88464   0.00000  Uiso   1.00
C940   C     0.37656   0.16104   0.61409   0.00000  Uiso   1.00
C941   C     0.63215   0.20943   0.94994   0.00000  Uiso   1.00
C942   C     0.35832   0.15530   0.54195   0.00000  Uiso   1.00
C943   C     0.64996   0.20045   0.90452   0.00000  Uiso   1.00
C944   C     0.34205   0.15887   0.58861   0.00000  Uiso   1.00
C945   C     0.58136   0.15428   0.91061   0.00000  Uiso   1.00
C946   C     0.42712   0.15939   0.59127   0.00000  Uiso   1.00
C947   C     0.55845   0.17078   0.95320   0.00000  Uiso   1.00
C948   C     0.44218   0.16383   0.54451   0.00000  Uiso   1.00
C949   C     0.58651   0.19520   0.97423   0.00000  Uiso   1.00
C950   C     0.40808   0.15713   0.51990   0.00000  Uiso   1.00
C951   C     0.50832   0.16457   0.97524   0.00000  Uiso   1.00
C952   C     0.49107   0.17310   0.52149   0.00000  Uiso   1.00
Cu953  Cu    0.38022   0.16667   0.75000   0.00000  Uiso   1.00
Cu954  Cu    0.61978   0.16666   0.75000   0.00000  Uiso   1.00
H955   H     0.58888   0.22537   0.53520   0.00000  Uiso   1.00
H956   H     0.39870   0.14567   0.95442   0.00000  Uiso   1.00
H957   H     0.65248   0.22988   0.96540   0.00000  Uiso   1.00
H958   H     0.66520   0.15141   0.52293   0.00000  Uiso   1.00
H959   H     0.59963   0.03995   0.73216   0.00000  Uiso   1.00
H960   H     0.39902   0.29332   0.77062   0.00000  Uiso   1.00
H961   H     0.52882   0.12264   0.80228   0.00000  Uiso   1.00
H962   H     0.47104   0.21115   0.69819   0.00000  Uiso   1.00
H963   H     0.44156   0.12278   0.80232   0.00000  Uiso   1.00
H964   H     0.55843   0.21059   0.69772   0.00000  Uiso   1.00
N965   N     0.45069   0.16668   0.74999   0.00000  Uiso   1.00
N966   N     0.54931   0.16666   0.75001   0.00000  Uiso   1.00
O967   O     0.37291   0.10655   0.75000   0.00000  Uiso   1.00
O968   O     0.62709   0.22678   0.75000   0.00000  Uiso   1.00
O969   O     0.62706   0.10654   0.75000   0.00000  Uiso   1.00
O970   O     0.37294   0.22679   0.74999   0.00000  Uiso   1.00
O971   O     0.35186   0.16668   0.81491   0.00000  Uiso   1.00
O972   O     0.64814   0.16666   0.68508   0.00000  Uiso   1.00
O973   O     0.60600   0.16667   0.81492   0.00000  Uiso   1.00
O974   O     0.39400   0.16667   0.68508   0.00000  Uiso   1.00
N975   N     0.46261   0.14476   0.61275   0.00000  Uiso   1.00
H976   H     0.47097   0.16349   0.63606   0.00000  Uiso   1.00
C977   C     0.46097   0.10130   0.62269   0.00000  Uiso   1.00
H978   H     0.49193   0.09249   0.63629   0.00000  Uiso   1.00
H979   H     0.46413   0.08345   0.59168   0.00000  Uiso   1.00
H980   H     0.42627   0.09352   0.64775   0.00000  Uiso   1.00
N981   N     0.56374   0.11723   0.89628   0.00000  Uiso   1.00
H982   H     0.57547   0.11055   0.86274   0.00000  Uiso   1.00
C983   C     0.56724   0.08138   0.92317   0.00000  Uiso   1.00
H984   H     0.55122   0.05464   0.91060   0.00000  Uiso   1.00
H985   H     0.54683   0.08619   0.95869   0.00000  Uiso   1.00
H986   H     0.60614   0.07429   0.92099   0.00000  Uiso   1.00
N987   N     0.62432   0.15841   0.60959   0.00000  Uiso   1.00
H988   H     0.60387   0.17470   0.59233   0.00000  Uiso   1.00
C989   C     0.60495   0.11794   0.62216   0.00000  Uiso   1.00
H990   H     0.60562   0.09985   0.59181   0.00000  Uiso   1.00
H991   H     0.56672   0.12091   0.64307   0.00000  Uiso   1.00
H992   H     0.62642   0.10139   0.64208   0.00000  Uiso   1.00
N993   N     0.35738   0.22236   0.87810   0.00000  Uiso   1.00
H994   H     0.35433   0.25363   0.88322   0.00000  Uiso   1.00
C995   C     0.40442   0.20655   0.88021   0.00000  Uiso   1.00
H996   H     0.41030   0.21350   0.91329   0.00000  Uiso   1.00
H997   H     0.43358   0.22147   0.85384   0.00000  Uiso   1.00
H998   H     0.40706   0.17290   0.87443   0.00000  Uiso   1.00
H999   H     0.50789   0.20589   0.57635   0.00000  Uiso   1.00
H1000  H     0.48433   0.15127   0.91573   0.00000  Uiso   1.00
N1001  N     0.58595   0.29446   0.73163   0.00000  Uiso   1.00
H1002  H     0.57706   0.30720   0.70427   0.00000  Uiso   1.00
C1003  C     0.54361   0.29129   0.76981   0.00000  Uiso   1.00
H1004  H     0.55295   0.27400   0.79743   0.00000  Uiso   1.00
H1005  H     0.52962   0.32234   0.78181   0.00000  Uiso   1.00
H1006  H     0.51430   0.27470   0.76006   0.00000  Uiso   1.00
N1007  N     0.41125   0.03898   0.77363   0.00000  Uiso   1.00
H1008  H     0.41670   0.02744   0.80297   0.00000  Uiso   1.00
C1009  C     0.45628   0.03981   0.73812   0.00000  Uiso   1.00
H1010  H     0.46985   0.00810   0.72867   0.00000  Uiso   1.00
H1011  H     0.48448   0.05635   0.74958   0.00000  Uiso   1.00
H1012  H     0.45050   0.05600   0.70839   0.00000  Uiso   1.00
C1013  C     0.66699   0.08734   0.75035   0.00000  Uiso   1.00
C1014  C     0.99944   0.24599   0.75032   0.00000  Uiso   1.00
C1015  C     0.85465   0.19472   0.54251   0.00000  Uiso   1.00
C1016  C     0.80733   0.15428   0.95171   0.00000  Uiso   1.00
C1017  C     0.90109   0.20667   0.51876   0.00000  Uiso   1.00
C1018  C     0.75772   0.15194   0.97364   0.00000  Uiso   1.00
C1019  C     0.96217   0.02267   0.74053   0.00000  Uiso   1.00
C1020  C     0.70336   0.31064   0.76194   0.00000  Uiso   1.00
C1021  C     0.95987   0.31353   0.74140   0.00000  Uiso   1.00
C1022  C     0.70539   0.01982   0.76155   0.00000  Uiso   1.00
C1023  C     0.99818   0.29059   0.75131   0.00000  Uiso   1.00
C1024  C     0.66767   0.04274   0.75062   0.00000  Uiso   1.00
C1025  C     0.84994   0.14227   0.77910   0.00000  Uiso   1.00
C1026  C     0.81667   0.19125   0.72110   0.00000  Uiso   1.00
C1027  C     0.80026   0.14231   0.77910   0.00000  Uiso   1.00
C1028  C     0.86640   0.19106   0.72093   0.00000  Uiso   1.00
C1029  C     0.97275   0.16707   0.83600   0.00000  Uiso   1.00
C1030  C     0.69422   0.16471   0.66370   0.00000  Uiso   1.00
C1031  C     0.95799   0.17252   0.88464   0.00000  Uiso   1.00
C1032  C     0.70989   0.16104   0.61409   0.00000  Uiso   1.00
C1033  C     0.96548   0.20943   0.94994   0.00000  Uiso   1.00
C1034  C     0.69165   0.15530   0.54195   0.00000  Uiso   1.00
C1035  C     0.98330   0.20045   0.90452   0.00000  Uiso   1.00
C1036  C     0.67538   0.15887   0.58861   0.00000  Uiso   1.00
C1037  C     0.91469   0.15428   0.91061   0.00000  Uiso   1.00
C1038  C     0.76046   0.15939   0.59127   0.00000  Uiso   1.00
C1039  C     0.89178   0.17078   0.95320   0.00000  Uiso   1.00
C1040  C     0.77551   0.16383   0.54451   0.00000  Uiso   1.00
C1041  C     0.91984   0.19520   0.97423   0.00000  Uiso   1.00
C1042  C     0.74142   0.15713   0.51990   0.00000  Uiso   1.00
C1043  C     0.84165   0.16457   0.97524   0.00000  Uiso   1.00
C1044  C     0.82440   0.17310   0.52149   0.00000  Uiso   1.00
Cu1045 Cu    0.71355   0.16667   0.75000   0.00000  Uiso   1.00
Cu1046 Cu    0.95311   0.16666   0.75000   0.00000  Uiso   1.00
H1047  H     0.92221   0.22537   0.53520   0.00000  Uiso   1.00
H1048  H     0.73204   0.14567   0.95442   0.00000  Uiso   1.00
H1049  H     0.98581   0.22988   0.96540   0.00000  Uiso   1.00
H1050  H     0.99853   0.15141   0.52293   0.00000  Uiso   1.00
H1051  H     0.93297   0.03995   0.73216   0.00000  Uiso   1.00
H1052  H     0.73235   0.29332   0.77062   0.00000  Uiso   1.00
H1053  H     0.86215   0.12264   0.80228   0.00000  Uiso   1.00
H1054  H     0.80437   0.21115   0.69819   0.00000  Uiso   1.00
H1055  H     0.77489   0.12278   0.80232   0.00000  Uiso   1.00
H1056  H     0.89176   0.21059   0.69772   0.00000  Uiso   1.00
N1057  N     0.78403   0.16668   0.74999   0.00000  Uiso   1.00
N1058  N     0.88264   0.16666   0.75001   0.00000  Uiso   1.00
O1059  O     0.70625   0.10655   0.75000   0.00000  Uiso   1.00
O1060  O     0.96042   0.22678   0.75000   0.00000  Uiso   1.00
O1061  O     0.96039   0.10654   0.75000   0.00000  Uiso   1.00
O1062  O     0.70628   0.22679   0.74999   0.00000  Uiso   1.00
O1063  O     0.68519   0.16668   0.81491   0.00000  Uiso   1.00
O1064  O     0.98148   0.16666   0.68508   0.00000  Uiso   1.00
O1065  O     0.93933   0.16667   0.81492   0.00000  Uiso   1.00
O1066  O     0.72733   0.16667   0.68508   0.00000  Uiso   1.00
N1067  N     0.79595   0.14476   0.61275   0.00000  Uiso   1.00
H1068  H     0.80430   0.16349   0.63606   0.00000  Uiso   1.00
C1069  C     0.79430   0.10130   0.62269   0.00000  Uiso   1.00
H1070  H     0.82526   0.09249   0.63629   0.00000  Uiso   1.00
H1071  H     0.79747   0.08345   0.59168   0.00000  Uiso   1.00
H1072  H     0.75960   0.09352   0.64775   0.00000  Uiso   1.00
N1073  N     0.89707   0.11723   0.89628   0.00000  Uiso   1.00
H1074  H     0.90880   0.11055   0.86274   0.00000  Uiso   1.00
C1075  C     0.90058   0.08138   0.92317   0.00000  Uiso   1.00
H1076  H     0.88455   0.05464   0.91060   0.00000  Uiso   1.00
H1077  H     0.88016   0.08619   0.95869   0.00000  Uiso   1.00
H1078  H     0.93948   0.07429   0.92099   0.00000  Uiso   1.00
N1079  N     0.95765   0.15841   0.60959   0.00000  Uiso   1.00
H1080  H     0.93720   0.17470   0.59233   0.00000  Uiso   1.00
C1081  C     0.93829   0.11794   0.62216   0.00000  Uiso   1.00
H1082  H     0.93895   0.09985   0.59181   0.00000  Uiso   1.00
H1083  H     0.90005   0.12091   0.64307   0.00000  Uiso   1.00
H1084  H     0.95975   0.10139   0.64208   0.00000  Uiso   1.00
N1085  N     0.69071   0.22236   0.87810   0.00000  Uiso   1.00
H1086  H     0.68766   0.25363   0.88322   0.00000  Uiso   1.00
C1087  C     0.73775   0.20655   0.88021   0.00000  Uiso   1.00
H1088  H     0.74363   0.21350   0.91329   0.00000  Uiso   1.00
H1089  H     0.76692   0.22147   0.85384   0.00000  Uiso   1.00
H1090  H     0.74039   0.17290   0.87443   0.00000  Uiso   1.00
H1091  H     0.84122   0.20589   0.57635   0.00000  Uiso   1.00
H1092  H     0.81766   0.15127   0.91573   0.00000  Uiso   1.00
N1093  N     0.91929   0.29446   0.73163   0.00000  Uiso   1.00
H1094  H     0.91039   0.30720   0.70427   0.00000  Uiso   1.00
C1095  C     0.87695   0.29129   0.76981   0.00000  Uiso   1.00
H1096  H     0.88628   0.27400   0.79743   0.00000  Uiso   1.00
H1097  H     0.86295   0.32234   0.78181   0.00000  Uiso   1.00
H1098  H     0.84763   0.27470   0.76006   0.00000  Uiso   1.00
N1099  N     0.74458   0.03898   0.77363   0.00000  Uiso   1.00
H1100  H     0.75004   0.02744   0.80297   0.00000  Uiso   1.00
C1101  C     0.78961   0.03981   0.73812   0.00000  Uiso   1.00
H1102  H     0.80318   0.00810   0.72867   0.00000  Uiso   1.00
H1103  H     0.81782   0.05635   0.74958   0.00000  Uiso   1.00
H1104  H     0.78384   0.05600   0.70839   0.00000  Uiso   1.00
C1105  C     0.00032   0.42067   0.75035   0.00000  Uiso   1.00
C1106  C     0.33278   0.57932   0.75032   0.00000  Uiso   1.00
C1107  C     0.18798   0.52805   0.54251   0.00000  Uiso   1.00
C1108  C     0.14067   0.48761   0.95171   0.00000  Uiso   1.00
C1109  C     0.23442   0.54001   0.51876   0.00000  Uiso   1.00
C1110  C     0.09105   0.48527   0.97364   0.00000  Uiso   1.00
C1111  C     0.29551   0.35601   0.74053   0.00000  Uiso   1.00
C1112  C     0.03670   0.64397   0.76194   0.00000  Uiso   1.00
C1113  C     0.29321   0.64687   0.74140   0.00000  Uiso   1.00
C1114  C     0.03872   0.35316   0.76155   0.00000  Uiso   1.00
C1115  C     0.33151   0.62392   0.75131   0.00000  Uiso   1.00
C1116  C     0.00100   0.37607   0.75062   0.00000  Uiso   1.00
C1117  C     0.18328   0.47561   0.77910   0.00000  Uiso   1.00
C1118  C     0.15000   0.52458   0.72110   0.00000  Uiso   1.00
C1119  C     0.13359   0.47565   0.77910   0.00000  Uiso   1.00
C1120  C     0.19973   0.52439   0.72093   0.00000  Uiso   1.00
C1121  C     0.30608   0.50040   0.83600   0.00000  Uiso   1.00
C1122  C     0.02755   0.49804   0.66370   0.00000  Uiso   1.00
C1123  C     0.29132   0.50585   0.88464   0.00000  Uiso   1.00
C1124  C     0.04322   0.49437   0.61409   0.00000  Uiso   1.00
C1125  C     0.29881   0.54276   0.94994   0.00000  Uiso   1.00
C1126  C     0.02499   0.48863   0.54195   0.00000  Uiso   1.00
C1127  C     0.31663   0.53379   0.90452   0.00000  Uiso   1.00
C1128  C     0.00871   0.49221   0.58861   0.00000  Uiso   1.00
C1129  C     0.24803   0.48761   0.91061   0.00000  Uiso   1.00
C1130  C     0.09379   0.49273   0.59127   0.00000  Uiso   1.00
C1131  C     0.22512   0.50411   0.95320   0.00000  Uiso   1.00
C1132  C     0.10885   0.49717   0.54451   0.00000  Uiso   1.00
C1133  C     0.25317   0.52853   0.97423   0.00000  Uiso   1.00
C1134  C     0.07475   0.49046   0.51990   0.00000  Uiso   1.00
C1135  C     0.17499   0.49790   0.97524   0.00000  Uiso   1.00
C1136  C     0.15774   0.50644   0.52149   0.00000  Uiso   1.00
Cu1137 Cu    0.04689   0.50001   0.75000   0.00000  Uiso   1.00
Cu1138 Cu    0.28645   0.49999   0.75000   0.00000  Uiso   1.00
H1139  H     0.25555   0.55871   0.53520   0.00000  Uiso   1.00
H1140  H     0.06537   0.47901   0.95442   0.00000  Uiso   1.00
H1141  H     0.31914   0.56321   0.96540   0.00000  Uiso   1.00
H1142  H     0.33186   0.48475   0.52293   0.00000  Uiso   1.00
H1143  H     0.26630   0.37329   0.73216   0.00000  Uiso   1.00
H1144  H     0.06568   0.62665   0.77062   0.00000  Uiso   1.00
H1145  H     0.19549   0.45597   0.80228   0.00000  Uiso   1.00
H1146  H     0.13770   0.54448   0.69819   0.00000  Uiso   1.00
H1147  H     0.10822   0.45612   0.80232   0.00000  Uiso   1.00
H1148  H     0.22510   0.54393   0.69772   0.00000  Uiso   1.00
N1149  N     0.11736   0.50001   0.74999   0.00000  Uiso   1.00
N1150  N     0.21597   0.49999   0.75001   0.00000  Uiso   1.00
O1151  O     0.03958   0.43989   0.75000   0.00000  Uiso   1.00
O1152  O     0.29375   0.56011   0.75000   0.00000  Uiso   1.00
O1153  O     0.29372   0.43988   0.75000   0.00000  Uiso   1.00
O1154  O     0.03961   0.56012   0.74999   0.00000  Uiso   1.00
O1155  O     0.01852   0.50001   0.81491   0.00000  Uiso   1.00
O1156  O     0.31481   0.49999   0.68508   0.00000  Uiso   1.00
O1157  O     0.27267   0.50000   0.81492   0.00000  Uiso   1.00
O1158  O     0.06067   0.50000   0.68508   0.00000  Uiso   1.00
N1159  N     0.12928   0.47810   0.61275   0.00000  Uiso   1.00
H1160  H     0.13763   0.49682   0.63606   0.00000  Uiso   1.00
C1161  C     0.12764   0.43463   0.62269   0.00000  Uiso   1.00
H1162  H     0.15859   0.42582   0.63629   0.00000  Uiso   1.00
H1163  H     0.13080   0.41678   0.59168   0.00000  Uiso   1.00
H1164  H     0.09294   0.42685   0.64775   0.00000  Uiso   1.00
N1165  N     0.23041   0.45056   0.89628   0.00000  Uiso   1.00
H1166  H     0.24213   0.44388   0.86274   0.00000  Uiso   1.00
C1167  C     0.23391   0.41471   0.92317   0.00000  Uiso   1.00
H1168  H     0.21789   0.38798   0.91060   0.00000  Uiso   1.00
H1169  H     0.21350   0.41953   0.95869   0.00000  Uiso   1.00
H1170  H     0.27281   0.40762   0.92099   0.00000  Uiso   1.00
N1171  N     0.29099   0.49175   0.60959   0.00000  Uiso   1.00
H1172  H     0.27054   0.50803   0.59233   0.00000  Uiso   1.00
C1173  C     0.27162   0.45127   0.62216   0.00000  Uiso   1.00
H1174  H     0.27228   0.43319   0.59181   0.00000  Uiso   1.00
H1175  H     0.23338   0.45424   0.64307   0.00000  Uiso   1.00
H1176  H     0.29309   0.43473   0.64208   0.00000  Uiso   1.00
N1177  N     0.02405   0.55570   0.87810   0.00000  Uiso   1.00
H1178  H     0.02099   0.58697   0.88322   0.00000  Uiso   1.00
C1179  C     0.07109   0.53988   0.88021   0.00000  Uiso   1.00
H1180  H     0.07697   0.54684   0.91329   0.00000  Uiso   1.00
H1181  H     0.10025   0.55480   0.85384   0.00000  Uiso   1.00
H1182  H     0.07372   0.50623   0.87443   0.00000  Uiso   1.00
H1183  H     0.17456   0.53922   0.57635   0.00000  Uiso   1.00
H1184  H     0.15100   0.48460   0.91573   0.00000  Uiso   1.00
N1185  N     0.25262   0.62779   0.73163   0.00000  Uiso   1.00
H1186  H     0.24373   0.64053   0.70427   0.00000  Uiso   1.00
C1187  C     0.21028   0.62463   0.76981   0.00000  Uiso   1.00
H1188  H     0.21962   0.60734   0.79743   0.00000  Uiso   1.00
H1189  H     0.19628   0.65567   0.78181   0.00000  Uiso   1.00
H1190  H     0.18096   0.60804   0.76006   0.00000  Uiso   1.00
N1191  N     0.07792   0.37231   0.77363   0.00000  Uiso   1.00
H1192  H     0.08337   0.36077   0.80297   0.00000  Uiso   1.00
C1193  C     0.12294   0.37314   0.73812   0.00000  Uiso   1.00
H1194  H     0.13651   0.34144   0.72867   0.00000  Uiso   1.00
H1195  H     0.15115   0.38969   0.74958   0.00000  Uiso   1.00
H1196  H     0.11717   0.38933   0.70839   0.00000  Uiso   1.00
C1197  C     0.33366   0.42067   0.75035   0.00000  Uiso   1.00
C1198  C     0.66611   0.57932   0.75032   0.00000  Uiso   1.00
C1199  C     0.52132   0.52805   0.54251   0.00000  Uiso   1.00
C1200  C     0.47400   0.48761   0.95171   0.00000  Uiso   1.00
C1201  C     0.56775   0.54001   0.51876   0.00000  Uiso   1.00
C1202  C     0.42438   0.48527   0.97364   0.00000  Uiso   1.00
C1203  C     0.62884   0.35601   0.74053   0.00000  Uiso   1.00
C1204  C     0.37003   0.64397   0.76194   0.00000  Uiso   1.00
C1205  C     0.62654   0.64687   0.74140   0.00000  Uiso   1.00
C1206  C     0.37205   0.35316   0.76155   0.00000  Uiso   1.00
C1207  C     0.66484   0.62392   0.75131   0.00000  Uiso   1.00
C1208  C     0.33433   0.37607   0.75062   0.00000  Uiso   1.00
C1209  C     0.51661   0.47561   0.77910   0.00000  Uiso   1.00
C1210  C     0.48333   0.52458   0.72110   0.00000  Uiso   1.00
C1211  C     0.46693   0.47565   0.77910   0.00000  Uiso   1.00
C1212  C     0.53307   0.52439   0.72093   0.00000  Uiso   1.00
C1213  C     0.63941   0.50040   0.83600   0.00000  Uiso   1.00
C1214  C     0.36088   0.49804   0.66370   0.00000  Uiso   1.00
C1215  C     0.62466   0.50585   0.88464   0.00000  Uiso   1.00
C1216  C     0.37656   0.49437   0.61409   0.00000  Uiso   1.00
C1217  C     0.63215   0.54276   0.94994   0.00000  Uiso   1.00
C1218  C     0.35832   0.48863   0.54195   0.00000  Uiso   1.00
C1219  C     0.64996   0.53379   0.90452   0.00000  Uiso   1.00
C1220  C     0.34205   0.49221   0.58861   0.00000  Uiso   1.00
C1221  C     0.58136   0.48761   0.91061   0.00000  Uiso   1.00
C1222  C     0.42712   0.49273   0.59127   0.00000  Uiso   1.00
C1223  C     0.55845   0.50411   0.95320   0.00000  Uiso   1.00
C1224  C     0.44218   0.49717   0.54451   0.00000  Uiso   1.00
C1225  C     0.58651   0.52853   0.97423   0.00000  Uiso   1.00
C1226  C     0.40808   0.49046   0.51990   0.00000  Uiso   1.00
C1227  C     0.50832   0.49790   0.97524   0.00000  Uiso   1.00
C1228  C     0.49107   0.50644   0.52149   0.00000  Uiso   1.00
Cu1229 Cu    0.38022   0.50001   0.75000   0.00000  Uiso   1.00
Cu1230 Cu    0.61978   0.49999   0.75000   0.00000  Uiso   1.00
H1231  H     0.58888   0.55871   0.53520   0.00000  Uiso   1.00
H1232  H     0.39870   0.47901   0.95442   0.00000  Uiso   1.00
H1233  H     0.65248   0.56321   0.96540   0.00000  Uiso   1.00
H1234  H     0.66520   0.48475   0.52293   0.00000  Uiso   1.00
H1235  H     0.59963   0.37329   0.73216   0.00000  Uiso   1.00
H1236  H     0.39902   0.62665   0.77062   0.00000  Uiso   1.00
H1237  H     0.52882   0.45597   0.80228   0.00000  Uiso   1.00
H1238  H     0.47104   0.54448   0.69819   0.00000  Uiso   1.00
H1239  H     0.44156   0.45612   0.80232   0.00000  Uiso   1.00
H1240  H     0.55843   0.54393   0.69772   0.00000  Uiso   1.00
N1241  N     0.45069   0.50001   0.74999   0.00000  Uiso   1.00
N1242  N     0.54931   0.49999   0.75001   0.00000  Uiso   1.00
O1243  O     0.37291   0.43989   0.75000   0.00000  Uiso   1.00
O1244  O     0.62709   0.56011   0.75000   0.00000  Uiso   1.00
O1245  O     0.62706   0.43988   0.75000   0.00000  Uiso   1.00
O1246  O     0.37294   0.56012   0.74999   0.00000  Uiso   1.00
O1247  O     0.35186   0.50001   0.81491   0.00000  Uiso   1.00
O1248  O     0.64814   0.49999   0.68508   0.00000  Uiso   1.00
O1249  O     0.60600   0.50000   0.81492   0.00000  Uiso   1.00
O1250  O     0.39400   0.50000   0.68508   0.00000  Uiso   1.00
N1251  N     0.46261   0.47810   0.61275   0.00000  Uiso   1.00
H1252  H     0.47097   0.49682   0.63606   0.00000  Uiso   1.00
C1253  C     0.46097   0.43463   0.62269   0.00000  Uiso   1.00
H1254  H     0.49193   0.42582   0.63629   0.00000  Uiso   1.00
H1255  H     0.46413   0.41678   0.59168   0.00000  Uiso   1.00
H1256  H     0.42627   0.42685   0.64775   0.00000  Uiso   1.00
N1257  N     0.56374   0.45056   0.89628   0.00000  Uiso   1.00
H1258  H     0.57547   0.44388   0.86274   0.00000  Uiso   1.00
C1259  C     0.56724   0.41471   0.92317   0.00000  Uiso   1.00
H1260  H     0.55122   0.38798   0.91060   0.00000  Uiso   1.00
H1261  H     0.54683   0.41953   0.95869   0.00000  Uiso   1.00
H1262  H     0.60614   0.40762   0.92099   0.00000  Uiso   1.00
N1263  N     0.62432   0.49175   0.60959   0.00000  Uiso   1.00
H1264  H     0.60387   0.50803   0.59233   0.00000  Uiso   1.00
C1265  C     0.60495   0.45127   0.62216   0.00000  Uiso   1.00
H1266  H     0.60562   0.43319   0.59181   0.00000  Uiso   1.00
H1267  H     0.56672   0.45424   0.64307   0.00000  Uiso   1.00
H1268  H     0.62642   0.43473   0.64208   0.00000  Uiso   1.00
N1269  N     0.35738   0.55570   0.87810   0.00000  Uiso   1.00
H1270  H     0.35433   0.58697   0.88322   0.00000  Uiso   1.00
C1271  C     0.40442   0.53988   0.88021   0.00000  Uiso   1.00
H1272  H     0.41030   0.54684   0.91329   0.00000  Uiso   1.00
H1273  H     0.43358   0.55480   0.85384   0.00000  Uiso   1.00
H1274  H     0.40706   0.50623   0.87443   0.00000  Uiso   1.00
H1275  H     0.50789   0.53922   0.57635   0.00000  Uiso   1.00
H1276  H     0.48433   0.48460   0.91573   0.00000  Uiso   1.00
N1277  N     0.58595   0.62779   0.73163   0.00000  Uiso   1.00
H1278  H     0.57706   0.64053   0.70427   0.00000  Uiso   1.00
C1279  C     0.54361   0.62463   0.76981   0.00000  Uiso   1.00
H1280  H     0.55295   0.60734   0.79743   0.00000  Uiso   1.00
H1281  H     0.52962   0.65567   0.78181   0.00000  Uiso   1.00
H1282  H     0.51430   0.60804   0.76006   0.00000  Uiso   1.00
N1283  N     0.41125   0.37231   0.77363   0.00000  Uiso   1.00
H1284  H     0.41670   0.36077   0.80297   0.00000  Uiso   1.00
C1285  C     0.45628   0.37314   0.73812   0.00000  Uiso   1.00
H1286  H     0.46985   0.34144   0.72867   0.00000  Uiso   1.00
H1287  H     0.48448   0.38969   0.74958   0.00000  Uiso   1.00
H1288  H     0.45050   0.38933   0.70839   0.00000  Uiso   1.00
C1289  C     0.66699   0.42067   0.75035   0.00000  Uiso   1.00
C1290  C     0.99944   0.57932   0.75032   0.00000  Uiso   1.00
C1291  C     0.85465   0.52805   0.54251   0.00000  Uiso   1.00
C1292  C     0.80733   0.48761   0.95171   0.00000  Uiso   1.00
C1293  C     0.90109   0.54001   0.51876   0.00000  Uiso   1.00
C1294  C     0.75772   0.48527   0.97364   0.00000  Uiso   1.00
C1295  C     0.96217   0.35601   0.74053   0.00000  Uiso   1.00
C1296  C     0.70336   0.64397   0.76194   0.00000  Uiso   1.00
C1297  C     0.95987   0.64687   0.74140   0.00000  Uiso   1.00
C1298  C     0.70539   0.35316   0.76155   0.00000  Uiso   1.00
C1299  C     0.99818   0.62392   0.75131   0.00000  Uiso   1.00
C1300  C     0.66767   0.37607   0.75062   0.00000  Uiso   1.00
C1301  C     0.84994   0.47561   0.77910   0.00000  Uiso   1.00
C1302  C     0.81667   0.52458   0.72110   0.00000  Uiso   1.00
C1303  C     0.80026   0.47565   0.77910   0.00000  Uiso   1.00
C1304  C     0.86640   0.52439   0.72093   0.00000  Uiso   1.00
C1305  C     0.97275   0.50040   0.83600   0.00000  Uiso   1.00
C1306  C     0.69422   0.49804   0.66370   0.00000  Uiso   1.00
C1307  C     0.95799   0.50585   0.88464   0.00000  Uiso   1.00
C1308  C     0.70989   0.49437   0.61409   0.00000  Uiso   1.00
C1309  C     0.96548   0.54276   0.94994   0.00000  Uiso   1.00
C1310  C     0.69165   0.48863   0.54195   0.00000  Uiso   1.00
C1311  C     0.98330   0.53379   0.90452   0.00000  Uiso   1.00
C1312  C     0.67538   0.49221   0.58861   0.00000  Uiso   1.00
C1313  C     0.91469   0.48761   0.91061   0.00000  Uiso   1.00
C1314  C     0.76046   0.49273   0.59127   0.00000  Uiso   1.00
C1315  C     0.89178   0.50411   0.95320   0.00000  Uiso   1.00
C1316  C     0.77551   0.49717   0.54451   0.00000  Uiso   1.00
C1317  C     0.91984   0.52853   0.97423   0.00000  Uiso   1.00
C1318  C     0.74142   0.49046   0.51990   0.00000  Uiso   1.00
C1319  C     0.84165   0.49790   0.97524   0.00000  Uiso   1.00
C1320  C     0.82440   0.50644   0.52149   0.00000  Uiso   1.00
Cu1321 Cu    0.71355   0.50001   0.75000   0.00000  Uiso   1.00
Cu1322 Cu    0.95311   0.49999   0.75000   0.00000  Uiso   1.00
H1323  H     0.92221   0.55871   0.53520   0.00000  Uiso   1.00
H1324  H     0.73204   0.47901   0.95442   0.00000  Uiso   1.00
H1325  H     0.98581   0.56321   0.96540   0.00000  Uiso   1.00
H1326  H     0.99853   0.48475   0.52293   0.00000  Uiso   1.00
H1327  H     0.93297   0.37329   0.73216   0.00000  Uiso   1.00
H1328  H     0.73235   0.62665   0.77062   0.00000  Uiso   1.00
H1329  H     0.86215   0.45597   0.80228   0.00000  Uiso   1.00
H1330  H     0.80437   0.54448   0.69819   0.00000  Uiso   1.00
H1331  H     0.77489   0.45612   0.80232   0.00000  Uiso   1.00
H1332  H     0.89176   0.54393   0.69772   0.00000  Uiso   1.00
N1333  N     0.78403   0.50001   0.74999   0.00000  Uiso   1.00
N1334  N     0.88264   0.49999   0.75001   0.00000  Uiso   1.00
O1335  O     0.70625   0.43989   0.75000   0.00000  Uiso   1.00
O1336  O     0.96042   0.56011   0.75000   0.00000  Uiso   1.00
O1337  O     0.96039   0.43988   0.75000   0.00000  Uiso   1.00
O1338  O     0.70628   0.56012   0.74999   0.00000  Uiso   1.00
O1339  O     0.68519   0.50001   0.81491   0.00000  Uiso   1.00
O1340  O     0.98148   0.49999   0.68508   0.00000  Uiso   1.00
O1341  O     0.93933   0.50000   0.81492   0.00000  Uiso   1.00
O1342  O     0.72733   0.50000   0.68508   0.00000  Uiso   1.00
N1343  N     0.79595   0.47810   0.61275   0.00000  Uiso   1.00
H1344  H     0.80430   0.49682   0.63606   0.00000  Uiso   1.00
C1345  C     0.79430   0.43463   0.62269   0.00000  Uiso   1.00
H1346  H     0.82526   0.42582   0.63629   0.00000  Uiso   1.00
H1347  H     0.79747   0.41678   0.59168   0.00000  Uiso   1.00
H1348  H     0.75960   0.42685   0.64775   0.00000  Uiso   1.00
N1349  N     0.89707   0.45056   0.89628   0.00000  Uiso   1.00
H1350  H     0.90880   0.44388   0.86274   0.00000  Uiso   1.00
C1351  C     0.90058   0.41471   0.92317   0.00000  Uiso   1.00
H1352  H     0.88455   0.38798   0.91060   0.00000  Uiso   1.00
H1353  H     0.88016   0.41953   0.95869   0.00000  Uiso   1.00
H1354  H     0.93948   0.40762   0.92099   0.00000  Uiso   1.00
N1355  N     0.95765   0.49175   0.60959   0.00000  Uiso   1.00
H1356  H     0.93720   0.50803   0.59233   0.00000  Uiso   1.00
C1357  C     0.93829   0.45127   0.62216   0.00000  Uiso   1.00
H1358  H     0.93895   0.43319   0.59181   0.00000  Uiso   1.00
H1359  H     0.90005   0.45424   0.64307   0.00000  Uiso   1.00
H1360  H     0.95975   0.43473   0.64208   0.00000  Uiso   1.00
N1361  N     0.69071   0.55570   0.87810   0.00000  Uiso   1.00
H1362  H     0.68766   0.58697   0.88322   0.00000  Uiso   1.00
C1363  C     0.73775   0.53988   0.88021   0.00000  Uiso   1.00
H1364  H     0.74363   0.54684   0.91329   0.00000  Uiso   1.00
H1365  H     0.76692   0.55480   0.85384   0.00000  Uiso   1.00
H1366  H     0.74039   0.50623   0.87443   0.00000  Uiso   1.00
H1367  H     0.84122   0.53922   0.57635   0.00000  Uiso   1.00
H1368  H     0.81766   0.48460   0.91573   0.00000  Uiso   1.00
N1369  N     0.91929   0.62779   0.73163   0.00000  Uiso   1.00
H1370  H     0.91039   0.64053   0.70427   0.00000  Uiso   1.00
C1371  C     0.87695   0.62463   0.76981   0.00000  Uiso   1.00
H1372  H     0.88628   0.60734   0.79743   0.00000  Uiso   1.00
H1373  H     0.86295   0.65567   0.78181   0.00000  Uiso   1.00
H1374  H     0.84763   0.60804   0.76006   0.00000  Uiso   1.00
N1375  N     0.74458   0.37231   0.77363   0.00000  Uiso   1.00
H1376  H     0.75004   0.36077   0.80297   0.00000  Uiso   1.00
C1377  C     0.78961   0.37314   0.73812   0.00000  Uiso   1.00
H1378  H     0.80318   0.34144   0.72867   0.00000  Uiso   1.00
H1379  H     0.81782   0.38969   0.74958   0.00000  Uiso   1.00
H1380  H     0.78384   0.38933   0.70839   0.00000  Uiso   1.00
C1381  C     0.00032   0.75401   0.75035   0.00000  Uiso   1.00
C1382  C     0.33278   0.91266   0.75032   0.00000  Uiso   1.00
C1383  C     0.18798   0.86139   0.54251   0.00000  Uiso   1.00
C1384  C     0.14067   0.82095   0.95171   0.00000  Uiso   1.00
C1385  C     0.23442   0.87334   0.51876   0.00000  Uiso   1.00
C1386  C     0.09105   0.81861   0.97364   0.00000  Uiso   1.00
C1387  C     0.29551   0.68934   0.74053   0.00000  Uiso   1.00
C1388  C     0.03670   0.97731   0.76194   0.00000  Uiso   1.00
C1389  C     0.29321   0.98020   0.74140   0.00000  Uiso   1.00
C1390  C     0.03872   0.68649   0.76155   0.00000  Uiso   1.00
C1391  C     0.33151   0.95726   0.75131   0.00000  Uiso   1.00
C1392  C     0.00100   0.70940   0.75062   0.00000  Uiso   1.00
C1393  C     0.18328   0.80894   0.77910   0.00000  Uiso   1.00
C1394  C     0.15000   0.85792   0.72110   0.00000  Uiso   1.00
C1395  C     0.13359   0.80898   0.77910   0.00000  Uiso   1.00
C1396  C     0.19973   0.85772   0.72093   0.00000  Uiso   1.00
C1397  C     0.30608   0.83374   0.83600   0.00000  Uiso   1.00
C1398  C     0.02755   0.83137   0.66370   0.00000  Uiso   1.00
C1399  C     0.29132   0.83919   0.88464   0.00000  Uiso   1.00
C1400  C     0.04322   0.82771   0.61409   0.00000  Uiso   1.00
C1401  C     0.29881   0.87610   0.94994   0.00000  Uiso   1.00
C1402  C     0.02499   0.82197   0.54195   0.00000  Uiso   1.00
C1403  C     0.31663   0.86712   0.90452   0.00000  Uiso   1.00
C1404  C     0.00871   0.82554   0.58861   0.00000  Uiso   1.00
C1405  C     0.24803   0.82094   0.91061   0.00000  Uiso   1.00
C1406  C     0.09379   0.82606   0.59127   0.00000  Uiso   1.00
C1407  C     0.22512   0.83745   0.95320   0.00000  Uiso   1.00
C1408  C     0.10885   0.83050   0.54451   0.00000  Uiso   1.00
C1409  C     0.25317   0.86186   0.97423   0.00000  Uiso   1.00
C1410  C     0.07475   0.82380   0.51990   0.00000  Uiso   1.00
C1411  C     0.17499   0.83124   0.97524   0.00000  Uiso   1.00
C1412  C     0.15774   0.83977   0.52149   0.00000  Uiso   1.00
Cu1413 Cu    0.04689   0.83334   0.75000   0.00000  Uiso   1.00
Cu1414 Cu    0.28645   0.83333   0.75000   0.00000  Uiso   1.00
H1415  H     0.25555   0.89204   0.53520   0.00000  Uiso   1.00
H1416  H     0.06537   0.81234   0.95442   0.00000  Uiso   1.00
H1417  H     0.31914   0.89654   0.96540   0.00000  Uiso   1.00
H1418  H     0.33186   0.81808   0.52293   0.00000  Uiso   1.00
H1419  H     0.26630   0.70662   0.73216   0.00000  Uiso   1.00
H1420  H     0.06568   0.95998   0.77062   0.00000  Uiso   1.00
H1421  H     0.19549   0.78931   0.80228   0.00000  Uiso   1.00
H1422  H     0.13770   0.87782   0.69819   0.00000  Uiso   1.00
H1423  H     0.10822   0.78945   0.80232   0.00000  Uiso   1.00
H1424  H     0.22510   0.87726   0.69772   0.00000  Uiso   1.00
N1425  N     0.11736   0.83334   0.74999   0.00000  Uiso   1.00
N1426  N     0.21597   0.83332   0.75001   0.00000  Uiso   1.00
O1427  O     0.03958   0.77322   0.75000   0.00000  Uiso   1.00
O1428  O     0.29375   0.89345   0.75000   0.00000  Uiso   1.00
O1429  O     0.29372   0.77321   0.75000   0.00000  Uiso   1.00
O1430  O     0.03961   0.89346   0.74999   0.00000  Uiso   1.00
O1431  O     0.01852   0.83334   0.81491   0.00000  Uiso   1.00
O1432  O     0.31481   0.83332   0.68508   0.00000  Uiso   1.00
O1433  O     0.27267   0.83333   0.81492   0.00000  Uiso   1.00
O1434  O     0.06067   0.83333   0.68508   0.00000  Uiso   1.00
N1435  N     0.12928   0.81143   0.61275   0.00000  Uiso   1.00
H1436  H     0.13763   0.83015   0.63606   0.00000  Uiso   1.00
C1437  C     0.12764   0.76796   0.62269   0.00000  Uiso   1.00
H1438  H     0.15859   0.75915   0.63629   0.00000  Uiso   1.00
H1439  H     0.13080   0.75011   0.59168   0.00000  Uiso   1.00
H1440  H     0.09294   0.76018   0.64775   0.00000  Uiso   1.00
N1441  N     0.23041   0.78389   0.89628   0.00000  Uiso   1.00
H1442  H     0.24213   0.77722   0.86274   0.00000  Uiso   1.00
C1443  C     0.23391   0.74805   0.92317   0.00000  Uiso   1.00
H1444  H     0.21789   0.72131   0.91060   0.00000  Uiso   1.00
H1445  H     0.21350   0.75286   0.95869   0.00000  Uiso   1.00
H1446  H     0.27281   0.74095   0.92099   0.00000  Uiso   1.00
N1447  N     0.29099   0.82508   0.60959   0.00000  Uiso   1.00
H1448  H     0.27054   0.84136   0.59233   0.00000  Uiso   1.00
C1449  C     0.27162   0.78461   0.62216   0.00000  Uiso   1.00
H1450  H     0.27228   0.76652   0.59181   0.00000  Uiso   1.00
H1451  H     0.23338   0.78757   0.64307   0.00000  Uiso   1.00
H1452  H     0.29309   0.76806   0.64208   0.00000  Uiso   1.00
N1453  N     0.02405   0.88903   0.87810   0.00000  Uiso   1.00
H1454  H     0.02099   0.92030   0.88322   0.00000  Uiso   1.00
C1455  C     0.07109   0.87322   0.88021   0.00000  Uiso   1.00
H1456  H     0.07697   0.88017   0.91329   0.00000  Uiso   1.00
H1457  H     0.10025   0.88814   0.85384   0.00000  Uiso   1.00
H1458  H     0.07372   0.83956   0.87443   0.00000  Uiso   1.00
H1459  H     0.17456   0.87255   0.57635   0.00000  Uiso   1.00
H1460  H     0.15100   0.81794   0.91573   0.00000  Uiso   1.00
N1461  N     0.25262   0.96113   0.73163   0.00000  Uiso   1.00
H1462  H     0.24373   0.97386   0.70427   0.00000  Uiso   1.00
C1463  C     0.21028   0.95796   0.76981   0.00000  Uiso   1.00
H1464  H     0.21962   0.94067   0.79743   0.00000  Uiso   1.00
H1465  H     0.19628   0.98901   0.78181   0.00000  Uiso   1.00
H1466  H     0.18096   0.94137   0.76006   0.00000  Uiso   1.00
N1467  N     0.07792   0.70565   0.77363   0.00000  Uiso   1.00
H1468  H     0.08337   0.69410   0.80297   0.00000  Uiso   1.00
C1469  C     0.12294   0.70647   0.73812   0.00000  Uiso   1.00
H1470  H     0.13651   0.67477   0.72867   0.00000  Uiso   1.00
H1471  H     0.15115   0.72302   0.74958   0.00000  Uiso   1.00
H1472  H     0.11717   0.72266   0.70839   0.00000  Uiso   1.00
C1473  C     0.33366   0.75401   0.75035   0.00000  Uiso   1.00
C1474  C     0.66611   0.91266   0.75032   0.00000  Uiso   1.00
C1475  C     0.52132   0.86139   0.54251   0.00000  Uiso   1.00
C1476  C     0.47400   0.82095   0.95171   0.00000  Uiso   1.00
C1477  C     0.56775   0.87334   0.51876   0.00000  Uiso   1.00
C1478  C     0.42438   0.81861   0.97364   0.00000  Uiso   1.00
C1479  C     0.62884   0.68934   0.74053   0.00000  Uiso   1.00
C1480  C     0.37003   0.97731   0.76194   0.00000  Uiso   1.00
C1481  C     0.62654   0.98020   0.74140   0.00000  Uiso   1.00
C1482  C     0.37205   0.68649   0.76155   0.00000  Uiso   1.00
C1483  C     0.66484   0.95726   0.75131   0.00000  Uiso   1.00
C1484  C     0.33433   0.70940   0.75062   0.00000  Uiso   1.00
C1485  C     0.51661   0.80894   0.77910   0.00000  Uiso   1.00
C1486  C     0.48333   0.85792   0.72110   0.00000  Uiso   1.00
C1487  C     0.46693   0.80898   0.77910   0.00000  Uiso   1.00
C1488  C     0.53307   0.85772   0.72093   0.00000  Uiso   1.00
C1489  C     0.63941   0.83374   0.83600   0.00000  Uiso   1.00
C1490  C     0.36088   0.83137   0.66370   0.00000  Uiso   1.00
C1491  C     0.62466   0.83919   0.88464   0.00000  Uiso   1.00
C1492  C     0.37656   0.82771   0.61409   0.00000  Uiso   1.00
C1493  C     0.63215   0.87610   0.94994   0.00000  Uiso   1.00
C1494  C     0.35832   0.82197   0.54195   0.00000  Uiso   1.00
C1495  C     0.64996   0.86712   0.90452   0.00000  Uiso   1.00
C1496  C     0.34205   0.82554   0.58861   0.00000  Uiso   1.00
C1497  C     0.58136   0.82094   0.91061   0.00000  Uiso   1.00
C1498  C     0.42712   0.82606   0.59127   0.00000  Uiso   1.00
C1499  C     0.55845   0.83745   0.95320   0.00000  Uiso   1.00
C1500  C     0.44218   0.83050   0.54451   0.00000  Uiso   1.00
C1501  C     0.58651   0.86186   0.97423   0.00000  Uiso   1.00
C1502  C     0.40808   0.82380   0.51990   0.00000  Uiso   1.00
C1503  C     0.50832   0.83124   0.97524   0.00000  Uiso   1.00
C1504  C     0.49107   0.83977   0.52149   0.00000  Uiso   1.00
Cu1505 Cu    0.38022   0.83334   0.75000   0.00000  Uiso   1.00
Cu1506 Cu    0.61978   0.83333   0.75000   0.00000  Uiso   1.00
H1507  H     0.58888   0.89204   0.53520   0.00000  Uiso   1.00
H1508  H     0.39870   0.81234   0.95442   0.00000  Uiso   1.00
H1509  H     0.65248   0.89654   0.96540   0.00000  Uiso   1.00
H1510  H     0.66520   0.81808   0.52293   0.00000  Uiso   1.00
H1511  H     0.59963   0.70662   0.73216   0.00000  Uiso   1.00
H1512  H     0.39902   0.95998   0.77062   0.00000  Uiso   1.00
H1513  H     0.52882   0.78931   0.80228   0.00000  Uiso   1.00
H1514  H     0.47104   0.87782   0.69819   0.00000  Uiso   1.00
H1515  H     0.44156   0.78945   0.80232   0.00000  Uiso   1.00
H1516  H     0.55843   0.87726   0.69772   0.00000  Uiso   1.00
N1517  N     0.45069   0.83334   0.74999   0.00000  Uiso   1.00
N1518  N     0.54931   0.83332   0.75001   0.00000  Uiso   1.00
O1519  O     0.37291   0.77322   0.75000   0.00000  Uiso   1.00
O1520  O     0.62709   0.89345   0.75000   0.00000  Uiso   1.00
O1521  O     0.62706   0.77321   0.75000   0.00000  Uiso   1.00
O1522  O     0.37294   0.89346   0.74999   0.00000  Uiso   1.00
O1523  O     0.35186   0.83334   0.81491   0.00000  Uiso   1.00
O1524  O     0.64814   0.83332   0.68508   0.00000  Uiso   1.00
O1525  O     0.60600   0.83333   0.81492   0.00000  Uiso   1.00
O1526  O     0.39400   0.83333   0.68508   0.00000  Uiso   1.00
N1527  N     0.46261   0.81143   0.61275   0.00000  Uiso   1.00
H1528  H     0.47097   0.83015   0.63606   0.00000  Uiso   1.00
C1529  C     0.46097   0.76796   0.62269   0.00000  Uiso   1.00
H1530  H     0.49193   0.75915   0.63629   0.00000  Uiso   1.00
H1531  H     0.46413   0.75011   0.59168   0.00000  Uiso   1.00
H1532  H     0.42627   0.76018   0.64775   0.00000  Uiso   1.00
N1533  N     0.56374   0.78389   0.89628   0.00000  Uiso   1.00
H1534  H     0.57547   0.77722   0.86274   0.00000  Uiso   1.00
C1535  C     0.56724   0.74805   0.92317   0.00000  Uiso   1.00
H1536  H     0.55122   0.72131   0.91060   0.00000  Uiso   1.00
H1537  H     0.54683   0.75286   0.95869   0.00000  Uiso   1.00
H1538  H     0.60614   0.74095   0.92099   0.00000  Uiso   1.00
N1539  N     0.62432   0.82508   0.60959   0.00000  Uiso   1.00
H1540  H     0.60387   0.84136   0.59233   0.00000  Uiso   1.00
C1541  C     0.60495   0.78461   0.62216   0.00000  Uiso   1.00
H1542  H     0.60562   0.76652   0.59181   0.00000  Uiso   1.00
H1543  H     0.56672   0.78757   0.64307   0.00000  Uiso   1.00
H1544  H     0.62642   0.76806   0.64208   0.00000  Uiso   1.00
N1545  N     0.35738   0.88903   0.87810   0.00000  Uiso   1.00
H1546  H     0.35433   0.92030   0.88322   0.00000  Uiso   1.00
C1547  C     0.40442   0.87322   0.88021   0.00000  Uiso   1.00
H1548  H     0.41030   0.88017   0.91329   0.00000  Uiso   1.00
H1549  H     0.43358   0.88814   0.85384   0.00000  Uiso   1.00
H1550  H     0.40706   0.83956   0.87443   0.00000  Uiso   1.00
H1551  H     0.50789   0.87255   0.57635   0.00000  Uiso   1.00
H1552  H     0.48433   0.81794   0.91573   0.00000  Uiso   1.00
N1553  N     0.58595   0.96113   0.73163   0.00000  Uiso   1.00
H1554  H     0.57706   0.97386   0.70427   0.00000  Uiso   1.00
C1555  C     0.54361   0.95796   0.76981   0.00000  Uiso   1.00
H1556  H     0.55295   0.94067   0.79743   0.00000  Uiso   1.00
H1557  H     0.52962   0.98901   0.78181   0.00000  Uiso   1.00
H1558  H     0.51430   0.94137   0.76006   0.00000  Uiso   1.00
N1559  N     0.41125   0.70565   0.77363   0.00000  Uiso   1.00
H1560  H     0.41670   0.69410   0.80297   0.00000  Uiso   1.00
C1561  C     0.45628   0.70647   0.73812   0.00000  Uiso   1.00
H1562  H     0.46985   0.67477   0.72867   0.00000  Uiso   1.00
H1563  H     0.48448   0.72302   0.74958   0.00000  Uiso   1.00
H1564  H     0.45050   0.72266   0.70839   0.00000  Uiso   1.00
C1565  C     0.66699   0.75401   0.75035   0.00000  Uiso   1.00
C1566  C     0.99944   0.91266   0.75032   0.00000  Uiso   1.00
C1567  C     0.85465   0.86139   0.54251   0.00000  Uiso   1.00
C1568  C     0.80733   0.82095   0.95171   0.00000  Uiso   1.00
C1569  C     0.90109   0.87334   0.51876   0.00000  Uiso   1.00
C1570  C     0.75772   0.81861   0.97364   0.00000  Uiso   1.00
C1571  C     0.96217   0.68934   0.74053   0.00000  Uiso   1.00
C1572  C     0.70336   0.97731   0.76194   0.00000  Uiso   1.00
C1573  C     0.95987   0.98020   0.74140   0.00000  Uiso   1.00
C1574  C     0.70539   0.68649   0.76155   0.00000  Uiso   1.00
C1575  C     0.99818   0.95726   0.75131   0.00000  Uiso   1.00
C1576  C     0.66767   0.70940   0.75062   0.00000  Uiso   1.00
C1577  C     0.84994   0.80894   0.77910   0.00000  Uiso   1.00
C1578  C     0.81667   0.85792   0.72110   0.00000  Uiso   1.00
C1579  C     0.80026   0.80898   0.77910   0.00000  Uiso   1.00
C1580  C     0.86640   0.85772   0.72093   0.00000  Uiso   1.00
C1581  C     0.97275   0.83374   0.83600   0.00000  Uiso   1.00
C1582  C     0.69422   0.83137   0.66370   0.00000  Uiso   1.00
C1583  C     0.95799   0.83919   0.88464   0.00000  Uiso   1.00
C1584  C     0.70989   0.82771   0.61409   0.00000  Uiso   1.00
C1585  C     0.96548   0.87610   0.94994   0.00000  Uiso   1.00
C1586  C     0.69165   0.82197   0.54195   0.00000  Uiso   1.00
C1587  C     0.98330   0.86712   0.90452   0.00000  Uiso   1.00
C1588  C     0.67538   0.82554   0.58861   0.00000  Uiso   1.00
C1589  C     0.91469   0.82094   0.91061   0.00000  Uiso   1.00
C1590  C     0.76046   0.82606   0.59127   0.00000  Uiso   1.00
C1591  C     0.89178   0.83745   0.95320   0.00000  Uiso   1.00
C1592  C     0.77551   0.83050   0.54451   0.00000  Uiso   1.00
C1593  C     0.91984   0.86186   0.97423   0.00000  Uiso   1.00
C1594  C     0.74142   0.82380   0.51990   0.00000  Uiso   1.00
C1595  C     0.84165   0.83124   0.97524   0.00000  Uiso   1.00
C1596  C     0.82440   0.83977   0.52149   0.00000  Uiso   1.00
Cu1597 Cu    0.71355   0.83334   0.75000   0.00000  Uiso   1.00
Cu1598 Cu    0.95311   0.83333   0.75000   0.00000  Uiso   1.00
H1599  H     0.92221   0.89204   0.53520   0.00000  Uiso   1.00
H1600  H     0.73204   0.81234   0.95442   0.00000  Uiso   1.00
H1601  H     0.98581   0.89654   0.96540   0.00000  Uiso   1.00
H1602  H     0.99853   0.81808   0.52293   0.00000  Uiso   1.00
H1603  H     0.93297   0.70662   0.73216   0.00000  Uiso   1.00
H1604  H     0.73235   0.95998   0.77062   0.00000  Uiso   1.00
H1605  H     0.86215   0.78931   0.80228   0.00000  Uiso   1.00
H1606  H     0.80437   0.87782   0.69819   0.00000  Uiso   1.00
H1607  H     0.77489   0.78945   0.80232   0.00000  Uiso   1.00
H1608  H     0.89176   0.87726   0.69772   0.00000  Uiso   1.00
N1609  N     0.78403   0.83334   0.74999   0.00000  Uiso   1.00
N1610  N     0.88264   0.83332   0.75001   0.00000  Uiso   1.00
O1611  O     0.70625   0.77322   0.75000   0.00000  Uiso   1.00
O1612  O     0.96042   0.89345   0.75000   0.00000  Uiso   1.00
O1613  O     0.96039   0.77321   0.75000   0.00000  Uiso   1.00
O1614  O     0.70628   0.89346   0.74999   0.00000  Uiso   1.00
O1615  O     0.68519   0.83334   0.81491   0.00000  Uiso   1.00
O1616  O     0.98148   0.83332   0.68508   0.00000  Uiso   1.00
O1617  O     0.93933   0.83333   0.81492   0.00000  Uiso   1.00
O1618  O     0.72733   0.83333   0.68508   0.00000  Uiso   1.00
N1619  N     0.79595   0.81143   0.61275   0.00000  Uiso   1.00
H1620  H     0.80430   0.83015   0.63606   0.00000  Uiso   1.00
C1621  C     0.79430   0.76796   0.62269   0.00000  Uiso   1.00
H1622  H     0.82526   0.75915   0.63629   0.00000  Uiso   1.00
H1623  H     0.79747   0.75011   0.59168   0.00000  Uiso   1.00
H1624  H     0.75960   0.76018   0.64775   0.00000  Uiso   1.00
N1625  N     0.89707   0.78389   0.89628   0.00000  Uiso   1.00
H1626  H     0.90880   0.77722   0.86274   0.00000  Uiso   1.00
C1627  C     0.90058   0.74805   0.92317   0.00000  Uiso   1.00
H1628  H     0.88455   0.72131   0.91060   0.00000  Uiso   1.00
H1629  H     0.88016   0.75286   0.95869   0.00000  Uiso   1.00
H1630  H     0.93948   0.74095   0.92099   0.00000  Uiso   1.00
N1631  N     0.95765   0.82508   0.60959   0.00000  Uiso   1.00
H1632  H     0.93720   0.84136   0.59233   0.00000  Uiso   1.00
C1633  C     0.93829   0.78461   0.62216   0.00000  Uiso   1.00
H1634  H     0.93895   0.76652   0.59181   0.00000  Uiso   1.00
H1635  H     0.90005   0.78757   0.64307   0.00000  Uiso   1.00
H1636  H     0.95975   0.76806   0.64208   0.00000  Uiso   1.00
N1637  N     0.69071   0.88903   0.87810   0.00000  Uiso   1.00
H1638  H     0.68766   0.92030   0.88322   0.00000  Uiso   1.00
C1639  C     0.73775   0.87322   0.88021   0.00000  Uiso   1.00
H1640  H     0.74363   0.88017   0.91329   0.00000  Uiso   1.00
H1641  H     0.76692   0.88814   0.85384   0.00000  Uiso   1.00
H1642  H     0.74039   0.83956   0.87443   0.00000  Uiso   1.00
H1643  H     0.84122   0.87255   0.57635   0.00000  Uiso   1.00
H1644  H     0.81766   0.81794   0.91573   0.00000  Uiso   1.00
N1645  N     0.91929   0.96113   0.73163   0.00000  Uiso   1.00
H1646  H     0.91039   0.97386   0.70427   0.00000  Uiso   1.00
C1647  C     0.87695   0.95796   0.76981   0.00000  Uiso   1.00
H1648  H     0.88628   0.94067   0.79743   0.00000  Uiso   1.00
H1649  H     0.86295   0.98901   0.78181   0.00000  Uiso   1.00
H1650  H     0.84763   0.94137   0.76006   0.00000  Uiso   1.00
N1651  N     0.74458   0.70565   0.77363   0.00000  Uiso   1.00
H1652  H     0.75004   0.69410   0.80297   0.00000  Uiso   1.00
C1653  C     0.78961   0.70647   0.73812   0.00000  Uiso   1.00
H1654  H     0.80318   0.67477   0.72867   0.00000  Uiso   1.00
H1655  H     0.81782   0.72302   0.74958   0.00000  Uiso   1.00
H1656  H     0.78384   0.72266   0.70839   0.00000  Uiso   1.00
loop_
_geom_bond_atom_site_label_1
_geom_bond_atom_site_label_2
_geom_bond_distance
_geom_bond_site_symmetry_2
_ccdc_geom_bond_type
C1     C12     1.454   .     S
C1     O47     1.286   .     A
C1     O233    1.292   1_455 S
C2     C11     1.454   .     S
C2     O48     1.285   .     A
C2     O142    1.293   .     S
C3     H79     1.080   .     S
C3     C32     1.412   .     A
C3     C5      1.387   .     A
C4     H80     1.080   .     S
C4     C6      1.395   .     A
C4     C31     1.414   .     A
C5     H35     1.084   .     S
C5     C857    1.393   1_554 S
C6     H36     1.084   .     S
C6     C858    1.396   .     S
C7     H39     1.084   .     S
C7     C561    1.387   1_545 S
C7     C104    1.399   .     S
C8     H40     1.084   .     S
C8     C286    1.388   .     S
C8     C195    1.399   1_455 S
C9     C11     1.413   .     A
C9     N81     1.424   .     S
C9     C283    1.387   .     S
C10    N87     1.423   .     S
C10    C12     1.412   .     A
C10    C560    1.388   1_545 S
C11    C100    1.399   .     S
C12    C191    1.399   1_455 S
C13    H41     1.081   .     S
C13    N46     1.367   .     A
C13    C15     1.414   .     A
C14    H42     1.081   .     S
C14    N45     1.367   .     A
C14    C16     1.414   .     A
C15    N45     1.365   .     A
C15    H43     1.082   .     S
C16    H44     1.082   .     S
C16    N46     1.365   .     A
C17    O53     1.292   .     A
C17    C19     1.465   .     S
C17    O143    1.290   .     S
C18    C20     1.488   .     S
C18    O54     1.294   .     A
C18    O236    1.300   1_455 S
C19    C23     1.414   .     A
C19    C25     1.413   .     A
C20    C24     1.421   .     A
C20    C26     1.422   .     A
C21    C23     1.395   .     A
C21    C29     1.397   .     A
C21    H37     1.085   .     S
C22    C24     1.402   .     A
C22    C30     1.398   .     A
C22    H222    1.085   1_455 S
C23    N165    1.424   .     S
C24    N251    1.423   1_455 S
C25    N61     1.434   .     S
C25    C27     1.414   .     A
C26    N55     1.427   .     S
C26    C28     1.405   .     A
C27    C29     1.416   .     A
C27    C31     1.422   .     A
C28    C32     1.417   .     A
C28    C30     1.408   .     A
C29    C833    1.393   .     S
C30    C834    1.396   1_554 S
C31    C860    1.415   .     S
C32    C859    1.415   1_554 S
Cu33   N45     2.005   .     S
Cu33   O50     1.967   .     S
Cu33   O47     1.974   .     S
Cu33   O54     1.946   .     S
Cu33   O51     1.958   .     S
Cu33   Cu218   2.668   1_455 S
Cu34   N46     2.005   .     S
Cu34   O48     1.974   .     S
Cu34   O49     1.967   .     S
Cu34   O52     1.958   .     S
Cu34   O53     1.946   .     S
Cu34   Cu125   2.668   .     S
H38    C114    1.085   .     S
O49    C93     1.292   .     S
O50    C186    1.293   1_455 S
O51    C201    1.290   1_455 S
O52    C110    1.300   .     S
N55    H56     1.029   .     S
N55    C57     1.446   .     S
C57    H59     1.111   .     S
C57    H60     1.110   .     S
C57    H58     1.109   .     S
N61    C63     1.448   .     S
N61    H62     1.028   .     S
C63    H65     1.110   .     S
C63    H66     1.112   .     S
C63    H64     1.111   .     S
N67    H68     1.031   .     S
N67    C69     1.447   .     S
N67    C116    1.423   .     S
C69    H71     1.109   .     S
C69    H70     1.111   .     S
C69    H72     1.112   .     S
N73    H74     1.032   .     S
N73    C75     1.445   .     S
N73    C207    1.424   1_455 S
C75    H76     1.110   .     S
C75    H77     1.110   .     S
C75    H78     1.111   .     S
N81    H82     1.032   .     S
N81    C83     1.448   .     S
C83    H84     1.111   .     S
C83    H85     1.112   .     S
C83    H86     1.110   .     S
N87    H88     1.032   .     S
N87    C89     1.447   .     S
C89    H91     1.110   .     S
C89    H92     1.109   .     S
C89    H90     1.111   .     S
C93    C104    1.454   .     S
C93    O139    1.286   .     A
C94    C103    1.454   .     S
C94    O140    1.285   .     A
C94    O234    1.293   .     S
C95    H171    1.080   .     S
C95    C124    1.412   .     A
C95    C97     1.387   .     A
C96    H172    1.080   .     S
C96    C98     1.395   .     A
C96    C123    1.414   .     A
C97    H127    1.084   .     S
C97    C949    1.393   1_554 S
C98    H128    1.084   .     S
C98    C950    1.396   .     S
C99    H131    1.084   .     S
C99    C653    1.387   1_545 S
C99    C196    1.399   .     S
C100   H132    1.084   .     S
C100   C378    1.388   .     S
C101   C103    1.413   .     A
C101   N173    1.424   .     S
C101   C375    1.387   .     S
C102   N179    1.423   .     S
C102   C104    1.412   .     A
C102   C652    1.388   1_545 S
C103   C192    1.399   .     S
C105   H133    1.081   .     S
C105   N138    1.367   .     A
C105   C107    1.414   .     A
C106   H134    1.081   .     S
C106   N137    1.367   .     A
C106   C108    1.414   .     A
C107   N137    1.365   .     A
C107   H135    1.082   .     S
C108   H136    1.082   .     S
C108   N138    1.365   .     A
C109   O145    1.292   .     A
C109   C111    1.465   .     S
C109   O235    1.290   .     S
C110   C112    1.488   .     S
C110   O146    1.294   .     A
C111   C115    1.414   .     A
C111   C117    1.413   .     A
C112   C116    1.421   .     A
C112   C118    1.422   .     A
C113   C115    1.395   .     A
C113   C121    1.397   .     A
C113   H129    1.085   .     S
C114   C116    1.402   .     A
C114   C122    1.398   .     A
C115   N257    1.424   .     S
C117   N153    1.434   .     S
C117   C119    1.414   .     A
C118   N147    1.427   .     S
C118   C120    1.405   .     A
C119   C121    1.416   .     A
C119   C123    1.422   .     A
C120   C124    1.417   .     A
C120   C122    1.408   .     A
C121   C925    1.393   .     S
C122   C926    1.396   1_554 S
C123   C952    1.415   .     S
C124   C951    1.415   1_554 S
Cu125  N137    2.005   .     S
Cu125  O142    1.967   .     S
Cu125  O139    1.974   .     S
Cu125  O146    1.946   .     S
Cu125  O143    1.958   .     S
Cu126  N138    2.005   .     S
Cu126  O140    1.974   .     S
Cu126  O141    1.967   .     S
Cu126  O144    1.958   .     S
Cu126  O145    1.946   .     S
Cu126  Cu217   2.668   .     S
H130   C206    1.085   .     S
O141   C185    1.292   .     S
O144   C202    1.300   .     S
N147   H148    1.029   .     S
N147   C149    1.446   .     S
C149   H151    1.111   .     S
C149   H152    1.110   .     S
C149   H150    1.109   .     S
N153   C155    1.448   .     S
N153   H154    1.028   .     S
C155   H157    1.110   .     S
C155   H158    1.112   .     S
C155   H156    1.111   .     S
N159   H160    1.031   .     S
N159   C161    1.447   .     S
N159   C208    1.423   .     S
C161   H163    1.109   .     S
C161   H162    1.111   .     S
C161   H164    1.112   .     S
N165   H166    1.032   .     S
N165   C167    1.445   .     S
C167   H168    1.110   .     S
C167   H169    1.110   .     S
C167   H170    1.111   .     S
N173   H174    1.032   .     S
N173   C175    1.448   .     S
C175   H176    1.111   .     S
C175   H177    1.112   .     S
C175   H178    1.110   .     S
N179   H180    1.032   .     S
N179   C181    1.447   .     S
C181   H183    1.110   .     S
C181   H184    1.109   .     S
C181   H182    1.111   .     S
C185   C196    1.454   .     S
C185   O231    1.286   .     A
C186   C195    1.454   .     S
C186   O232    1.285   .     A
C186   O50     1.293   1_655 S
C187   H263    1.080   .     S
C187   C216    1.412   .     A
C187   C189    1.387   .     A
C188   H264    1.080   .     S
C188   C190    1.395   .     A
C188   C215    1.414   .     A
C189   H219    1.084   .     S
C189   C1041   1.393   1_554 S
C190   H220    1.084   .     S
C190   C1042   1.396   .     S
C191   H223    1.084   .     S
C191   C745    1.387   1_545 S
C191   C12     1.399   1_655 S
C192   H224    1.084   .     S
C192   C470    1.388   .     S
C193   C195    1.413   .     A
C193   N265    1.424   .     S
C193   C467    1.387   .     S
C194   N271    1.423   .     S
C194   C196    1.412   .     A
C194   C744    1.388   1_545 S
C195   C8      1.399   1_655 S
C197   H225    1.081   .     S
C197   N230    1.367   .     A
C197   C199    1.414   .     A
C198   H226    1.081   .     S
C198   N229    1.367   .     A
C198   C200    1.414   .     A
C199   N229    1.365   .     A
C199   H227    1.082   .     S
C200   H228    1.082   .     S
C200   N230    1.365   .     A
C201   O237    1.292   .     A
C201   C203    1.465   .     S
C201   O51     1.290   1_655 S
C202   C204    1.488   .     S
C202   O238    1.294   .     A
C203   C207    1.414   .     A
C203   C209    1.413   .     A
C204   C208    1.421   .     A
C204   C210    1.422   .     A
C205   C207    1.395   .     A
C205   C213    1.397   .     A
C205   H221    1.085   .     S
C206   C208    1.402   .     A
C206   C214    1.398   .     A
C207   N73     1.424   1_655 S
C209   N245    1.434   .     S
C209   C211    1.414   .     A
C210   N239    1.427   .     S
C210   C212    1.405   .     A
C211   C213    1.416   .     A
C211   C215    1.422   .     A
C212   C216    1.417   .     A
C212   C214    1.408   .     A
C213   C1017   1.393   .     S
C214   C1018   1.396   1_554 S
C215   C1044   1.415   .     S
C216   C1043   1.415   1_554 S
Cu217  N229    2.005   .     S
Cu217  O234    1.967   .     S
Cu217  O231    1.974   .     S
Cu217  O238    1.946   .     S
Cu217  O235    1.958   .     S
Cu218  N230    2.005   .     S
Cu218  O232    1.974   .     S
Cu218  O233    1.967   .     S
Cu218  O236    1.958   .     S
Cu218  O237    1.946   .     S
Cu218  Cu33    2.668   1_655 S
H222   C22     1.085   1_655 S
O233   C1      1.292   1_655 S
O236   C18     1.300   1_655 S
N239   H240    1.029   .     S
N239   C241    1.446   .     S
C241   H243    1.111   .     S
C241   H244    1.110   .     S
C241   H242    1.109   .     S
N245   C247    1.448   .     S
N245   H246    1.028   .     S
C247   H249    1.110   .     S
C247   H250    1.112   .     S
C247   H248    1.111   .     S
N251   H252    1.031   .     S
N251   C253    1.447   .     S
N251   C24     1.423   1_655 S
C253   H255    1.109   .     S
C253   H254    1.111   .     S
C253   H256    1.112   .     S
N257   H258    1.032   .     S
N257   C259    1.445   .     S
C259   H260    1.110   .     S
C259   H261    1.110   .     S
C259   H262    1.111   .     S
N265   H266    1.032   .     S
N265   C267    1.448   .     S
C267   H268    1.111   .     S
C267   H269    1.112   .     S
C267   H270    1.110   .     S
N271   H272    1.032   .     S
N271   C273    1.447   .     S
C273   H275    1.110   .     S
C273   H276    1.109   .     S
C273   H274    1.111   .     S
C277   C288    1.454   .     S
C277   O323    1.286   .     A
C277   O509    1.292   1_455 S
C278   C287    1.454   .     S
C278   O324    1.285   .     A
C278   O418    1.293   .     S
C279   H355    1.080   .     S
C279   C308    1.412   .     A
C279   C281    1.387   .     A
C280   H356    1.080   .     S
C280   C282    1.395   .     A
C280   C307    1.414   .     A
C281   H311    1.084   .     S
C281   C1133   1.393   1_554 S
C282   H312    1.084   .     S
C282   C1134   1.396   .     S
C283   H315    1.084   .     S
C283   C380    1.399   .     S
C284   H316    1.084   .     S
C284   C562    1.388   .     S
C284   C471    1.399   1_455 S
C285   C287    1.413   .     A
C285   N357    1.424   .     S
C285   C559    1.387   .     S
C286   N363    1.423   .     S
C286   C288    1.412   .     A
C287   C376    1.399   .     S
C288   C467    1.399   1_455 S
C289   H317    1.081   .     S
C289   N322    1.367   .     A
C289   C291    1.414   .     A
C290   H318    1.081   .     S
C290   N321    1.367   .     A
C290   C292    1.414   .     A
C291   N321    1.365   .     A
C291   H319    1.082   .     S
C292   H320    1.082   .     S
C292   N322    1.365   .     A
C293   O329    1.292   .     A
C293   C295    1.465   .     S
C293   O419    1.290   .     S
C294   C296    1.488   .     S
C294   O330    1.294   .     A
C294   O512    1.300   1_455 S
C295   C299    1.414   .     A
C295   C301    1.413   .     A
C296   C300    1.421   .     A
C296   C302    1.422   .     A
C297   C299    1.395   .     A
C297   C305    1.397   .     A
C297   H313    1.085   .     S
C298   C300    1.402   .     A
C298   C306    1.398   .     A
C298   H498    1.085   1_455 S
C299   N441    1.424   .     S
C300   N527    1.423   1_455 S
C301   N337    1.434   .     S
C301   C303    1.414   .     A
C302   N331    1.427   .     S
C302   C304    1.405   .     A
C303   C305    1.416   .     A
C303   C307    1.422   .     A
C304   C308    1.417   .     A
C304   C306    1.408   .     A
C305   C1109   1.393   .     S
C306   C1110   1.396   1_554 S
C307   C1136   1.415   .     S
C308   C1135   1.415   1_554 S
Cu309  N321    2.005   .     S
Cu309  O326    1.967   .     S
Cu309  O323    1.974   .     S
Cu309  O330    1.946   .     S
Cu309  O327    1.958   .     S
Cu309  Cu494   2.668   1_455 S
Cu310  N322    2.005   .     S
Cu310  O324    1.974   .     S
Cu310  O325    1.967   .     S
Cu310  O328    1.958   .     S
Cu310  O329    1.946   .     S
Cu310  Cu401   2.668   .     S
H314   C390    1.085   .     S
O325   C369    1.292   .     S
O326   C462    1.293   1_455 S
O327   C477    1.290   1_455 S
O328   C386    1.300   .     S
N331   H332    1.029   .     S
N331   C333    1.446   .     S
C333   H335    1.111   .     S
C333   H336    1.110   .     S
C333   H334    1.109   .     S
N337   C339    1.448   .     S
N337   H338    1.028   .     S
C339   H341    1.110   .     S
C339   H342    1.112   .     S
C339   H340    1.111   .     S
N343   H344    1.031   .     S
N343   C345    1.447   .     S
N343   C392    1.423   .     S
C345   H347    1.109   .     S
C345   H346    1.111   .     S
C345   H348    1.112   .     S
N349   H350    1.032   .     S
N349   C351    1.445   .     S
N349   C483    1.424   1_455 S
C351   H352    1.110   .     S
C351   H353    1.110   .     S
C351   H354    1.111   .     S
N357   H358    1.032   .     S
N357   C359    1.448   .     S
C359   H360    1.111   .     S
C359   H361    1.112   .     S
C359   H362    1.110   .     S
N363   H364    1.032   .     S
N363   C365    1.447   .     S
C365   H367    1.110   .     S
C365   H368    1.109   .     S
C365   H366    1.111   .     S
C369   C380    1.454   .     S
C369   O415    1.286   .     A
C370   C379    1.454   .     S
C370   O416    1.285   .     A
C370   O510    1.293   .     S
C371   H447    1.080   .     S
C371   C400    1.412   .     A
C371   C373    1.387   .     A
C372   H448    1.080   .     S
C372   C374    1.395   .     A
C372   C399    1.414   .     A
C373   H403    1.084   .     S
C373   C1225   1.393   1_554 S
C374   H404    1.084   .     S
C374   C1226   1.396   .     S
C375   H407    1.084   .     S
C375   C472    1.399   .     S
C376   H408    1.084   .     S
C376   C654    1.388   .     S
C377   C379    1.413   .     A
C377   N449    1.424   .     S
C377   C651    1.387   .     S
C378   N455    1.423   .     S
C378   C380    1.412   .     A
C379   C468    1.399   .     S
C381   H409    1.081   .     S
C381   N414    1.367   .     A
C381   C383    1.414   .     A
C382   H410    1.081   .     S
C382   N413    1.367   .     A
C382   C384    1.414   .     A
C383   N413    1.365   .     A
C383   H411    1.082   .     S
C384   H412    1.082   .     S
C384   N414    1.365   .     A
C385   O421    1.292   .     A
C385   C387    1.465   .     S
C385   O511    1.290   .     S
C386   C388    1.488   .     S
C386   O422    1.294   .     A
C387   C391    1.414   .     A
C387   C393    1.413   .     A
C388   C392    1.421   .     A
C388   C394    1.422   .     A
C389   C391    1.395   .     A
C389   C397    1.397   .     A
C389   H405    1.085   .     S
C390   C392    1.402   .     A
C390   C398    1.398   .     A
C391   N533    1.424   .     S
C393   N429    1.434   .     S
C393   C395    1.414   .     A
C394   N423    1.427   .     S
C394   C396    1.405   .     A
C395   C397    1.416   .     A
C395   C399    1.422   .     A
C396   C400    1.417   .     A
C396   C398    1.408   .     A
C397   C1201   1.393   .     S
C398   C1202   1.396   1_554 S
C399   C1228   1.415   .     S
C400   C1227   1.415   1_554 S
Cu401  N413    2.005   .     S
Cu401  O418    1.967   .     S
Cu401  O415    1.974   .     S
Cu401  O422    1.946   .     S
Cu401  O419    1.958   .     S
Cu402  N414    2.005   .     S
Cu402  O416    1.974   .     S
Cu402  O417    1.967   .     S
Cu402  O420    1.958   .     S
Cu402  O421    1.946   .     S
Cu402  Cu493   2.668   .     S
H406   C482    1.085   .     S
O417   C461    1.292   .     S
O420   C478    1.300   .     S
N423   H424    1.029   .     S
N423   C425    1.446   .     S
C425   H427    1.111   .     S
C425   H428    1.110   .     S
C425   H426    1.109   .     S
N429   C431    1.448   .     S
N429   H430    1.028   .     S
C431   H433    1.110   .     S
C431   H434    1.112   .     S
C431   H432    1.111   .     S
N435   H436    1.031   .     S
N435   C437    1.447   .     S
N435   C484    1.423   .     S
C437   H439    1.109   .     S
C437   H438    1.111   .     S
C437   H440    1.112   .     S
N441   H442    1.032   .     S
N441   C443    1.445   .     S
C443   H444    1.110   .     S
C443   H445    1.110   .     S
C443   H446    1.111   .     S
N449   H450    1.032   .     S
N449   C451    1.448   .     S
C451   H452    1.111   .     S
C451   H453    1.112   .     S
C451   H454    1.110   .     S
N455   H456    1.032   .     S
N455   C457    1.447   .     S
C457   H459    1.110   .     S
C457   H460    1.109   .     S
C457   H458    1.111   .     S
C461   C472    1.454   .     S
C461   O507    1.286   .     A
C462   C471    1.454   .     S
C462   O508    1.285   .     A
C462   O326    1.293   1_655 S
C463   H539    1.080   .     S
C463   C492    1.412   .     A
C463   C465    1.387   .     A
C464   H540    1.080   .     S
C464   C466    1.395   .     A
C464   C491    1.414   .     A
C465   H495    1.084   .     S
C465   C1317   1.393   1_554 S
C466   H496    1.084   .     S
C466   C1318   1.396   .     S
C467   H499    1.084   .     S
C467   C288    1.399   1_655 S
C468   H500    1.084   .     S
C468   C746    1.388   .     S
C469   C471    1.413   .     A
C469   N541    1.424   .     S
C469   C743    1.387   .     S
C470   N547    1.423   .     S
C470   C472    1.412   .     A
C471   C284    1.399   1_655 S
C473   H501    1.081   .     S
C473   N506    1.367   .     A
C473   C475    1.414   .     A
C474   H502    1.081   .     S
C474   N505    1.367   .     A
C474   C476    1.414   .     A
C475   N505    1.365   .     A
C475   H503    1.082   .     S
C476   H504    1.082   .     S
C476   N506    1.365   .     A
C477   O513    1.292   .     A
C477   C479    1.465   .     S
C477   O327    1.290   1_655 S
C478   C480    1.488   .     S
C478   O514    1.294   .     A
C479   C483    1.414   .     A
C479   C485    1.413   .     A
C480   C484    1.421   .     A
C480   C486    1.422   .     A
C481   C483    1.395   .     A
C481   C489    1.397   .     A
C481   H497    1.085   .     S
C482   C484    1.402   .     A
C482   C490    1.398   .     A
C483   N349    1.424   1_655 S
C485   N521    1.434   .     S
C485   C487    1.414   .     A
C486   N515    1.427   .     S
C486   C488    1.405   .     A
C487   C489    1.416   .     A
C487   C491    1.422   .     A
C488   C492    1.417   .     A
C488   C490    1.408   .     A
C489   C1293   1.393   .     S
C490   C1294   1.396   1_554 S
C491   C1320   1.415   .     S
C492   C1319   1.415   1_554 S
Cu493  N505    2.005   .     S
Cu493  O510    1.967   .     S
Cu493  O507    1.974   .     S
Cu493  O514    1.946   .     S
Cu493  O511    1.958   .     S
Cu494  N506    2.005   .     S
Cu494  O508    1.974   .     S
Cu494  O509    1.967   .     S
Cu494  O512    1.958   .     S
Cu494  O513    1.946   .     S
Cu494  Cu309   2.668   1_655 S
H498   C298    1.085   1_655 S
O509   C277    1.292   1_655 S
O512   C294    1.300   1_655 S
N515   H516    1.029   .     S
N515   C517    1.446   .     S
C517   H519    1.111   .     S
C517   H520    1.110   .     S
C517   H518    1.109   .     S
N521   C523    1.448   .     S
N521   H522    1.028   .     S
C523   H525    1.110   .     S
C523   H526    1.112   .     S
C523   H524    1.111   .     S
N527   H528    1.031   .     S
N527   C529    1.447   .     S
N527   C300    1.423   1_655 S
C529   H531    1.109   .     S
C529   H530    1.111   .     S
C529   H532    1.112   .     S
N533   H534    1.032   .     S
N533   C535    1.445   .     S
C535   H536    1.110   .     S
C535   H537    1.110   .     S
C535   H538    1.111   .     S
N541   H542    1.032   .     S
N541   C543    1.448   .     S
C543   H544    1.111   .     S
C543   H545    1.112   .     S
C543   H546    1.110   .     S
N547   H548    1.032   .     S
N547   C549    1.447   .     S
C549   H551    1.110   .     S
C549   H552    1.109   .     S
C549   H550    1.111   .     S
C553   C564    1.454   .     S
C553   O599    1.286   .     A
C553   O785    1.292   1_455 S
C554   C563    1.454   .     S
C554   O600    1.285   .     A
C554   O694    1.293   .     S
C555   H631    1.080   .     S
C555   C584    1.412   .     A
C555   C557    1.387   .     A
C556   H632    1.080   .     S
C556   C558    1.395   .     A
C556   C583    1.414   .     A
C557   H587    1.084   .     S
C557   C1409   1.393   1_554 S
C558   H588    1.084   .     S
C558   C1410   1.396   .     S
C559   H591    1.084   .     S
C559   C656    1.399   .     S
C560   H592    1.084   .     S
C560   C10     1.388   1_565 S
C560   C747    1.399   1_455 S
C561   C563    1.413   .     A
C561   N633    1.424   .     S
C561   C7      1.387   1_565 S
C562   N639    1.423   .     S
C562   C564    1.412   .     A
C563   C652    1.399   .     S
C564   C743    1.399   1_455 S
C565   H593    1.081   .     S
C565   N598    1.367   .     A
C565   C567    1.414   .     A
C566   H594    1.081   .     S
C566   N597    1.367   .     A
C566   C568    1.414   .     A
C567   N597    1.365   .     A
C567   H595    1.082   .     S
C568   H596    1.082   .     S
C568   N598    1.365   .     A
C569   O605    1.292   .     A
C569   C571    1.465   .     S
C569   O695    1.290   .     S
C570   C572    1.488   .     S
C570   O606    1.294   .     A
C570   O788    1.300   1_455 S
C571   C575    1.414   .     A
C571   C577    1.413   .     A
C572   C576    1.421   .     A
C572   C578    1.422   .     A
C573   C575    1.395   .     A
C573   C581    1.397   .     A
C573   H589    1.085   .     S
C574   C576    1.402   .     A
C574   C582    1.398   .     A
C574   H774    1.085   1_455 S
C575   N717    1.424   .     S
C576   N803    1.423   1_455 S
C577   N613    1.434   .     S
C577   C579    1.414   .     A
C578   N607    1.427   .     S
C578   C580    1.405   .     A
C579   C581    1.416   .     A
C579   C583    1.422   .     A
C580   C584    1.417   .     A
C580   C582    1.408   .     A
C581   C1385   1.393   .     S
C582   C1386   1.396   1_554 S
C583   C1412   1.415   .     S
C584   C1411   1.415   1_554 S
Cu585  N597    2.005   .     S
Cu585  O602    1.967   .     S
Cu585  O599    1.974   .     S
Cu585  O606    1.946   .     S
Cu585  O603    1.958   .     S
Cu585  Cu770   2.668   1_455 S
Cu586  N598    2.005   .     S
Cu586  O600    1.974   .     S
Cu586  O601    1.967   .     S
Cu586  O604    1.958   .     S
Cu586  O605    1.946   .     S
Cu586  Cu677   2.668   .     S
H590   C666    1.085   .     S
O601   C645    1.292   .     S
O602   C738    1.293   1_455 S
O603   C753    1.290   1_455 S
O604   C662    1.300   .     S
N607   H608    1.029   .     S
N607   C609    1.446   .     S
C609   H611    1.111   .     S
C609   H612    1.110   .     S
C609   H610    1.109   .     S
N613   C615    1.448   .     S
N613   H614    1.028   .     S
C615   H617    1.110   .     S
C615   H618    1.112   .     S
C615   H616    1.111   .     S
N619   H620    1.031   .     S
N619   C621    1.447   .     S
N619   C668    1.423   .     S
C621   H623    1.109   .     S
C621   H622    1.111   .     S
C621   H624    1.112   .     S
N625   H626    1.032   .     S
N625   C627    1.445   .     S
N625   C759    1.424   1_455 S
C627   H628    1.110   .     S
C627   H629    1.110   .     S
C627   H630    1.111   .     S
N633   H634    1.032   .     S
N633   C635    1.448   .     S
C635   H636    1.111   .     S
C635   H637    1.112   .     S
C635   H638    1.110   .     S
N639   H640    1.032   .     S
N639   C641    1.447   .     S
C641   H643    1.110   .     S
C641   H644    1.109   .     S
C641   H642    1.111   .     S
C645   C656    1.454   .     S
C645   O691    1.286   .     A
C646   C655    1.454   .     S
C646   O692    1.285   .     A
C646   O786    1.293   .     S
C647   H723    1.080   .     S
C647   C676    1.412   .     A
C647   C649    1.387   .     A
C648   H724    1.080   .     S
C648   C650    1.395   .     A
C648   C675    1.414   .     A
C649   H679    1.084   .     S
C649   C1501   1.393   1_554 S
C650   H680    1.084   .     S
C650   C1502   1.396   .     S
C651   H683    1.084   .     S
C651   C748    1.399   .     S
C652   H684    1.084   .     S
C652   C102    1.388   1_565 S
C653   C655    1.413   .     A
C653   N725    1.424   .     S
C653   C99     1.387   1_565 S
C654   N731    1.423   .     S
C654   C656    1.412   .     A
C655   C744    1.399   .     S
C657   H685    1.081   .     S
C657   N690    1.367   .     A
C657   C659    1.414   .     A
C658   H686    1.081   .     S
C658   N689    1.367   .     A
C658   C660    1.414   .     A
C659   N689    1.365   .     A
C659   H687    1.082   .     S
C660   H688    1.082   .     S
C660   N690    1.365   .     A
C661   O697    1.292   .     A
C661   C663    1.465   .     S
C661   O787    1.290   .     S
C662   C664    1.488   .     S
C662   O698    1.294   .     A
C663   C667    1.414   .     A
C663   C669    1.413   .     A
C664   C668    1.421   .     A
C664   C670    1.422   .     A
C665   C667    1.395   .     A
C665   C673    1.397   .     A
C665   H681    1.085   .     S
C666   C668    1.402   .     A
C666   C674    1.398   .     A
C667   N809    1.424   .     S
C669   N705    1.434   .     S
C669   C671    1.414   .     A
C670   N699    1.427   .     S
C670   C672    1.405   .     A
C671   C673    1.416   .     A
C671   C675    1.422   .     A
C672   C676    1.417   .     A
C672   C674    1.408   .     A
C673   C1477   1.393   .     S
C674   C1478   1.396   1_554 S
C675   C1504   1.415   .     S
C676   C1503   1.415   1_554 S
Cu677  N689    2.005   .     S
Cu677  O694    1.967   .     S
Cu677  O691    1.974   .     S
Cu677  O698    1.946   .     S
Cu677  O695    1.958   .     S
Cu678  N690    2.005   .     S
Cu678  O692    1.974   .     S
Cu678  O693    1.967   .     S
Cu678  O696    1.958   .     S
Cu678  O697    1.946   .     S
Cu678  Cu769   2.668   .     S
H682   C758    1.085   .     S
O693   C737    1.292   .     S
O696   C754    1.300   .     S
N699   H700    1.029   .     S
N699   C701    1.446   .     S
C701   H703    1.111   .     S
C701   H704    1.110   .     S
C701   H702    1.109   .     S
N705   C707    1.448   .     S
N705   H706    1.028   .     S
C707   H709    1.110   .     S
C707   H710    1.112   .     S
C707   H708    1.111   .     S
N711   H712    1.031   .     S
N711   C713    1.447   .     S
N711   C760    1.423   .     S
C713   H715    1.109   .     S
C713   H714    1.111   .     S
C713   H716    1.112   .     S
N717   H718    1.032   .     S
N717   C719    1.445   .     S
C719   H720    1.110   .     S
C719   H721    1.110   .     S
C719   H722    1.111   .     S
N725   H726    1.032   .     S
N725   C727    1.448   .     S
C727   H728    1.111   .     S
C727   H729    1.112   .     S
C727   H730    1.110   .     S
N731   H732    1.032   .     S
N731   C733    1.447   .     S
C733   H735    1.110   .     S
C733   H736    1.109   .     S
C733   H734    1.111   .     S
C737   C748    1.454   .     S
C737   O783    1.286   .     A
C738   C747    1.454   .     S
C738   O784    1.285   .     A
C738   O602    1.293   1_655 S
C739   H815    1.080   .     S
C739   C768    1.412   .     A
C739   C741    1.387   .     A
C740   H816    1.080   .     S
C740   C742    1.395   .     A
C740   C767    1.414   .     A
C741   H771    1.084   .     S
C741   C1593   1.393   1_554 S
C742   H772    1.084   .     S
C742   C1594   1.396   .     S
C743   H775    1.084   .     S
C743   C564    1.399   1_655 S
C744   H776    1.084   .     S
C744   C194    1.388   1_565 S
C745   C747    1.413   .     A
C745   N817    1.424   .     S
C745   C191    1.387   1_565 S
C746   N823    1.423   .     S
C746   C748    1.412   .     A
C747   C560    1.399   1_655 S
C749   H777    1.081   .     S
C749   N782    1.367   .     A
C749   C751    1.414   .     A
C750   H778    1.081   .     S
C750   N781    1.367   .     A
C750   C752    1.414   .     A
C751   N781    1.365   .     A
C751   H779    1.082   .     S
C752   H780    1.082   .     S
C752   N782    1.365   .     A
C753   O789    1.292   .     A
C753   C755    1.465   .     S
C753   O603    1.290   1_655 S
C754   C756    1.488   .     S
C754   O790    1.294   .     A
C755   C759    1.414   .     A
C755   C761    1.413   .     A
C756   C760    1.421   .     A
C756   C762    1.422   .     A
C757   C759    1.395   .     A
C757   C765    1.397   .     A
C757   H773    1.085   .     S
C758   C760    1.402   .     A
C758   C766    1.398   .     A
C759   N625    1.424   1_655 S
C761   N797    1.434   .     S
C761   C763    1.414   .     A
C762   N791    1.427   .     S
C762   C764    1.405   .     A
C763   C765    1.416   .     A
C763   C767    1.422   .     A
C764   C768    1.417   .     A
C764   C766    1.408   .     A
C765   C1569   1.393   .     S
C766   C1570   1.396   1_554 S
C767   C1596   1.415   .     S
C768   C1595   1.415   1_554 S
Cu769  N781    2.005   .     S
Cu769  O786    1.967   .     S
Cu769  O783    1.974   .     S
Cu769  O790    1.946   .     S
Cu769  O787    1.958   .     S
Cu770  N782    2.005   .     S
Cu770  O784    1.974   .     S
Cu770  O785    1.967   .     S
Cu770  O788    1.958   .     S
Cu770  O789    1.946   .     S
Cu770  Cu585   2.668   1_655 S
H774   C574    1.085   1_655 S
O785   C553    1.292   1_655 S
O788   C570    1.300   1_655 S
N791   H792    1.029   .     S
N791   C793    1.446   .     S
C793   H795    1.111   .     S
C793   H796    1.110   .     S
C793   H794    1.109   .     S
N797   C799    1.448   .     S
N797   H798    1.028   .     S
C799   H801    1.110   .     S
C799   H802    1.112   .     S
C799   H800    1.111   .     S
N803   H804    1.031   .     S
N803   C805    1.447   .     S
N803   C576    1.423   1_655 S
C805   H807    1.109   .     S
C805   H806    1.111   .     S
C805   H808    1.112   .     S
N809   H810    1.032   .     S
N809   C811    1.445   .     S
C811   H812    1.110   .     S
C811   H813    1.110   .     S
C811   H814    1.111   .     S
N817   H818    1.032   .     S
N817   C819    1.448   .     S
C819   H820    1.111   .     S
C819   H821    1.112   .     S
C819   H822    1.110   .     S
N823   H824    1.032   .     S
N823   C825    1.447   .     S
C825   H827    1.110   .     S
C825   H828    1.109   .     S
C825   H826    1.111   .     S
C829   C840    1.454   .     S
C829   O875    1.286   .     A
C829   O1061   1.292   1_455 S
C830   C839    1.454   .     S
C830   O876    1.285   .     A
C830   O970    1.293   .     S
C831   H907    1.080   .     S
C831   C860    1.412   .     A
C831   C833    1.387   .     A
C832   H908    1.080   .     S
C832   C834    1.395   .     A
C832   C859    1.414   .     A
C833   H863    1.084   .     S
C834   H864    1.084   .     S
C834   C30     1.396   1_556 S
C835   H867    1.084   .     S
C835   C1389   1.387   1_545 S
C835   C932    1.399   .     S
C836   H868    1.084   .     S
C836   C1114   1.388   .     S
C836   C1023   1.399   1_455 S
C837   C839    1.413   .     A
C837   N909    1.424   .     S
C837   C1111   1.387   .     S
C838   N915    1.423   .     S
C838   C840    1.412   .     A
C838   C1388   1.388   1_545 S
C839   C928    1.399   .     S
C840   C1019   1.399   1_455 S
C841   H869    1.081   .     S
C841   N874    1.367   .     A
C841   C843    1.414   .     A
C842   H870    1.081   .     S
C842   N873    1.367   .     A
C842   C844    1.414   .     A
C843   N873    1.365   .     A
C843   H871    1.082   .     S
C844   H872    1.082   .     S
C844   N874    1.365   .     A
C845   O881    1.292   .     A
C845   C847    1.465   .     S
C845   O971    1.290   .     S
C846   C848    1.488   .     S
C846   O882    1.294   .     A
C846   O1064   1.300   1_455 S
C847   C851    1.414   .     A
C847   C853    1.413   .     A
C848   C852    1.421   .     A
C848   C854    1.422   .     A
C849   C851    1.395   .     A
C849   C857    1.397   .     A
C849   H865    1.085   .     S
C850   C852    1.402   .     A
C850   C858    1.398   .     A
C850   H1050   1.085   1_455 S
C851   N993    1.424   .     S
C852   N1079   1.423   1_455 S
C853   N889    1.434   .     S
C853   C855    1.414   .     A
C854   N883    1.427   .     S
C854   C856    1.405   .     A
C855   C857    1.416   .     A
C855   C859    1.422   .     A
C856   C860    1.417   .     A
C856   C858    1.408   .     A
C857   C5      1.393   1_556 S
C859   C32     1.415   1_556 S
Cu861  N873    2.005   .     S
Cu861  O878    1.967   .     S
Cu861  O875    1.974   .     S
Cu861  O882    1.946   .     S
Cu861  O879    1.958   .     S
Cu861  Cu1046  2.668   1_455 S
Cu862  N874    2.005   .     S
Cu862  O876    1.974   .     S
Cu862  O877    1.967   .     S
Cu862  O880    1.958   .     S
Cu862  O881    1.946   .     S
Cu862  Cu953   2.668   .     S
H866   C942    1.085   .     S
O877   C921    1.292   .     S
O878   C1014   1.293   1_455 S
O879   C1029   1.290   1_455 S
O880   C938    1.300   .     S
N883   H884    1.029   .     S
N883   C885    1.446   .     S
C885   H887    1.111   .     S
C885   H888    1.110   .     S
C885   H886    1.109   .     S
N889   C891    1.448   .     S
N889   H890    1.028   .     S
C891   H893    1.110   .     S
C891   H894    1.112   .     S
C891   H892    1.111   .     S
N895   H896    1.031   .     S
N895   C897    1.447   .     S
N895   C944    1.423   .     S
C897   H899    1.109   .     S
C897   H898    1.111   .     S
C897   H900    1.112   .     S
N901   H902    1.032   .     S
N901   C903    1.445   .     S
N901   C1035   1.424   1_455 S
C903   H904    1.110   .     S
C903   H905    1.110   .     S
C903   H906    1.111   .     S
N909   H910    1.032   .     S
N909   C911    1.448   .     S
C911   H912    1.111   .     S
C911   H913    1.112   .     S
C911   H914    1.110   .     S
N915   H916    1.032   .     S
N915   C917    1.447   .     S
C917   H919    1.110   .     S
C917   H920    1.109   .     S
C917   H918    1.111   .     S
C921   C932    1.454   .     S
C921   O967    1.286   .     A
C922   C931    1.454   .     S
C922   O968    1.285   .     A
C922   O1062   1.293   .     S
C923   H999    1.080   .     S
C923   C952    1.412   .     A
C923   C925    1.387   .     A
C924   H1000   1.080   .     S
C924   C926    1.395   .     A
C924   C951    1.414   .     A
C925   H955    1.084   .     S
C926   H956    1.084   .     S
C926   C122    1.396   1_556 S
C927   H959    1.084   .     S
C927   C1481   1.387   1_545 S
C927   C1024   1.399   .     S
C928   H960    1.084   .     S
C928   C1206   1.388   .     S
C929   C931    1.413   .     A
C929   N1001   1.424   .     S
C929   C1203   1.387   .     S
C930   N1007   1.423   .     S
C930   C932    1.412   .     A
C930   C1480   1.388   1_545 S
C931   C1020   1.399   .     S
C933   H961    1.081   .     S
C933   N966    1.367   .     A
C933   C935    1.414   .     A
C934   H962    1.081   .     S
C934   N965    1.367   .     A
C934   C936    1.414   .     A
C935   N965    1.365   .     A
C935   H963    1.082   .     S
C936   H964    1.082   .     S
C936   N966    1.365   .     A
C937   O973    1.292   .     A
C937   C939    1.465   .     S
C937   O1063   1.290   .     S
C938   C940    1.488   .     S
C938   O974    1.294   .     A
C939   C943    1.414   .     A
C939   C945    1.413   .     A
C940   C944    1.421   .     A
C940   C946    1.422   .     A
C941   C943    1.395   .     A
C941   C949    1.397   .     A
C941   H957    1.085   .     S
C942   C944    1.402   .     A
C942   C950    1.398   .     A
C943   N1085   1.424   .     S
C945   N981    1.434   .     S
C945   C947    1.414   .     A
C946   N975    1.427   .     S
C946   C948    1.405   .     A
C947   C949    1.416   .     A
C947   C951    1.422   .     A
C948   C952    1.417   .     A
C948   C950    1.408   .     A
C949   C97     1.393   1_556 S
C951   C124    1.415   1_556 S
Cu953  N965    2.005   .     S
Cu953  O970    1.967   .     S
Cu953  O967    1.974   .     S
Cu953  O974    1.946   .     S
Cu953  O971    1.958   .     S
Cu954  N966    2.005   .     S
Cu954  O968    1.974   .     S
Cu954  O969    1.967   .     S
Cu954  O972    1.958   .     S
Cu954  O973    1.946   .     S
Cu954  Cu1045  2.668   .     S
H958   C1034   1.085   .     S
O969   C1013   1.292   .     S
O972   C1030   1.300   .     S
N975   H976    1.029   .     S
N975   C977    1.446   .     S
C977   H979    1.111   .     S
C977   H980    1.110   .     S
C977   H978    1.109   .     S
N981   C983    1.448   .     S
N981   H982    1.028   .     S
C983   H985    1.110   .     S
C983   H986    1.112   .     S
C983   H984    1.111   .     S
N987   H988    1.031   .     S
N987   C989    1.447   .     S
N987   C1036   1.423   .     S
C989   H991    1.109   .     S
C989   H990    1.111   .     S
C989   H992    1.112   .     S
N993   H994    1.032   .     S
N993   C995    1.445   .     S
C995   H996    1.110   .     S
C995   H997    1.110   .     S
C995   H998    1.111   .     S
N1001  H1002   1.032   .     S
N1001  C1003   1.448   .     S
C1003  H1004   1.111   .     S
C1003  H1005   1.112   .     S
C1003  H1006   1.110   .     S
N1007  H1008   1.032   .     S
N1007  C1009   1.447   .     S
C1009  H1011   1.110   .     S
C1009  H1012   1.109   .     S
C1009  H1010   1.111   .     S
C1013  C1024   1.454   .     S
C1013  O1059   1.286   .     A
C1014  C1023   1.454   .     S
C1014  O1060   1.285   .     A
C1014  O878    1.293   1_655 S
C1015  H1091   1.080   .     S
C1015  C1044   1.412   .     A
C1015  C1017   1.387   .     A
C1016  H1092   1.080   .     S
C1016  C1018   1.395   .     A
C1016  C1043   1.414   .     A
C1017  H1047   1.084   .     S
C1018  H1048   1.084   .     S
C1018  C214    1.396   1_556 S
C1019  H1051   1.084   .     S
C1019  C1573   1.387   1_545 S
C1019  C840    1.399   1_655 S
C1020  H1052   1.084   .     S
C1020  C1298   1.388   .     S
C1021  C1023   1.413   .     A
C1021  N1093   1.424   .     S
C1021  C1295   1.387   .     S
C1022  N1099   1.423   .     S
C1022  C1024   1.412   .     A
C1022  C1572   1.388   1_545 S
C1023  C836    1.399   1_655 S
C1025  H1053   1.081   .     S
C1025  N1058   1.367   .     A
C1025  C1027   1.414   .     A
C1026  H1054   1.081   .     S
C1026  N1057   1.367   .     A
C1026  C1028   1.414   .     A
C1027  N1057   1.365   .     A
C1027  H1055   1.082   .     S
C1028  H1056   1.082   .     S
C1028  N1058   1.365   .     A
C1029  O1065   1.292   .     A
C1029  C1031   1.465   .     S
C1029  O879    1.290   1_655 S
C1030  C1032   1.488   .     S
C1030  O1066   1.294   .     A
C1031  C1035   1.414   .     A
C1031  C1037   1.413   .     A
C1032  C1036   1.421   .     A
C1032  C1038   1.422   .     A
C1033  C1035   1.395   .     A
C1033  C1041   1.397   .     A
C1033  H1049   1.085   .     S
C1034  C1036   1.402   .     A
C1034  C1042   1.398   .     A
C1035  N901    1.424   1_655 S
C1037  N1073   1.434   .     S
C1037  C1039   1.414   .     A
C1038  N1067   1.427   .     S
C1038  C1040   1.405   .     A
C1039  C1041   1.416   .     A
C1039  C1043   1.422   .     A
C1040  C1044   1.417   .     A
C1040  C1042   1.408   .     A
C1041  C189    1.393   1_556 S
C1043  C216    1.415   1_556 S
Cu1045 N1057   2.005   .     S
Cu1045 O1062   1.967   .     S
Cu1045 O1059   1.974   .     S
Cu1045 O1066   1.946   .     S
Cu1045 O1063   1.958   .     S
Cu1046 N1058   2.005   .     S
Cu1046 O1060   1.974   .     S
Cu1046 O1061   1.967   .     S
Cu1046 O1064   1.958   .     S
Cu1046 O1065   1.946   .     S
Cu1046 Cu861   2.668   1_655 S
H1050  C850    1.085   1_655 S
O1061  C829    1.292   1_655 S
O1064  C846    1.300   1_655 S
N1067  H1068   1.029   .     S
N1067  C1069   1.446   .     S
C1069  H1071   1.111   .     S
C1069  H1072   1.110   .     S
C1069  H1070   1.109   .     S
N1073  C1075   1.448   .     S
N1073  H1074   1.028   .     S
C1075  H1077   1.110   .     S
C1075  H1078   1.112   .     S
C1075  H1076   1.111   .     S
N1079  H1080   1.031   .     S
N1079  C1081   1.447   .     S
N1079  C852    1.423   1_655 S
C1081  H1083   1.109   .     S
C1081  H1082   1.111   .     S
C1081  H1084   1.112   .     S
N1085  H1086   1.032   .     S
N1085  C1087   1.445   .     S
C1087  H1088   1.110   .     S
C1087  H1089   1.110   .     S
C1087  H1090   1.111   .     S
N1093  H1094   1.032   .     S
N1093  C1095   1.448   .     S
C1095  H1096   1.111   .     S
C1095  H1097   1.112   .     S
C1095  H1098   1.110   .     S
N1099  H1100   1.032   .     S
N1099  C1101   1.447   .     S
C1101  H1103   1.110   .     S
C1101  H1104   1.109   .     S
C1101  H1102   1.111   .     S
C1105  C1116   1.454   .     S
C1105  O1151   1.286   .     A
C1105  O1337   1.292   1_455 S
C1106  C1115   1.454   .     S
C1106  O1152   1.285   .     A
C1106  O1246   1.293   .     S
C1107  H1183   1.080   .     S
C1107  C1136   1.412   .     A
C1107  C1109   1.387   .     A
C1108  H1184   1.080   .     S
C1108  C1110   1.395   .     A
C1108  C1135   1.414   .     A
C1109  H1139   1.084   .     S
C1110  H1140   1.084   .     S
C1110  C306    1.396   1_556 S
C1111  H1143   1.084   .     S
C1111  C1208   1.399   .     S
C1112  H1144   1.084   .     S
C1112  C1390   1.388   .     S
C1112  C1299   1.399   1_455 S
C1113  C1115   1.413   .     A
C1113  N1185   1.424   .     S
C1113  C1387   1.387   .     S
C1114  N1191   1.423   .     S
C1114  C1116   1.412   .     A
C1115  C1204   1.399   .     S
C1116  C1295   1.399   1_455 S
C1117  H1145   1.081   .     S
C1117  N1150   1.367   .     A
C1117  C1119   1.414   .     A
C1118  H1146   1.081   .     S
C1118  N1149   1.367   .     A
C1118  C1120   1.414   .     A
C1119  N1149   1.365   .     A
C1119  H1147   1.082   .     S
C1120  H1148   1.082   .     S
C1120  N1150   1.365   .     A
C1121  O1157   1.292   .     A
C1121  C1123   1.465   .     S
C1121  O1247   1.290   .     S
C1122  C1124   1.488   .     S
C1122  O1158   1.294   .     A
C1122  O1340   1.300   1_455 S
C1123  C1127   1.414   .     A
C1123  C1129   1.413   .     A
C1124  C1128   1.421   .     A
C1124  C1130   1.422   .     A
C1125  C1127   1.395   .     A
C1125  C1133   1.397   .     A
C1125  H1141   1.085   .     S
C1126  C1128   1.402   .     A
C1126  C1134   1.398   .     A
C1126  H1326   1.085   1_455 S
C1127  N1269   1.424   .     S
C1128  N1355   1.423   1_455 S
C1129  N1165   1.434   .     S
C1129  C1131   1.414   .     A
C1130  N1159   1.427   .     S
C1130  C1132   1.405   .     A
C1131  C1133   1.416   .     A
C1131  C1135   1.422   .     A
C1132  C1136   1.417   .     A
C1132  C1134   1.408   .     A
C1133  C281    1.393   1_556 S
C1135  C308    1.415   1_556 S
Cu1137 N1149   2.005   .     S
Cu1137 O1154   1.967   .     S
Cu1137 O1151   1.974   .     S
Cu1137 O1158   1.946   .     S
Cu1137 O1155   1.958   .     S
Cu1137 Cu1322  2.668   1_455 S
Cu1138 N1150   2.005   .     S
Cu1138 O1152   1.974   .     S
Cu1138 O1153   1.967   .     S
Cu1138 O1156   1.958   .     S
Cu1138 O1157   1.946   .     S
Cu1138 Cu1229  2.668   .     S
H1142  C1218   1.085   .     S
O1153  C1197   1.292   .     S
O1154  C1290   1.293   1_455 S
O1155  C1305   1.290   1_455 S
O1156  C1214   1.300   .     S
N1159  H1160   1.029   .     S
N1159  C1161   1.446   .     S
C1161  H1163   1.111   .     S
C1161  H1164   1.110   .     S
C1161  H1162   1.109   .     S
N1165  C1167   1.448   .     S
N1165  H1166   1.028   .     S
C1167  H1169   1.110   .     S
C1167  H1170   1.112   .     S
C1167  H1168   1.111   .     S
N1171  H1172   1.031   .     S
N1171  C1173   1.447   .     S
N1171  C1220   1.423   .     S
C1173  H1175   1.109   .     S
C1173  H1174   1.111   .     S
C1173  H1176   1.112   .     S
N1177  H1178   1.032   .     S
N1177  C1179   1.445   .     S
N1177  C1311   1.424   1_455 S
C1179  H1180   1.110   .     S
C1179  H1181   1.110   .     S
C1179  H1182   1.111   .     S
N1185  H1186   1.032   .     S
N1185  C1187   1.448   .     S
C1187  H1188   1.111   .     S
C1187  H1189   1.112   .     S
C1187  H1190   1.110   .     S
N1191  H1192   1.032   .     S
N1191  C1193   1.447   .     S
C1193  H1195   1.110   .     S
C1193  H1196   1.109   .     S
C1193  H1194   1.111   .     S
C1197  C1208   1.454   .     S
C1197  O1243   1.286   .     A
C1198  C1207   1.454   .     S
C1198  O1244   1.285   .     A
C1198  O1338   1.293   .     S
C1199  H1275   1.080   .     S
C1199  C1228   1.412   .     A
C1199  C1201   1.387   .     A
C1200  H1276   1.080   .     S
C1200  C1202   1.395   .     A
C1200  C1227   1.414   .     A
C1201  H1231   1.084   .     S
C1202  H1232   1.084   .     S
C1202  C398    1.396   1_556 S
C1203  H1235   1.084   .     S
C1203  C1300   1.399   .     S
C1204  H1236   1.084   .     S
C1204  C1482   1.388   .     S
C1205  C1207   1.413   .     A
C1205  N1277   1.424   .     S
C1205  C1479   1.387   .     S
C1206  N1283   1.423   .     S
C1206  C1208   1.412   .     A
C1207  C1296   1.399   .     S
C1209  H1237   1.081   .     S
C1209  N1242   1.367   .     A
C1209  C1211   1.414   .     A
C1210  H1238   1.081   .     S
C1210  N1241   1.367   .     A
C1210  C1212   1.414   .     A
C1211  N1241   1.365   .     A
C1211  H1239   1.082   .     S
C1212  H1240   1.082   .     S
C1212  N1242   1.365   .     A
C1213  O1249   1.292   .     A
C1213  C1215   1.465   .     S
C1213  O1339   1.290   .     S
C1214  C1216   1.488   .     S
C1214  O1250   1.294   .     A
C1215  C1219   1.414   .     A
C1215  C1221   1.413   .     A
C1216  C1220   1.421   .     A
C1216  C1222   1.422   .     A
C1217  C1219   1.395   .     A
C1217  C1225   1.397   .     A
C1217  H1233   1.085   .     S
C1218  C1220   1.402   .     A
C1218  C1226   1.398   .     A
C1219  N1361   1.424   .     S
C1221  N1257   1.434   .     S
C1221  C1223   1.414   .     A
C1222  N1251   1.427   .     S
C1222  C1224   1.405   .     A
C1223  C1225   1.416   .     A
C1223  C1227   1.422   .     A
C1224  C1228   1.417   .     A
C1224  C1226   1.408   .     A
C1225  C373    1.393   1_556 S
C1227  C400    1.415   1_556 S
Cu1229 N1241   2.005   .     S
Cu1229 O1246   1.967   .     S
Cu1229 O1243   1.974   .     S
Cu1229 O1250   1.946   .     S
Cu1229 O1247   1.958   .     S
Cu1230 N1242   2.005   .     S
Cu1230 O1244   1.974   .     S
Cu1230 O1245   1.967   .     S
Cu1230 O1248   1.958   .     S
Cu1230 O1249   1.946   .     S
Cu1230 Cu1321  2.668   .     S
H1234  C1310   1.085   .     S
O1245  C1289   1.292   .     S
O1248  C1306   1.300   .     S
N1251  H1252   1.029   .     S
N1251  C1253   1.446   .     S
C1253  H1255   1.111   .     S
C1253  H1256   1.110   .     S
C1253  H1254   1.109   .     S
N1257  C1259   1.448   .     S
N1257  H1258   1.028   .     S
C1259  H1261   1.110   .     S
C1259  H1262   1.112   .     S
C1259  H1260   1.111   .     S
N1263  H1264   1.031   .     S
N1263  C1265   1.447   .     S
N1263  C1312   1.423   .     S
C1265  H1267   1.109   .     S
C1265  H1266   1.111   .     S
C1265  H1268   1.112   .     S
N1269  H1270   1.032   .     S
N1269  C1271   1.445   .     S
C1271  H1272   1.110   .     S
C1271  H1273   1.110   .     S
C1271  H1274   1.111   .     S
N1277  H1278   1.032   .     S
N1277  C1279   1.448   .     S
C1279  H1280   1.111   .     S
C1279  H1281   1.112   .     S
C1279  H1282   1.110   .     S
N1283  H1284   1.032   .     S
N1283  C1285   1.447   .     S
C1285  H1287   1.110   .     S
C1285  H1288   1.109   .     S
C1285  H1286   1.111   .     S
C1289  C1300   1.454   .     S
C1289  O1335   1.286   .     A
C1290  C1299   1.454   .     S
C1290  O1336   1.285   .     A
C1290  O1154   1.293   1_655 S
C1291  H1367   1.080   .     S
C1291  C1320   1.412   .     A
C1291  C1293   1.387   .     A
C1292  H1368   1.080   .     S
C1292  C1294   1.395   .     A
C1292  C1319   1.414   .     A
C1293  H1323   1.084   .     S
C1294  H1324   1.084   .     S
C1294  C490    1.396   1_556 S
C1295  H1327   1.084   .     S
C1295  C1116   1.399   1_655 S
C1296  H1328   1.084   .     S
C1296  C1574   1.388   .     S
C1297  C1299   1.413   .     A
C1297  N1369   1.424   .     S
C1297  C1571   1.387   .     S
C1298  N1375   1.423   .     S
C1298  C1300   1.412   .     A
C1299  C1112   1.399   1_655 S
C1301  H1329   1.081   .     S
C1301  N1334   1.367   .     A
C1301  C1303   1.414   .     A
C1302  H1330   1.081   .     S
C1302  N1333   1.367   .     A
C1302  C1304   1.414   .     A
C1303  N1333   1.365   .     A
C1303  H1331   1.082   .     S
C1304  H1332   1.082   .     S
C1304  N1334   1.365   .     A
C1305  O1341   1.292   .     A
C1305  C1307   1.465   .     S
C1305  O1155   1.290   1_655 S
C1306  C1308   1.488   .     S
C1306  O1342   1.294   .     A
C1307  C1311   1.414   .     A
C1307  C1313   1.413   .     A
C1308  C1312   1.421   .     A
C1308  C1314   1.422   .     A
C1309  C1311   1.395   .     A
C1309  C1317   1.397   .     A
C1309  H1325   1.085   .     S
C1310  C1312   1.402   .     A
C1310  C1318   1.398   .     A
C1311  N1177   1.424   1_655 S
C1313  N1349   1.434   .     S
C1313  C1315   1.414   .     A
C1314  N1343   1.427   .     S
C1314  C1316   1.405   .     A
C1315  C1317   1.416   .     A
C1315  C1319   1.422   .     A
C1316  C1320   1.417   .     A
C1316  C1318   1.408   .     A
C1317  C465    1.393   1_556 S
C1319  C492    1.415   1_556 S
Cu1321 N1333   2.005   .     S
Cu1321 O1338   1.967   .     S
Cu1321 O1335   1.974   .     S
Cu1321 O1342   1.946   .     S
Cu1321 O1339   1.958   .     S
Cu1322 N1334   2.005   .     S
Cu1322 O1336   1.974   .     S
Cu1322 O1337   1.967   .     S
Cu1322 O1340   1.958   .     S
Cu1322 O1341   1.946   .     S
Cu1322 Cu1137  2.668   1_655 S
H1326  C1126   1.085   1_655 S
O1337  C1105   1.292   1_655 S
O1340  C1122   1.300   1_655 S
N1343  H1344   1.029   .     S
N1343  C1345   1.446   .     S
C1345  H1347   1.111   .     S
C1345  H1348   1.110   .     S
C1345  H1346   1.109   .     S
N1349  C1351   1.448   .     S
N1349  H1350   1.028   .     S
C1351  H1353   1.110   .     S
C1351  H1354   1.112   .     S
C1351  H1352   1.111   .     S
N1355  H1356   1.031   .     S
N1355  C1357   1.447   .     S
N1355  C1128   1.423   1_655 S
C1357  H1359   1.109   .     S
C1357  H1358   1.111   .     S
C1357  H1360   1.112   .     S
N1361  H1362   1.032   .     S
N1361  C1363   1.445   .     S
C1363  H1364   1.110   .     S
C1363  H1365   1.110   .     S
C1363  H1366   1.111   .     S
N1369  H1370   1.032   .     S
N1369  C1371   1.448   .     S
C1371  H1372   1.111   .     S
C1371  H1373   1.112   .     S
C1371  H1374   1.110   .     S
N1375  H1376   1.032   .     S
N1375  C1377   1.447   .     S
C1377  H1379   1.110   .     S
C1377  H1380   1.109   .     S
C1377  H1378   1.111   .     S
C1381  C1392   1.454   .     S
C1381  O1427   1.286   .     A
C1381  O1613   1.292   1_455 S
C1382  C1391   1.454   .     S
C1382  O1428   1.285   .     A
C1382  O1522   1.293   .     S
C1383  H1459   1.080   .     S
C1383  C1412   1.412   .     A
C1383  C1385   1.387   .     A
C1384  H1460   1.080   .     S
C1384  C1386   1.395   .     A
C1384  C1411   1.414   .     A
C1385  H1415   1.084   .     S
C1386  H1416   1.084   .     S
C1386  C582    1.396   1_556 S
C1387  H1419   1.084   .     S
C1387  C1484   1.399   .     S
C1388  H1420   1.084   .     S
C1388  C838    1.388   1_565 S
C1388  C1575   1.399   1_455 S
C1389  C1391   1.413   .     A
C1389  N1461   1.424   .     S
C1389  C835    1.387   1_565 S
C1390  N1467   1.423   .     S
C1390  C1392   1.412   .     A
C1391  C1480   1.399   .     S
C1392  C1571   1.399   1_455 S
C1393  H1421   1.081   .     S
C1393  N1426   1.367   .     A
C1393  C1395   1.414   .     A
C1394  H1422   1.081   .     S
C1394  N1425   1.367   .     A
C1394  C1396   1.414   .     A
C1395  N1425   1.365   .     A
C1395  H1423   1.082   .     S
C1396  H1424   1.082   .     S
C1396  N1426   1.365   .     A
C1397  O1433   1.292   .     A
C1397  C1399   1.465   .     S
C1397  O1523   1.290   .     S
C1398  C1400   1.488   .     S
C1398  O1434   1.294   .     A
C1398  O1616   1.300   1_455 S
C1399  C1403   1.414   .     A
C1399  C1405   1.413   .     A
C1400  C1404   1.421   .     A
C1400  C1406   1.422   .     A
C1401  C1403   1.395   .     A
C1401  C1409   1.397   .     A
C1401  H1417   1.085   .     S
C1402  C1404   1.402   .     A
C1402  C1410   1.398   .     A
C1402  H1602   1.085   1_455 S
C1403  N1545   1.424   .     S
C1404  N1631   1.423   1_455 S
C1405  N1441   1.434   .     S
C1405  C1407   1.414   .     A
C1406  N1435   1.427   .     S
C1406  C1408   1.405   .     A
C1407  C1409   1.416   .     A
C1407  C1411   1.422   .     A
C1408  C1412   1.417   .     A
C1408  C1410   1.408   .     A
C1409  C557    1.393   1_556 S
C1411  C584    1.415   1_556 S
Cu1413 N1425   2.005   .     S
Cu1413 O1430   1.967   .     S
Cu1413 O1427   1.974   .     S
Cu1413 O1434   1.946   .     S
Cu1413 O1431   1.958   .     S
Cu1413 Cu1598  2.668   1_455 S
Cu1414 N1426   2.005   .     S
Cu1414 O1428   1.974   .     S
Cu1414 O1429   1.967   .     S
Cu1414 O1432   1.958   .     S
Cu1414 O1433   1.946   .     S
Cu1414 Cu1505  2.668   .     S
H1418  C1494   1.085   .     S
O1429  C1473   1.292   .     S
O1430  C1566   1.293   1_455 S
O1431  C1581   1.290   1_455 S
O1432  C1490   1.300   .     S
N1435  H1436   1.029   .     S
N1435  C1437   1.446   .     S
C1437  H1439   1.111   .     S
C1437  H1440   1.110   .     S
C1437  H1438   1.109   .     S
N1441  C1443   1.448   .     S
N1441  H1442   1.028   .     S
C1443  H1445   1.110   .     S
C1443  H1446   1.112   .     S
C1443  H1444   1.111   .     S
N1447  H1448   1.031   .     S
N1447  C1449   1.447   .     S
N1447  C1496   1.423   .     S
C1449  H1451   1.109   .     S
C1449  H1450   1.111   .     S
C1449  H1452   1.112   .     S
N1453  H1454   1.032   .     S
N1453  C1455   1.445   .     S
N1453  C1587   1.424   1_455 S
C1455  H1456   1.110   .     S
C1455  H1457   1.110   .     S
C1455  H1458   1.111   .     S
N1461  H1462   1.032   .     S
N1461  C1463   1.448   .     S
C1463  H1464   1.111   .     S
C1463  H1465   1.112   .     S
C1463  H1466   1.110   .     S
N1467  H1468   1.032   .     S
N1467  C1469   1.447   .     S
C1469  H1471   1.110   .     S
C1469  H1472   1.109   .     S
C1469  H1470   1.111   .     S
C1473  C1484   1.454   .     S
C1473  O1519   1.286   .     A
C1474  C1483   1.454   .     S
C1474  O1520   1.285   .     A
C1474  O1614   1.293   .     S
C1475  H1551   1.080   .     S
C1475  C1504   1.412   .     A
C1475  C1477   1.387   .     A
C1476  H1552   1.080   .     S
C1476  C1478   1.395   .     A
C1476  C1503   1.414   .     A
C1477  H1507   1.084   .     S
C1478  H1508   1.084   .     S
C1478  C674    1.396   1_556 S
C1479  H1511   1.084   .     S
C1479  C1576   1.399   .     S
C1480  H1512   1.084   .     S
C1480  C930    1.388   1_565 S
C1481  C1483   1.413   .     A
C1481  N1553   1.424   .     S
C1481  C927    1.387   1_565 S
C1482  N1559   1.423   .     S
C1482  C1484   1.412   .     A
C1483  C1572   1.399   .     S
C1485  H1513   1.081   .     S
C1485  N1518   1.367   .     A
C1485  C1487   1.414   .     A
C1486  H1514   1.081   .     S
C1486  N1517   1.367   .     A
C1486  C1488   1.414   .     A
C1487  N1517   1.365   .     A
C1487  H1515   1.082   .     S
C1488  H1516   1.082   .     S
C1488  N1518   1.365   .     A
C1489  O1525   1.292   .     A
C1489  C1491   1.465   .     S
C1489  O1615   1.290   .     S
C1490  C1492   1.488   .     S
C1490  O1526   1.294   .     A
C1491  C1495   1.414   .     A
C1491  C1497   1.413   .     A
C1492  C1496   1.421   .     A
C1492  C1498   1.422   .     A
C1493  C1495   1.395   .     A
C1493  C1501   1.397   .     A
C1493  H1509   1.085   .     S
C1494  C1496   1.402   .     A
C1494  C1502   1.398   .     A
C1495  N1637   1.424   .     S
C1497  N1533   1.434   .     S
C1497  C1499   1.414   .     A
C1498  N1527   1.427   .     S
C1498  C1500   1.405   .     A
C1499  C1501   1.416   .     A
C1499  C1503   1.422   .     A
C1500  C1504   1.417   .     A
C1500  C1502   1.408   .     A
C1501  C649    1.393   1_556 S
C1503  C676    1.415   1_556 S
Cu1505 N1517   2.005   .     S
Cu1505 O1522   1.967   .     S
Cu1505 O1519   1.974   .     S
Cu1505 O1526   1.946   .     S
Cu1505 O1523   1.958   .     S
Cu1506 N1518   2.005   .     S
Cu1506 O1520   1.974   .     S
Cu1506 O1521   1.967   .     S
Cu1506 O1524   1.958   .     S
Cu1506 O1525   1.946   .     S
Cu1506 Cu1597  2.668   .     S
H1510  C1586   1.085   .     S
O1521  C1565   1.292   .     S
O1524  C1582   1.300   .     S
N1527  H1528   1.029   .     S
N1527  C1529   1.446   .     S
C1529  H1531   1.111   .     S
C1529  H1532   1.110   .     S
C1529  H1530   1.109   .     S
N1533  C1535   1.448   .     S
N1533  H1534   1.028   .     S
C1535  H1537   1.110   .     S
C1535  H1538   1.112   .     S
C1535  H1536   1.111   .     S
N1539  H1540   1.031   .     S
N1539  C1541   1.447   .     S
N1539  C1588   1.423   .     S
C1541  H1543   1.109   .     S
C1541  H1542   1.111   .     S
C1541  H1544   1.112   .     S
N1545  H1546   1.032   .     S
N1545  C1547   1.445   .     S
C1547  H1548   1.110   .     S
C1547  H1549   1.110   .     S
C1547  H1550   1.111   .     S
N1553  H1554   1.032   .     S
N1553  C1555   1.448   .     S
C1555  H1556   1.111   .     S
C1555  H1557   1.112   .     S
C1555  H1558   1.110   .     S
N1559  H1560   1.032   .     S
N1559  C1561   1.447   .     S
C1561  H1563   1.110   .     S
C1561  H1564   1.109   .     S
C1561  H1562   1.111   .     S
C1565  C1576   1.454   .     S
C1565  O1611   1.286   .     A
C1566  C1575   1.454   .     S
C1566  O1612   1.285   .     A
C1566  O1430   1.293   1_655 S
C1567  H1643   1.080   .     S
C1567  C1596   1.412   .     A
C1567  C1569   1.387   .     A
C1568  H1644   1.080   .     S
C1568  C1570   1.395   .     A
C1568  C1595   1.414   .     A
C1569  H1599   1.084   .     S
C1570  H1600   1.084   .     S
C1570  C766    1.396   1_556 S
C1571  H1603   1.084   .     S
C1571  C1392   1.399   1_655 S
C1572  H1604   1.084   .     S
C1572  C1022   1.388   1_565 S
C1573  C1575   1.413   .     A
C1573  N1645   1.424   .     S
C1573  C1019   1.387   1_565 S
C1574  N1651   1.423   .     S
C1574  C1576   1.412   .     A
C1575  C1388   1.399   1_655 S
C1577  H1605   1.081   .     S
C1577  N1610   1.367   .     A
C1577  C1579   1.414   .     A
C1578  H1606   1.081   .     S
C1578  N1609   1.367   .     A
C1578  C1580   1.414   .     A
C1579  N1609   1.365   .     A
C1579  H1607   1.082   .     S
C1580  H1608   1.082   .     S
C1580  N1610   1.365   .     A
C1581  O1617   1.292   .     A
C1581  C1583   1.465   .     S
C1581  O1431   1.290   1_655 S
C1582  C1584   1.488   .     S
C1582  O1618   1.294   .     A
C1583  C1587   1.414   .     A
C1583  C1589   1.413   .     A
C1584  C1588   1.421   .     A
C1584  C1590   1.422   .     A
C1585  C1587   1.395   .     A
C1585  C1593   1.397   .     A
C1585  H1601   1.085   .     S
C1586  C1588   1.402   .     A
C1586  C1594   1.398   .     A
C1587  N1453   1.424   1_655 S
C1589  N1625   1.434   .     S
C1589  C1591   1.414   .     A
C1590  N1619   1.427   .     S
C1590  C1592   1.405   .     A
C1591  C1593   1.416   .     A
C1591  C1595   1.422   .     A
C1592  C1596   1.417   .     A
C1592  C1594   1.408   .     A
C1593  C741    1.393   1_556 S
C1595  C768    1.415   1_556 S
Cu1597 N1609   2.005   .     S
Cu1597 O1614   1.967   .     S
Cu1597 O1611   1.974   .     S
Cu1597 O1618   1.946   .     S
Cu1597 O1615   1.958   .     S
Cu1598 N1610   2.005   .     S
Cu1598 O1612   1.974   .     S
Cu1598 O1613   1.967   .     S
Cu1598 O1616   1.958   .     S
Cu1598 O1617   1.946   .     S
Cu1598 Cu1413  2.668   1_655 S
H1602  C1402   1.085   1_655 S
O1613  C1381   1.292   1_655 S
O1616  C1398   1.300   1_655 S
N1619  H1620   1.029   .     S
N1619  C1621   1.446   .     S
C1621  H1623   1.111   .     S
C1621  H1624   1.110   .     S
C1621  H1622   1.109   .     S
N1625  C1627   1.448   .     S
N1625  H1626   1.028   .     S
C1627  H1629   1.110   .     S
C1627  H1630   1.112   .     S
C1627  H1628   1.111   .     S
N1631  H1632   1.031   .     S
N1631  C1633   1.447   .     S
N1631  C1404   1.423   1_655 S
C1633  H1635   1.109   .     S
C1633  H1634   1.111   .     S
C1633  H1636   1.112   .     S
N1637  H1638   1.032   .     S
N1637  C1639   1.445   .     S
C1639  H1640   1.110   .     S
C1639  H1641   1.110   .     S
C1639  H1642   1.111   .     S
N1645  H1646   1.032   .     S
N1645  C1647   1.448   .     S
C1647  H1648   1.111   .     S
C1647  H1649   1.112   .     S
C1647  H1650   1.110   .     S
N1651  H1652   1.032   .     S
N1651  C1653   1.447   .     S
C1653  H1655   1.110   .     S
C1653  H1656   1.109   .     S
C1653  H1654   1.111   .     S
