data_str_m2_o1_o18_pcu_sym.217
_audit_creation_date              2020-01-03
_audit_creation_method            'Materials Studio'
_symmetry_space_group_name_H-M    'P1'
_symmetry_Int_Tables_number       1
_symmetry_cell_setting            triclinic
loop_
_symmetry_equiv_pos_as_xyz
  x,y,z
_cell_length_a                    28.8390
_cell_length_b                    32.3082
_cell_length_c                    31.1552
_cell_angle_alpha                 88.7113
_cell_angle_beta                  73.7718
_cell_angle_gamma                 91.2799
loop_
_atom_site_label
_atom_site_type_symbol
_atom_site_fract_x
_atom_site_fract_y
_atom_site_fract_z
_atom_site_U_iso_or_equiv
_atom_site_adp_type
_atom_site_occupancy
C1     C     0.00003   0.08761   0.24871   0.00000  Uiso   1.00
C2     C     0.33319   0.24575   0.25156   0.00000  Uiso   1.00
C3     C     0.19142   0.19359   0.04284   0.00000  Uiso   1.00
C4     C     0.13870   0.15798   0.45329   0.00000  Uiso   1.00
C5     C     0.23984   0.19958   0.01990   0.00000  Uiso   1.00
C6     C     0.09021   0.15247   0.47615   0.00000  Uiso   1.00
C7     C     0.29749   0.02129   0.28060   0.00000  Uiso   1.00
C8     C     0.03558   0.31221   0.21946   0.00000  Uiso   1.00
C9     C     0.29718   0.31160   0.28381   0.00000  Uiso   1.00
C10    C     0.03609   0.02192   0.21653   0.00000  Uiso   1.00
C11    C     0.33331   0.29045   0.25246   0.00000  Uiso   1.00
C12    C     0.33314   0.04300   0.24766   0.00000  Uiso   1.00
C13    C     0.18258   0.13627   0.27348   0.00000  Uiso   1.00
C14    C     0.15069   0.19721   0.22671   0.00000  Uiso   1.00
C15    C     0.13359   0.13651   0.27226   0.00000  Uiso   1.00
C16    C     0.19980   0.19677   0.22764   0.00000  Uiso   1.00
C17    C     0.30597   0.16686   0.33586   0.00000  Uiso   1.00
C18    C     0.02737   0.16647   0.16410   0.00000  Uiso   1.00
C19    C     0.29078   0.17098   0.38449   0.00000  Uiso   1.00
C20    C     0.04248   0.16527   0.11512   0.00000  Uiso   1.00
C21    C     0.30575   0.19541   0.45223   0.00000  Uiso   1.00
C22    C     0.02528   0.15180   0.04505   0.00000  Uiso   1.00
C23    C     0.32270   0.18644   0.40717   0.00000  Uiso   1.00
C24    C     0.00936   0.15577   0.09119   0.00000  Uiso   1.00
C25    C     0.24229   0.16333   0.40749   0.00000  Uiso   1.00
C26    C     0.09121   0.17231   0.09234   0.00000  Uiso   1.00
C27    C     0.22369   0.17383   0.45246   0.00000  Uiso   1.00
C28    C     0.10805   0.16991   0.04558   0.00000  Uiso   1.00
C29    C     0.25655   0.18948   0.47506   0.00000  Uiso   1.00
C30    C     0.07439   0.15814   0.02210   0.00000  Uiso   1.00
C31    C     0.17354   0.16935   0.47543   0.00000  Uiso   1.00
C32    C     0.15758   0.17743   0.02185   0.00000  Uiso   1.00
Cu33   Cu    0.04689   0.16667   0.25000   0.00000  Uiso   1.00
Cu34   Cu    0.28645   0.16666   0.25000   0.00000  Uiso   1.00
H35    H     0.11559   0.17827   0.11219   0.00000  Uiso   1.00
H36    H     0.21991   0.14920   0.38915   0.00000  Uiso   1.00
H37    H     0.30476   0.15021   0.10823   0.00000  Uiso   1.00
H38    H     0.02706   0.19282   0.38979   0.00000  Uiso   1.00
H39    H     0.33109   0.20780   0.46893   0.00000  Uiso   1.00
H40    H     0.33245   0.14326   0.02747   0.00000  Uiso   1.00
H41    H     0.18141   0.20334   0.07685   0.00000  Uiso   1.00
H42    H     0.14736   0.15404   0.41780   0.00000  Uiso   1.00
H43    H     0.27102   0.03819   0.30511   0.00000  Uiso   1.00
H44    H     0.06233   0.29549   0.19502   0.00000  Uiso   1.00
H45    H     0.10791   0.11257   0.28920   0.00000  Uiso   1.00
H46    H     0.22559   0.22061   0.21069   0.00000  Uiso   1.00
N47    N     0.11736   0.16668   0.24999   0.00000  Uiso   1.00
N48    N     0.21597   0.16666   0.25001   0.00000  Uiso   1.00
O49    O     0.03958   0.10655   0.25000   0.00000  Uiso   1.00
O50    O     0.29375   0.22678   0.25000   0.00000  Uiso   1.00
O51    O     0.29372   0.10654   0.25001   0.00000  Uiso   1.00
O52    O     0.03961   0.22679   0.24999   0.00000  Uiso   1.00
O53    O     0.01852   0.16668   0.31491   0.00000  Uiso   1.00
O54    O     0.31481   0.16666   0.18509   0.00000  Uiso   1.00
O55    O     0.27267   0.16667   0.31492   0.00000  Uiso   1.00
O56    O     0.06067   0.16667   0.18508   0.00000  Uiso   1.00
F57    F     0.27041   0.21558   0.04189   0.00000  Uiso   1.00
F58    F     0.05885   0.14046   0.45310   0.00000  Uiso   1.00
C59    C     0.26015   0.28990   0.32262   0.00000  Uiso   1.00
C60    C     0.28311   0.27674   0.35914   0.00000  Uiso   1.00
H61    H     0.25574   0.25997   0.38666   0.00000  Uiso   1.00
H62    H     0.31366   0.25608   0.34566   0.00000  Uiso   1.00
H63    H     0.29673   0.30441   0.37292   0.00000  Uiso   1.00
H64    H     0.23026   0.31092   0.33760   0.00000  Uiso   1.00
H65    H     0.24281   0.26280   0.31152   0.00000  Uiso   1.00
C66    C     0.07439   0.04380   0.17891   0.00000  Uiso   1.00
C67    C     0.12332   0.04471   0.18886   0.00000  Uiso   1.00
H68    H     0.15040   0.06176   0.16136   0.00000  Uiso   1.00
H69    H     0.12082   0.06059   0.22062   0.00000  Uiso   1.00
H70    H     0.13579   0.01273   0.19155   0.00000  Uiso   1.00
H71    H     0.07767   0.02740   0.14725   0.00000  Uiso   1.00
H72    H     0.06451   0.07592   0.17268   0.00000  Uiso   1.00
C73    C     0.19699   0.10024   0.29890   0.00000  Uiso   1.00
C74    C     0.15755   0.08336   0.33994   0.00000  Uiso   1.00
H75    H     0.13863   0.10910   0.35997   0.00000  Uiso   1.00
H76    H     0.13110   0.06312   0.32976   0.00000  Uiso   1.00
H77    H     0.17413   0.06417   0.36143   0.00000  Uiso   1.00
H78    H     0.20863   0.07452   0.27559   0.00000  Uiso   1.00
H79    H     0.22682   0.10940   0.31223   0.00000  Uiso   1.00
C80    C     0.13585   0.23360   0.20205   0.00000  Uiso   1.00
C81    C     0.17580   0.25352   0.16331   0.00000  Uiso   1.00
H82    H     0.20011   0.27393   0.17613   0.00000  Uiso   1.00
H83    H     0.19706   0.22944   0.14224   0.00000  Uiso   1.00
H84    H     0.15938   0.27318   0.14207   0.00000  Uiso   1.00
H85    H     0.10769   0.22383   0.18672   0.00000  Uiso   1.00
H86    H     0.12174   0.25798   0.22646   0.00000  Uiso   1.00
C87    C     0.33336   0.08761   0.24871   0.00000  Uiso   1.00
C88    C     0.66652   0.24575   0.25156   0.00000  Uiso   1.00
C89    C     0.52476   0.19359   0.04284   0.00000  Uiso   1.00
C90    C     0.47203   0.15798   0.45329   0.00000  Uiso   1.00
C91    C     0.57317   0.19958   0.01990   0.00000  Uiso   1.00
C92    C     0.42355   0.15247   0.47615   0.00000  Uiso   1.00
C93    C     0.63083   0.02129   0.28060   0.00000  Uiso   1.00
C94    C     0.36892   0.31221   0.21946   0.00000  Uiso   1.00
C95    C     0.63051   0.31160   0.28381   0.00000  Uiso   1.00
C96    C     0.36942   0.02192   0.21653   0.00000  Uiso   1.00
C97    C     0.66664   0.29045   0.25246   0.00000  Uiso   1.00
C98    C     0.66647   0.04300   0.24766   0.00000  Uiso   1.00
C99    C     0.51591   0.13627   0.27348   0.00000  Uiso   1.00
C100   C     0.48403   0.19721   0.22671   0.00000  Uiso   1.00
C101   C     0.46692   0.13651   0.27226   0.00000  Uiso   1.00
C102   C     0.53313   0.19677   0.22764   0.00000  Uiso   1.00
C103   C     0.63930   0.16686   0.33586   0.00000  Uiso   1.00
C104   C     0.36070   0.16647   0.16410   0.00000  Uiso   1.00
C105   C     0.62412   0.17098   0.38449   0.00000  Uiso   1.00
C106   C     0.37581   0.16527   0.11512   0.00000  Uiso   1.00
C107   C     0.63908   0.19541   0.45223   0.00000  Uiso   1.00
C108   C     0.35861   0.15180   0.04505   0.00000  Uiso   1.00
C109   C     0.65604   0.18644   0.40717   0.00000  Uiso   1.00
C110   C     0.34269   0.15577   0.09119   0.00000  Uiso   1.00
C111   C     0.57562   0.16333   0.40749   0.00000  Uiso   1.00
C112   C     0.42455   0.17231   0.09234   0.00000  Uiso   1.00
C113   C     0.55703   0.17383   0.45246   0.00000  Uiso   1.00
C114   C     0.44139   0.16991   0.04558   0.00000  Uiso   1.00
C115   C     0.58989   0.18948   0.47506   0.00000  Uiso   1.00
C116   C     0.40772   0.15814   0.02210   0.00000  Uiso   1.00
C117   C     0.50687   0.16935   0.47543   0.00000  Uiso   1.00
C118   C     0.49092   0.17743   0.02185   0.00000  Uiso   1.00
Cu119  Cu    0.38022   0.16667   0.25000   0.00000  Uiso   1.00
Cu120  Cu    0.61978   0.16666   0.25000   0.00000  Uiso   1.00
H121   H     0.44892   0.17827   0.11219   0.00000  Uiso   1.00
H122   H     0.55324   0.14920   0.38915   0.00000  Uiso   1.00
H123   H     0.63809   0.15021   0.10823   0.00000  Uiso   1.00
H124   H     0.36040   0.19282   0.38979   0.00000  Uiso   1.00
H125   H     0.66442   0.20780   0.46893   0.00000  Uiso   1.00
H126   H     0.66579   0.14326   0.02747   0.00000  Uiso   1.00
H127   H     0.51474   0.20334   0.07685   0.00000  Uiso   1.00
H128   H     0.48070   0.15404   0.41780   0.00000  Uiso   1.00
H129   H     0.60435   0.03819   0.30511   0.00000  Uiso   1.00
H130   H     0.39567   0.29549   0.19502   0.00000  Uiso   1.00
H131   H     0.44124   0.11257   0.28920   0.00000  Uiso   1.00
H132   H     0.55892   0.22061   0.21069   0.00000  Uiso   1.00
N133   N     0.45069   0.16668   0.24999   0.00000  Uiso   1.00
N134   N     0.54931   0.16666   0.25001   0.00000  Uiso   1.00
O135   O     0.37291   0.10655   0.25000   0.00000  Uiso   1.00
O136   O     0.62709   0.22678   0.25000   0.00000  Uiso   1.00
O137   O     0.62706   0.10654   0.25001   0.00000  Uiso   1.00
O138   O     0.37294   0.22679   0.24999   0.00000  Uiso   1.00
O139   O     0.35186   0.16668   0.31491   0.00000  Uiso   1.00
O140   O     0.64814   0.16666   0.18509   0.00000  Uiso   1.00
O141   O     0.60600   0.16667   0.31492   0.00000  Uiso   1.00
O142   O     0.39400   0.16667   0.18508   0.00000  Uiso   1.00
F143   F     0.60375   0.21558   0.04189   0.00000  Uiso   1.00
F144   F     0.39219   0.14046   0.45310   0.00000  Uiso   1.00
C145   C     0.59348   0.28990   0.32262   0.00000  Uiso   1.00
C146   C     0.61644   0.27674   0.35914   0.00000  Uiso   1.00
H147   H     0.58907   0.25997   0.38666   0.00000  Uiso   1.00
H148   H     0.64699   0.25608   0.34566   0.00000  Uiso   1.00
H149   H     0.63006   0.30441   0.37292   0.00000  Uiso   1.00
H150   H     0.56359   0.31092   0.33760   0.00000  Uiso   1.00
H151   H     0.57615   0.26280   0.31152   0.00000  Uiso   1.00
C152   C     0.40772   0.04380   0.17891   0.00000  Uiso   1.00
C153   C     0.45665   0.04471   0.18886   0.00000  Uiso   1.00
H154   H     0.48373   0.06176   0.16136   0.00000  Uiso   1.00
H155   H     0.45415   0.06059   0.22062   0.00000  Uiso   1.00
H156   H     0.46913   0.01273   0.19155   0.00000  Uiso   1.00
H157   H     0.41100   0.02740   0.14725   0.00000  Uiso   1.00
H158   H     0.39784   0.07592   0.17268   0.00000  Uiso   1.00
C159   C     0.53032   0.10024   0.29890   0.00000  Uiso   1.00
C160   C     0.49088   0.08336   0.33994   0.00000  Uiso   1.00
H161   H     0.47196   0.10910   0.35997   0.00000  Uiso   1.00
H162   H     0.46443   0.06312   0.32976   0.00000  Uiso   1.00
H163   H     0.50747   0.06417   0.36143   0.00000  Uiso   1.00
H164   H     0.54196   0.07452   0.27559   0.00000  Uiso   1.00
H165   H     0.56016   0.10940   0.31223   0.00000  Uiso   1.00
C166   C     0.46918   0.23360   0.20205   0.00000  Uiso   1.00
C167   C     0.50913   0.25352   0.16331   0.00000  Uiso   1.00
H168   H     0.53344   0.27393   0.17613   0.00000  Uiso   1.00
H169   H     0.53039   0.22944   0.14224   0.00000  Uiso   1.00
H170   H     0.49271   0.27318   0.14207   0.00000  Uiso   1.00
H171   H     0.44102   0.22383   0.18672   0.00000  Uiso   1.00
H172   H     0.45507   0.25798   0.22646   0.00000  Uiso   1.00
C173   C     0.66669   0.08761   0.24871   0.00000  Uiso   1.00
C174   C     0.99986   0.24575   0.25156   0.00000  Uiso   1.00
C175   C     0.85809   0.19359   0.04284   0.00000  Uiso   1.00
C176   C     0.80537   0.15798   0.45329   0.00000  Uiso   1.00
C177   C     0.90651   0.19958   0.01990   0.00000  Uiso   1.00
C178   C     0.75688   0.15247   0.47615   0.00000  Uiso   1.00
C179   C     0.96416   0.02129   0.28060   0.00000  Uiso   1.00
C180   C     0.70225   0.31221   0.21946   0.00000  Uiso   1.00
C181   C     0.96384   0.31160   0.28381   0.00000  Uiso   1.00
C182   C     0.70275   0.02192   0.21653   0.00000  Uiso   1.00
C183   C     0.99998   0.29045   0.25246   0.00000  Uiso   1.00
C184   C     0.99981   0.04300   0.24766   0.00000  Uiso   1.00
C185   C     0.84924   0.13627   0.27348   0.00000  Uiso   1.00
C186   C     0.81736   0.19721   0.22671   0.00000  Uiso   1.00
C187   C     0.80026   0.13651   0.27226   0.00000  Uiso   1.00
C188   C     0.86646   0.19677   0.22764   0.00000  Uiso   1.00
C189   C     0.97264   0.16686   0.33586   0.00000  Uiso   1.00
C190   C     0.69403   0.16647   0.16410   0.00000  Uiso   1.00
C191   C     0.95745   0.17098   0.38449   0.00000  Uiso   1.00
C192   C     0.70915   0.16527   0.11512   0.00000  Uiso   1.00
C193   C     0.97241   0.19541   0.45223   0.00000  Uiso   1.00
C194   C     0.69195   0.15180   0.04505   0.00000  Uiso   1.00
C195   C     0.98937   0.18644   0.40717   0.00000  Uiso   1.00
C196   C     0.67603   0.15577   0.09119   0.00000  Uiso   1.00
C197   C     0.90896   0.16333   0.40749   0.00000  Uiso   1.00
C198   C     0.75788   0.17231   0.09234   0.00000  Uiso   1.00
C199   C     0.89036   0.17383   0.45246   0.00000  Uiso   1.00
C200   C     0.77472   0.16991   0.04558   0.00000  Uiso   1.00
C201   C     0.92322   0.18948   0.47506   0.00000  Uiso   1.00
C202   C     0.74106   0.15814   0.02210   0.00000  Uiso   1.00
C203   C     0.84021   0.16935   0.47543   0.00000  Uiso   1.00
C204   C     0.82425   0.17743   0.02185   0.00000  Uiso   1.00
Cu205  Cu    0.71355   0.16667   0.25000   0.00000  Uiso   1.00
Cu206  Cu    0.95311   0.16666   0.25000   0.00000  Uiso   1.00
H207   H     0.78225   0.17827   0.11219   0.00000  Uiso   1.00
H208   H     0.88657   0.14920   0.38915   0.00000  Uiso   1.00
H209   H     0.97142   0.15021   0.10823   0.00000  Uiso   1.00
H210   H     0.69373   0.19282   0.38979   0.00000  Uiso   1.00
H211   H     0.99775   0.20780   0.46893   0.00000  Uiso   1.00
H212   H     0.99912   0.14326   0.02747   0.00000  Uiso   1.00
H213   H     0.84808   0.20334   0.07685   0.00000  Uiso   1.00
H214   H     0.81403   0.15404   0.41780   0.00000  Uiso   1.00
H215   H     0.93768   0.03819   0.30511   0.00000  Uiso   1.00
H216   H     0.72900   0.29549   0.19502   0.00000  Uiso   1.00
H217   H     0.77457   0.11257   0.28920   0.00000  Uiso   1.00
H218   H     0.89226   0.22061   0.21069   0.00000  Uiso   1.00
N219   N     0.78403   0.16668   0.24999   0.00000  Uiso   1.00
N220   N     0.88264   0.16666   0.25001   0.00000  Uiso   1.00
O221   O     0.70625   0.10655   0.25000   0.00000  Uiso   1.00
O222   O     0.96042   0.22678   0.25000   0.00000  Uiso   1.00
O223   O     0.96039   0.10654   0.25001   0.00000  Uiso   1.00
O224   O     0.70628   0.22679   0.24999   0.00000  Uiso   1.00
O225   O     0.68519   0.16668   0.31491   0.00000  Uiso   1.00
O226   O     0.98148   0.16666   0.18509   0.00000  Uiso   1.00
O227   O     0.93933   0.16667   0.31492   0.00000  Uiso   1.00
O228   O     0.72733   0.16667   0.18508   0.00000  Uiso   1.00
F229   F     0.93708   0.21558   0.04189   0.00000  Uiso   1.00
F230   F     0.72552   0.14046   0.45310   0.00000  Uiso   1.00
C231   C     0.92681   0.28990   0.32262   0.00000  Uiso   1.00
C232   C     0.94977   0.27674   0.35914   0.00000  Uiso   1.00
H233   H     0.92241   0.25997   0.38666   0.00000  Uiso   1.00
H234   H     0.98033   0.25608   0.34566   0.00000  Uiso   1.00
H235   H     0.96340   0.30441   0.37292   0.00000  Uiso   1.00
H236   H     0.89693   0.31092   0.33760   0.00000  Uiso   1.00
H237   H     0.90948   0.26280   0.31152   0.00000  Uiso   1.00
C238   C     0.74105   0.04380   0.17891   0.00000  Uiso   1.00
C239   C     0.78999   0.04471   0.18886   0.00000  Uiso   1.00
H240   H     0.81707   0.06176   0.16136   0.00000  Uiso   1.00
H241   H     0.78748   0.06059   0.22062   0.00000  Uiso   1.00
H242   H     0.80246   0.01273   0.19155   0.00000  Uiso   1.00
H243   H     0.74433   0.02740   0.14725   0.00000  Uiso   1.00
H244   H     0.73118   0.07592   0.17268   0.00000  Uiso   1.00
C245   C     0.86365   0.10024   0.29890   0.00000  Uiso   1.00
C246   C     0.82422   0.08336   0.33994   0.00000  Uiso   1.00
H247   H     0.80529   0.10910   0.35997   0.00000  Uiso   1.00
H248   H     0.79777   0.06312   0.32976   0.00000  Uiso   1.00
H249   H     0.84080   0.06417   0.36143   0.00000  Uiso   1.00
H250   H     0.87529   0.07452   0.27559   0.00000  Uiso   1.00
H251   H     0.89349   0.10940   0.31223   0.00000  Uiso   1.00
C252   C     0.80251   0.23360   0.20205   0.00000  Uiso   1.00
C253   C     0.84246   0.25352   0.16331   0.00000  Uiso   1.00
H254   H     0.86677   0.27393   0.17613   0.00000  Uiso   1.00
H255   H     0.86373   0.22944   0.14224   0.00000  Uiso   1.00
H256   H     0.82604   0.27318   0.14207   0.00000  Uiso   1.00
H257   H     0.77436   0.22383   0.18672   0.00000  Uiso   1.00
H258   H     0.78840   0.25798   0.22646   0.00000  Uiso   1.00
C259   C     0.00003   0.42094   0.24871   0.00000  Uiso   1.00
C260   C     0.33319   0.57908   0.25156   0.00000  Uiso   1.00
C261   C     0.19142   0.52692   0.04284   0.00000  Uiso   1.00
C262   C     0.13870   0.49131   0.45329   0.00000  Uiso   1.00
C263   C     0.23984   0.53292   0.01990   0.00000  Uiso   1.00
C264   C     0.09021   0.48581   0.47615   0.00000  Uiso   1.00
C265   C     0.29749   0.35463   0.28060   0.00000  Uiso   1.00
C266   C     0.03558   0.64554   0.21946   0.00000  Uiso   1.00
C267   C     0.29718   0.64494   0.28381   0.00000  Uiso   1.00
C268   C     0.03609   0.35526   0.21653   0.00000  Uiso   1.00
C269   C     0.33331   0.62378   0.25246   0.00000  Uiso   1.00
C270   C     0.33314   0.37633   0.24766   0.00000  Uiso   1.00
C271   C     0.18258   0.46960   0.27348   0.00000  Uiso   1.00
C272   C     0.15069   0.53054   0.22671   0.00000  Uiso   1.00
C273   C     0.13359   0.46984   0.27226   0.00000  Uiso   1.00
C274   C     0.19980   0.53010   0.22764   0.00000  Uiso   1.00
C275   C     0.30597   0.50019   0.33586   0.00000  Uiso   1.00
C276   C     0.02737   0.49981   0.16410   0.00000  Uiso   1.00
C277   C     0.29078   0.50431   0.38449   0.00000  Uiso   1.00
C278   C     0.04248   0.49861   0.11512   0.00000  Uiso   1.00
C279   C     0.30575   0.52874   0.45223   0.00000  Uiso   1.00
C280   C     0.02528   0.48513   0.04505   0.00000  Uiso   1.00
C281   C     0.32270   0.51978   0.40717   0.00000  Uiso   1.00
C282   C     0.00936   0.48911   0.09119   0.00000  Uiso   1.00
C283   C     0.24229   0.49666   0.40749   0.00000  Uiso   1.00
C284   C     0.09121   0.50564   0.09234   0.00000  Uiso   1.00
C285   C     0.22369   0.50717   0.45246   0.00000  Uiso   1.00
C286   C     0.10805   0.50325   0.04558   0.00000  Uiso   1.00
C287   C     0.25655   0.52282   0.47506   0.00000  Uiso   1.00
C288   C     0.07439   0.49148   0.02210   0.00000  Uiso   1.00
C289   C     0.17354   0.50269   0.47543   0.00000  Uiso   1.00
C290   C     0.15758   0.51076   0.02185   0.00000  Uiso   1.00
Cu291  Cu    0.04689   0.50001   0.25000   0.00000  Uiso   1.00
Cu292  Cu    0.28645   0.49999   0.25000   0.00000  Uiso   1.00
H293   H     0.11559   0.51161   0.11219   0.00000  Uiso   1.00
H294   H     0.21991   0.48254   0.38915   0.00000  Uiso   1.00
H295   H     0.30476   0.48354   0.10823   0.00000  Uiso   1.00
H296   H     0.02706   0.52615   0.38979   0.00000  Uiso   1.00
H297   H     0.33109   0.54113   0.46893   0.00000  Uiso   1.00
H298   H     0.33245   0.47660   0.02747   0.00000  Uiso   1.00
H299   H     0.18141   0.53667   0.07685   0.00000  Uiso   1.00
H300   H     0.14736   0.48737   0.41780   0.00000  Uiso   1.00
H301   H     0.27102   0.37152   0.30511   0.00000  Uiso   1.00
H302   H     0.06233   0.62882   0.19502   0.00000  Uiso   1.00
H303   H     0.10791   0.44590   0.28920   0.00000  Uiso   1.00
H304   H     0.22559   0.55395   0.21069   0.00000  Uiso   1.00
N305   N     0.11736   0.50001   0.24999   0.00000  Uiso   1.00
N306   N     0.21597   0.49999   0.25001   0.00000  Uiso   1.00
O307   O     0.03958   0.43989   0.25000   0.00000  Uiso   1.00
O308   O     0.29375   0.56011   0.25000   0.00000  Uiso   1.00
O309   O     0.29372   0.43988   0.25001   0.00000  Uiso   1.00
O310   O     0.03961   0.56012   0.24999   0.00000  Uiso   1.00
O311   O     0.01852   0.50001   0.31491   0.00000  Uiso   1.00
O312   O     0.31481   0.49999   0.18509   0.00000  Uiso   1.00
O313   O     0.27267   0.50000   0.31492   0.00000  Uiso   1.00
O314   O     0.06067   0.50000   0.18508   0.00000  Uiso   1.00
F315   F     0.27041   0.54892   0.04189   0.00000  Uiso   1.00
F316   F     0.05885   0.47379   0.45310   0.00000  Uiso   1.00
C317   C     0.26015   0.62324   0.32262   0.00000  Uiso   1.00
C318   C     0.28311   0.61007   0.35914   0.00000  Uiso   1.00
H319   H     0.25574   0.59331   0.38666   0.00000  Uiso   1.00
H320   H     0.31366   0.58942   0.34566   0.00000  Uiso   1.00
H321   H     0.29673   0.63775   0.37292   0.00000  Uiso   1.00
H322   H     0.23026   0.64425   0.33760   0.00000  Uiso   1.00
H323   H     0.24281   0.59613   0.31152   0.00000  Uiso   1.00
C324   C     0.07439   0.37713   0.17891   0.00000  Uiso   1.00
C325   C     0.12332   0.37804   0.18886   0.00000  Uiso   1.00
H326   H     0.15040   0.39509   0.16136   0.00000  Uiso   1.00
H327   H     0.12082   0.39392   0.22062   0.00000  Uiso   1.00
H328   H     0.13579   0.34606   0.19155   0.00000  Uiso   1.00
H329   H     0.07767   0.36074   0.14725   0.00000  Uiso   1.00
H330   H     0.06451   0.40925   0.17268   0.00000  Uiso   1.00
C331   C     0.19699   0.43357   0.29890   0.00000  Uiso   1.00
C332   C     0.15755   0.41670   0.33994   0.00000  Uiso   1.00
H333   H     0.13863   0.44243   0.35997   0.00000  Uiso   1.00
H334   H     0.13110   0.39645   0.32976   0.00000  Uiso   1.00
H335   H     0.17413   0.39750   0.36143   0.00000  Uiso   1.00
H336   H     0.20863   0.40785   0.27559   0.00000  Uiso   1.00
H337   H     0.22682   0.44273   0.31223   0.00000  Uiso   1.00
C338   C     0.13585   0.56693   0.20205   0.00000  Uiso   1.00
C339   C     0.17580   0.58686   0.16331   0.00000  Uiso   1.00
H340   H     0.20011   0.60726   0.17613   0.00000  Uiso   1.00
H341   H     0.19706   0.56277   0.14224   0.00000  Uiso   1.00
H342   H     0.15938   0.60651   0.14207   0.00000  Uiso   1.00
H343   H     0.10769   0.55717   0.18672   0.00000  Uiso   1.00
H344   H     0.12174   0.59132   0.22646   0.00000  Uiso   1.00
C345   C     0.33336   0.42094   0.24871   0.00000  Uiso   1.00
C346   C     0.66652   0.57908   0.25156   0.00000  Uiso   1.00
C347   C     0.52476   0.52692   0.04284   0.00000  Uiso   1.00
C348   C     0.47203   0.49131   0.45329   0.00000  Uiso   1.00
C349   C     0.57317   0.53292   0.01990   0.00000  Uiso   1.00
C350   C     0.42355   0.48581   0.47615   0.00000  Uiso   1.00
C351   C     0.63083   0.35463   0.28060   0.00000  Uiso   1.00
C352   C     0.36892   0.64554   0.21946   0.00000  Uiso   1.00
C353   C     0.63051   0.64494   0.28381   0.00000  Uiso   1.00
C354   C     0.36942   0.35526   0.21653   0.00000  Uiso   1.00
C355   C     0.66664   0.62378   0.25246   0.00000  Uiso   1.00
C356   C     0.66647   0.37633   0.24766   0.00000  Uiso   1.00
C357   C     0.51591   0.46960   0.27348   0.00000  Uiso   1.00
C358   C     0.48403   0.53054   0.22671   0.00000  Uiso   1.00
C359   C     0.46692   0.46984   0.27226   0.00000  Uiso   1.00
C360   C     0.53313   0.53010   0.22764   0.00000  Uiso   1.00
C361   C     0.63930   0.50019   0.33586   0.00000  Uiso   1.00
C362   C     0.36070   0.49981   0.16410   0.00000  Uiso   1.00
C363   C     0.62412   0.50431   0.38449   0.00000  Uiso   1.00
C364   C     0.37581   0.49861   0.11512   0.00000  Uiso   1.00
C365   C     0.63908   0.52874   0.45223   0.00000  Uiso   1.00
C366   C     0.35861   0.48513   0.04505   0.00000  Uiso   1.00
C367   C     0.65604   0.51978   0.40717   0.00000  Uiso   1.00
C368   C     0.34269   0.48911   0.09119   0.00000  Uiso   1.00
C369   C     0.57562   0.49666   0.40749   0.00000  Uiso   1.00
C370   C     0.42455   0.50564   0.09234   0.00000  Uiso   1.00
C371   C     0.55703   0.50717   0.45246   0.00000  Uiso   1.00
C372   C     0.44139   0.50325   0.04558   0.00000  Uiso   1.00
C373   C     0.58989   0.52282   0.47506   0.00000  Uiso   1.00
C374   C     0.40772   0.49148   0.02210   0.00000  Uiso   1.00
C375   C     0.50687   0.50269   0.47543   0.00000  Uiso   1.00
C376   C     0.49092   0.51076   0.02185   0.00000  Uiso   1.00
Cu377  Cu    0.38022   0.50001   0.25000   0.00000  Uiso   1.00
Cu378  Cu    0.61978   0.49999   0.25000   0.00000  Uiso   1.00
H379   H     0.44892   0.51161   0.11219   0.00000  Uiso   1.00
H380   H     0.55324   0.48254   0.38915   0.00000  Uiso   1.00
H381   H     0.63809   0.48354   0.10823   0.00000  Uiso   1.00
H382   H     0.36040   0.52615   0.38979   0.00000  Uiso   1.00
H383   H     0.66442   0.54113   0.46893   0.00000  Uiso   1.00
H384   H     0.66579   0.47660   0.02747   0.00000  Uiso   1.00
H385   H     0.51474   0.53667   0.07685   0.00000  Uiso   1.00
H386   H     0.48070   0.48737   0.41780   0.00000  Uiso   1.00
H387   H     0.60435   0.37152   0.30511   0.00000  Uiso   1.00
H388   H     0.39567   0.62882   0.19502   0.00000  Uiso   1.00
H389   H     0.44124   0.44590   0.28920   0.00000  Uiso   1.00
H390   H     0.55892   0.55395   0.21069   0.00000  Uiso   1.00
N391   N     0.45069   0.50001   0.24999   0.00000  Uiso   1.00
N392   N     0.54931   0.49999   0.25001   0.00000  Uiso   1.00
O393   O     0.37291   0.43989   0.25000   0.00000  Uiso   1.00
O394   O     0.62709   0.56011   0.25000   0.00000  Uiso   1.00
O395   O     0.62706   0.43988   0.25001   0.00000  Uiso   1.00
O396   O     0.37294   0.56012   0.24999   0.00000  Uiso   1.00
O397   O     0.35186   0.50001   0.31491   0.00000  Uiso   1.00
O398   O     0.64814   0.49999   0.18509   0.00000  Uiso   1.00
O399   O     0.60600   0.50000   0.31492   0.00000  Uiso   1.00
O400   O     0.39400   0.50000   0.18508   0.00000  Uiso   1.00
F401   F     0.60375   0.54892   0.04189   0.00000  Uiso   1.00
F402   F     0.39219   0.47379   0.45310   0.00000  Uiso   1.00
C403   C     0.59348   0.62324   0.32262   0.00000  Uiso   1.00
C404   C     0.61644   0.61007   0.35914   0.00000  Uiso   1.00
H405   H     0.58907   0.59331   0.38666   0.00000  Uiso   1.00
H406   H     0.64699   0.58942   0.34566   0.00000  Uiso   1.00
H407   H     0.63006   0.63775   0.37292   0.00000  Uiso   1.00
H408   H     0.56359   0.64425   0.33760   0.00000  Uiso   1.00
H409   H     0.57615   0.59613   0.31152   0.00000  Uiso   1.00
C410   C     0.40772   0.37713   0.17891   0.00000  Uiso   1.00
C411   C     0.45665   0.37804   0.18886   0.00000  Uiso   1.00
H412   H     0.48373   0.39509   0.16136   0.00000  Uiso   1.00
H413   H     0.45415   0.39392   0.22062   0.00000  Uiso   1.00
H414   H     0.46913   0.34606   0.19155   0.00000  Uiso   1.00
H415   H     0.41100   0.36074   0.14725   0.00000  Uiso   1.00
H416   H     0.39784   0.40925   0.17268   0.00000  Uiso   1.00
C417   C     0.53032   0.43357   0.29890   0.00000  Uiso   1.00
C418   C     0.49088   0.41670   0.33994   0.00000  Uiso   1.00
H419   H     0.47196   0.44243   0.35997   0.00000  Uiso   1.00
H420   H     0.46443   0.39645   0.32976   0.00000  Uiso   1.00
H421   H     0.50747   0.39750   0.36143   0.00000  Uiso   1.00
H422   H     0.54196   0.40785   0.27559   0.00000  Uiso   1.00
H423   H     0.56016   0.44273   0.31223   0.00000  Uiso   1.00
C424   C     0.46918   0.56693   0.20205   0.00000  Uiso   1.00
C425   C     0.50913   0.58686   0.16331   0.00000  Uiso   1.00
H426   H     0.53344   0.60726   0.17613   0.00000  Uiso   1.00
H427   H     0.53039   0.56277   0.14224   0.00000  Uiso   1.00
H428   H     0.49271   0.60651   0.14207   0.00000  Uiso   1.00
H429   H     0.44102   0.55717   0.18672   0.00000  Uiso   1.00
H430   H     0.45507   0.59132   0.22646   0.00000  Uiso   1.00
C431   C     0.66669   0.42094   0.24871   0.00000  Uiso   1.00
C432   C     0.99986   0.57908   0.25156   0.00000  Uiso   1.00
C433   C     0.85809   0.52692   0.04284   0.00000  Uiso   1.00
C434   C     0.80537   0.49131   0.45329   0.00000  Uiso   1.00
C435   C     0.90651   0.53292   0.01990   0.00000  Uiso   1.00
C436   C     0.75688   0.48581   0.47615   0.00000  Uiso   1.00
C437   C     0.96416   0.35463   0.28060   0.00000  Uiso   1.00
C438   C     0.70225   0.64554   0.21946   0.00000  Uiso   1.00
C439   C     0.96384   0.64494   0.28381   0.00000  Uiso   1.00
C440   C     0.70275   0.35526   0.21653   0.00000  Uiso   1.00
C441   C     0.99998   0.62378   0.25246   0.00000  Uiso   1.00
C442   C     0.99981   0.37633   0.24766   0.00000  Uiso   1.00
C443   C     0.84924   0.46960   0.27348   0.00000  Uiso   1.00
C444   C     0.81736   0.53054   0.22671   0.00000  Uiso   1.00
C445   C     0.80026   0.46984   0.27226   0.00000  Uiso   1.00
C446   C     0.86646   0.53010   0.22764   0.00000  Uiso   1.00
C447   C     0.97264   0.50019   0.33586   0.00000  Uiso   1.00
C448   C     0.69403   0.49981   0.16410   0.00000  Uiso   1.00
C449   C     0.95745   0.50431   0.38449   0.00000  Uiso   1.00
C450   C     0.70915   0.49861   0.11512   0.00000  Uiso   1.00
C451   C     0.97241   0.52874   0.45223   0.00000  Uiso   1.00
C452   C     0.69195   0.48513   0.04505   0.00000  Uiso   1.00
C453   C     0.98937   0.51978   0.40717   0.00000  Uiso   1.00
C454   C     0.67603   0.48911   0.09119   0.00000  Uiso   1.00
C455   C     0.90896   0.49666   0.40749   0.00000  Uiso   1.00
C456   C     0.75788   0.50564   0.09234   0.00000  Uiso   1.00
C457   C     0.89036   0.50717   0.45246   0.00000  Uiso   1.00
C458   C     0.77472   0.50325   0.04558   0.00000  Uiso   1.00
C459   C     0.92322   0.52282   0.47506   0.00000  Uiso   1.00
C460   C     0.74106   0.49148   0.02210   0.00000  Uiso   1.00
C461   C     0.84021   0.50269   0.47543   0.00000  Uiso   1.00
C462   C     0.82425   0.51076   0.02185   0.00000  Uiso   1.00
Cu463  Cu    0.71355   0.50001   0.25000   0.00000  Uiso   1.00
Cu464  Cu    0.95311   0.49999   0.25000   0.00000  Uiso   1.00
H465   H     0.78225   0.51161   0.11219   0.00000  Uiso   1.00
H466   H     0.88657   0.48254   0.38915   0.00000  Uiso   1.00
H467   H     0.97142   0.48354   0.10823   0.00000  Uiso   1.00
H468   H     0.69373   0.52615   0.38979   0.00000  Uiso   1.00
H469   H     0.99775   0.54113   0.46893   0.00000  Uiso   1.00
H470   H     0.99912   0.47660   0.02747   0.00000  Uiso   1.00
H471   H     0.84808   0.53667   0.07685   0.00000  Uiso   1.00
H472   H     0.81403   0.48737   0.41780   0.00000  Uiso   1.00
H473   H     0.93768   0.37152   0.30511   0.00000  Uiso   1.00
H474   H     0.72900   0.62882   0.19502   0.00000  Uiso   1.00
H475   H     0.77457   0.44590   0.28920   0.00000  Uiso   1.00
H476   H     0.89226   0.55395   0.21069   0.00000  Uiso   1.00
N477   N     0.78403   0.50001   0.24999   0.00000  Uiso   1.00
N478   N     0.88264   0.49999   0.25001   0.00000  Uiso   1.00
O479   O     0.70625   0.43989   0.25000   0.00000  Uiso   1.00
O480   O     0.96042   0.56011   0.25000   0.00000  Uiso   1.00
O481   O     0.96039   0.43988   0.25001   0.00000  Uiso   1.00
O482   O     0.70628   0.56012   0.24999   0.00000  Uiso   1.00
O483   O     0.68519   0.50001   0.31491   0.00000  Uiso   1.00
O484   O     0.98148   0.49999   0.18509   0.00000  Uiso   1.00
O485   O     0.93933   0.50000   0.31492   0.00000  Uiso   1.00
O486   O     0.72733   0.50000   0.18508   0.00000  Uiso   1.00
F487   F     0.93708   0.54892   0.04189   0.00000  Uiso   1.00
F488   F     0.72552   0.47379   0.45310   0.00000  Uiso   1.00
C489   C     0.92681   0.62324   0.32262   0.00000  Uiso   1.00
C490   C     0.94977   0.61007   0.35914   0.00000  Uiso   1.00
H491   H     0.92241   0.59331   0.38666   0.00000  Uiso   1.00
H492   H     0.98033   0.58942   0.34566   0.00000  Uiso   1.00
H493   H     0.96340   0.63775   0.37292   0.00000  Uiso   1.00
H494   H     0.89693   0.64425   0.33760   0.00000  Uiso   1.00
H495   H     0.90948   0.59613   0.31152   0.00000  Uiso   1.00
C496   C     0.74105   0.37713   0.17891   0.00000  Uiso   1.00
C497   C     0.78999   0.37804   0.18886   0.00000  Uiso   1.00
H498   H     0.81707   0.39509   0.16136   0.00000  Uiso   1.00
H499   H     0.78748   0.39392   0.22062   0.00000  Uiso   1.00
H500   H     0.80246   0.34606   0.19155   0.00000  Uiso   1.00
H501   H     0.74433   0.36074   0.14725   0.00000  Uiso   1.00
H502   H     0.73118   0.40925   0.17268   0.00000  Uiso   1.00
C503   C     0.86365   0.43357   0.29890   0.00000  Uiso   1.00
C504   C     0.82422   0.41670   0.33994   0.00000  Uiso   1.00
H505   H     0.80529   0.44243   0.35997   0.00000  Uiso   1.00
H506   H     0.79777   0.39645   0.32976   0.00000  Uiso   1.00
H507   H     0.84080   0.39750   0.36143   0.00000  Uiso   1.00
H508   H     0.87529   0.40785   0.27559   0.00000  Uiso   1.00
H509   H     0.89349   0.44273   0.31223   0.00000  Uiso   1.00
C510   C     0.80251   0.56693   0.20205   0.00000  Uiso   1.00
C511   C     0.84246   0.58686   0.16331   0.00000  Uiso   1.00
H512   H     0.86677   0.60726   0.17613   0.00000  Uiso   1.00
H513   H     0.86373   0.56277   0.14224   0.00000  Uiso   1.00
H514   H     0.82604   0.60651   0.14207   0.00000  Uiso   1.00
H515   H     0.77436   0.55717   0.18672   0.00000  Uiso   1.00
H516   H     0.78840   0.59132   0.22646   0.00000  Uiso   1.00
C517   C     0.00003   0.75428   0.24871   0.00000  Uiso   1.00
C518   C     0.33319   0.91242   0.25156   0.00000  Uiso   1.00
C519   C     0.19142   0.86025   0.04284   0.00000  Uiso   1.00
C520   C     0.13870   0.82464   0.45329   0.00000  Uiso   1.00
C521   C     0.23984   0.86625   0.01990   0.00000  Uiso   1.00
C522   C     0.09021   0.81914   0.47615   0.00000  Uiso   1.00
C523   C     0.29749   0.68796   0.28060   0.00000  Uiso   1.00
C524   C     0.03558   0.97887   0.21946   0.00000  Uiso   1.00
C525   C     0.29718   0.97827   0.28381   0.00000  Uiso   1.00
C526   C     0.03609   0.68859   0.21653   0.00000  Uiso   1.00
C527   C     0.33331   0.95711   0.25246   0.00000  Uiso   1.00
C528   C     0.33314   0.70966   0.24766   0.00000  Uiso   1.00
C529   C     0.18258   0.80293   0.27348   0.00000  Uiso   1.00
C530   C     0.15069   0.86388   0.22671   0.00000  Uiso   1.00
C531   C     0.13359   0.80317   0.27226   0.00000  Uiso   1.00
C532   C     0.19980   0.86344   0.22764   0.00000  Uiso   1.00
C533   C     0.30597   0.83353   0.33586   0.00000  Uiso   1.00
C534   C     0.02737   0.83314   0.16410   0.00000  Uiso   1.00
C535   C     0.29078   0.83765   0.38449   0.00000  Uiso   1.00
C536   C     0.04248   0.83194   0.11512   0.00000  Uiso   1.00
C537   C     0.30575   0.86208   0.45223   0.00000  Uiso   1.00
C538   C     0.02528   0.81847   0.04505   0.00000  Uiso   1.00
C539   C     0.32270   0.85311   0.40717   0.00000  Uiso   1.00
C540   C     0.00936   0.82244   0.09119   0.00000  Uiso   1.00
C541   C     0.24229   0.83000   0.40749   0.00000  Uiso   1.00
C542   C     0.09121   0.83898   0.09234   0.00000  Uiso   1.00
C543   C     0.22369   0.84050   0.45246   0.00000  Uiso   1.00
C544   C     0.10805   0.83658   0.04558   0.00000  Uiso   1.00
C545   C     0.25655   0.85615   0.47506   0.00000  Uiso   1.00
C546   C     0.07439   0.82481   0.02210   0.00000  Uiso   1.00
C547   C     0.17354   0.83602   0.47543   0.00000  Uiso   1.00
C548   C     0.15758   0.84410   0.02185   0.00000  Uiso   1.00
Cu549  Cu    0.04689   0.83334   0.25000   0.00000  Uiso   1.00
Cu550  Cu    0.28645   0.83333   0.25000   0.00000  Uiso   1.00
H551   H     0.11559   0.84494   0.11219   0.00000  Uiso   1.00
H552   H     0.21991   0.81587   0.38915   0.00000  Uiso   1.00
H553   H     0.30476   0.81687   0.10823   0.00000  Uiso   1.00
H554   H     0.02706   0.85948   0.38979   0.00000  Uiso   1.00
H555   H     0.33109   0.87447   0.46893   0.00000  Uiso   1.00
H556   H     0.33245   0.80993   0.02747   0.00000  Uiso   1.00
H557   H     0.18141   0.87001   0.07685   0.00000  Uiso   1.00
H558   H     0.14736   0.82070   0.41780   0.00000  Uiso   1.00
H559   H     0.27102   0.70485   0.30511   0.00000  Uiso   1.00
H560   H     0.06233   0.96215   0.19502   0.00000  Uiso   1.00
H561   H     0.10791   0.77924   0.28920   0.00000  Uiso   1.00
H562   H     0.22559   0.88728   0.21069   0.00000  Uiso   1.00
N563   N     0.11736   0.83334   0.24999   0.00000  Uiso   1.00
N564   N     0.21597   0.83332   0.25001   0.00000  Uiso   1.00
O565   O     0.03958   0.77322   0.25000   0.00000  Uiso   1.00
O566   O     0.29375   0.89345   0.25000   0.00000  Uiso   1.00
O567   O     0.29372   0.77321   0.25001   0.00000  Uiso   1.00
O568   O     0.03961   0.89346   0.24999   0.00000  Uiso   1.00
O569   O     0.01852   0.83334   0.31491   0.00000  Uiso   1.00
O570   O     0.31481   0.83332   0.18509   0.00000  Uiso   1.00
O571   O     0.27267   0.83333   0.31492   0.00000  Uiso   1.00
O572   O     0.06067   0.83333   0.18508   0.00000  Uiso   1.00
F573   F     0.27041   0.88225   0.04189   0.00000  Uiso   1.00
F574   F     0.05885   0.80712   0.45310   0.00000  Uiso   1.00
C575   C     0.26015   0.95657   0.32262   0.00000  Uiso   1.00
C576   C     0.28311   0.94340   0.35914   0.00000  Uiso   1.00
H577   H     0.25574   0.92664   0.38666   0.00000  Uiso   1.00
H578   H     0.31366   0.92275   0.34566   0.00000  Uiso   1.00
H579   H     0.29673   0.97108   0.37292   0.00000  Uiso   1.00
H580   H     0.23026   0.97759   0.33760   0.00000  Uiso   1.00
H581   H     0.24281   0.92947   0.31152   0.00000  Uiso   1.00
C582   C     0.07439   0.71047   0.17891   0.00000  Uiso   1.00
C583   C     0.12332   0.71138   0.18886   0.00000  Uiso   1.00
H584   H     0.15040   0.72843   0.16136   0.00000  Uiso   1.00
H585   H     0.12082   0.72725   0.22062   0.00000  Uiso   1.00
H586   H     0.13579   0.67939   0.19155   0.00000  Uiso   1.00
H587   H     0.07767   0.69407   0.14725   0.00000  Uiso   1.00
H588   H     0.06451   0.74259   0.17268   0.00000  Uiso   1.00
C589   C     0.19699   0.76690   0.29890   0.00000  Uiso   1.00
C590   C     0.15755   0.75003   0.33994   0.00000  Uiso   1.00
H591   H     0.13863   0.77577   0.35997   0.00000  Uiso   1.00
H592   H     0.13110   0.72979   0.32976   0.00000  Uiso   1.00
H593   H     0.17413   0.73083   0.36143   0.00000  Uiso   1.00
H594   H     0.20863   0.74119   0.27559   0.00000  Uiso   1.00
H595   H     0.22682   0.77606   0.31223   0.00000  Uiso   1.00
C596   C     0.13585   0.90027   0.20205   0.00000  Uiso   1.00
C597   C     0.17580   0.92019   0.16331   0.00000  Uiso   1.00
H598   H     0.20011   0.94059   0.17613   0.00000  Uiso   1.00
H599   H     0.19706   0.89610   0.14224   0.00000  Uiso   1.00
H600   H     0.15938   0.93984   0.14207   0.00000  Uiso   1.00
H601   H     0.10769   0.89050   0.18672   0.00000  Uiso   1.00
H602   H     0.12174   0.92465   0.22646   0.00000  Uiso   1.00
C603   C     0.33336   0.75428   0.24871   0.00000  Uiso   1.00
C604   C     0.66652   0.91242   0.25156   0.00000  Uiso   1.00
C605   C     0.52476   0.86025   0.04284   0.00000  Uiso   1.00
C606   C     0.47203   0.82464   0.45329   0.00000  Uiso   1.00
C607   C     0.57317   0.86625   0.01990   0.00000  Uiso   1.00
C608   C     0.42355   0.81914   0.47615   0.00000  Uiso   1.00
C609   C     0.63083   0.68796   0.28060   0.00000  Uiso   1.00
C610   C     0.36892   0.97887   0.21946   0.00000  Uiso   1.00
C611   C     0.63051   0.97827   0.28381   0.00000  Uiso   1.00
C612   C     0.36942   0.68859   0.21653   0.00000  Uiso   1.00
C613   C     0.66664   0.95711   0.25246   0.00000  Uiso   1.00
C614   C     0.66647   0.70966   0.24766   0.00000  Uiso   1.00
C615   C     0.51591   0.80293   0.27348   0.00000  Uiso   1.00
C616   C     0.48403   0.86388   0.22671   0.00000  Uiso   1.00
C617   C     0.46692   0.80317   0.27226   0.00000  Uiso   1.00
C618   C     0.53313   0.86344   0.22764   0.00000  Uiso   1.00
C619   C     0.63930   0.83353   0.33586   0.00000  Uiso   1.00
C620   C     0.36070   0.83314   0.16410   0.00000  Uiso   1.00
C621   C     0.62412   0.83765   0.38449   0.00000  Uiso   1.00
C622   C     0.37581   0.83194   0.11512   0.00000  Uiso   1.00
C623   C     0.63908   0.86208   0.45223   0.00000  Uiso   1.00
C624   C     0.35861   0.81847   0.04505   0.00000  Uiso   1.00
C625   C     0.65604   0.85311   0.40717   0.00000  Uiso   1.00
C626   C     0.34269   0.82244   0.09119   0.00000  Uiso   1.00
C627   C     0.57562   0.83000   0.40749   0.00000  Uiso   1.00
C628   C     0.42455   0.83898   0.09234   0.00000  Uiso   1.00
C629   C     0.55703   0.84050   0.45246   0.00000  Uiso   1.00
C630   C     0.44139   0.83658   0.04558   0.00000  Uiso   1.00
C631   C     0.58989   0.85615   0.47506   0.00000  Uiso   1.00
C632   C     0.40772   0.82481   0.02210   0.00000  Uiso   1.00
C633   C     0.50687   0.83602   0.47543   0.00000  Uiso   1.00
C634   C     0.49092   0.84410   0.02185   0.00000  Uiso   1.00
Cu635  Cu    0.38022   0.83334   0.25000   0.00000  Uiso   1.00
Cu636  Cu    0.61978   0.83333   0.25000   0.00000  Uiso   1.00
H637   H     0.44892   0.84494   0.11219   0.00000  Uiso   1.00
H638   H     0.55324   0.81587   0.38915   0.00000  Uiso   1.00
H639   H     0.63809   0.81687   0.10823   0.00000  Uiso   1.00
H640   H     0.36040   0.85948   0.38979   0.00000  Uiso   1.00
H641   H     0.66442   0.87447   0.46893   0.00000  Uiso   1.00
H642   H     0.66579   0.80993   0.02747   0.00000  Uiso   1.00
H643   H     0.51474   0.87001   0.07685   0.00000  Uiso   1.00
H644   H     0.48070   0.82070   0.41780   0.00000  Uiso   1.00
H645   H     0.60435   0.70485   0.30511   0.00000  Uiso   1.00
H646   H     0.39567   0.96215   0.19502   0.00000  Uiso   1.00
H647   H     0.44124   0.77924   0.28920   0.00000  Uiso   1.00
H648   H     0.55892   0.88728   0.21069   0.00000  Uiso   1.00
N649   N     0.45069   0.83334   0.24999   0.00000  Uiso   1.00
N650   N     0.54931   0.83332   0.25001   0.00000  Uiso   1.00
O651   O     0.37291   0.77322   0.25000   0.00000  Uiso   1.00
O652   O     0.62709   0.89345   0.25000   0.00000  Uiso   1.00
O653   O     0.62706   0.77321   0.25001   0.00000  Uiso   1.00
O654   O     0.37294   0.89346   0.24999   0.00000  Uiso   1.00
O655   O     0.35186   0.83334   0.31491   0.00000  Uiso   1.00
O656   O     0.64814   0.83332   0.18509   0.00000  Uiso   1.00
O657   O     0.60600   0.83333   0.31492   0.00000  Uiso   1.00
O658   O     0.39400   0.83333   0.18508   0.00000  Uiso   1.00
F659   F     0.60375   0.88225   0.04189   0.00000  Uiso   1.00
F660   F     0.39219   0.80712   0.45310   0.00000  Uiso   1.00
C661   C     0.59348   0.95657   0.32262   0.00000  Uiso   1.00
C662   C     0.61644   0.94340   0.35914   0.00000  Uiso   1.00
H663   H     0.58907   0.92664   0.38666   0.00000  Uiso   1.00
H664   H     0.64699   0.92275   0.34566   0.00000  Uiso   1.00
H665   H     0.63006   0.97108   0.37292   0.00000  Uiso   1.00
H666   H     0.56359   0.97759   0.33760   0.00000  Uiso   1.00
H667   H     0.57615   0.92947   0.31152   0.00000  Uiso   1.00
C668   C     0.40772   0.71047   0.17891   0.00000  Uiso   1.00
C669   C     0.45665   0.71138   0.18886   0.00000  Uiso   1.00
H670   H     0.48373   0.72843   0.16136   0.00000  Uiso   1.00
H671   H     0.45415   0.72725   0.22062   0.00000  Uiso   1.00
H672   H     0.46913   0.67939   0.19155   0.00000  Uiso   1.00
H673   H     0.41100   0.69407   0.14725   0.00000  Uiso   1.00
H674   H     0.39784   0.74259   0.17268   0.00000  Uiso   1.00
C675   C     0.53032   0.76690   0.29890   0.00000  Uiso   1.00
C676   C     0.49088   0.75003   0.33994   0.00000  Uiso   1.00
H677   H     0.47196   0.77577   0.35997   0.00000  Uiso   1.00
H678   H     0.46443   0.72979   0.32976   0.00000  Uiso   1.00
H679   H     0.50747   0.73083   0.36143   0.00000  Uiso   1.00
H680   H     0.54196   0.74119   0.27559   0.00000  Uiso   1.00
H681   H     0.56016   0.77606   0.31223   0.00000  Uiso   1.00
C682   C     0.46918   0.90027   0.20205   0.00000  Uiso   1.00
C683   C     0.50913   0.92019   0.16331   0.00000  Uiso   1.00
H684   H     0.53344   0.94059   0.17613   0.00000  Uiso   1.00
H685   H     0.53039   0.89610   0.14224   0.00000  Uiso   1.00
H686   H     0.49271   0.93984   0.14207   0.00000  Uiso   1.00
H687   H     0.44102   0.89050   0.18672   0.00000  Uiso   1.00
H688   H     0.45507   0.92465   0.22646   0.00000  Uiso   1.00
C689   C     0.66669   0.75428   0.24871   0.00000  Uiso   1.00
C690   C     0.99986   0.91242   0.25156   0.00000  Uiso   1.00
C691   C     0.85809   0.86025   0.04284   0.00000  Uiso   1.00
C692   C     0.80537   0.82464   0.45329   0.00000  Uiso   1.00
C693   C     0.90651   0.86625   0.01990   0.00000  Uiso   1.00
C694   C     0.75688   0.81914   0.47615   0.00000  Uiso   1.00
C695   C     0.96416   0.68796   0.28060   0.00000  Uiso   1.00
C696   C     0.70225   0.97887   0.21946   0.00000  Uiso   1.00
C697   C     0.96384   0.97827   0.28381   0.00000  Uiso   1.00
C698   C     0.70275   0.68859   0.21653   0.00000  Uiso   1.00
C699   C     0.99998   0.95711   0.25246   0.00000  Uiso   1.00
C700   C     0.99981   0.70966   0.24766   0.00000  Uiso   1.00
C701   C     0.84924   0.80293   0.27348   0.00000  Uiso   1.00
C702   C     0.81736   0.86388   0.22671   0.00000  Uiso   1.00
C703   C     0.80026   0.80317   0.27226   0.00000  Uiso   1.00
C704   C     0.86646   0.86344   0.22764   0.00000  Uiso   1.00
C705   C     0.97264   0.83353   0.33586   0.00000  Uiso   1.00
C706   C     0.69403   0.83314   0.16410   0.00000  Uiso   1.00
C707   C     0.95745   0.83765   0.38449   0.00000  Uiso   1.00
C708   C     0.70915   0.83194   0.11512   0.00000  Uiso   1.00
C709   C     0.97241   0.86208   0.45223   0.00000  Uiso   1.00
C710   C     0.69195   0.81847   0.04505   0.00000  Uiso   1.00
C711   C     0.98937   0.85311   0.40717   0.00000  Uiso   1.00
C712   C     0.67603   0.82244   0.09119   0.00000  Uiso   1.00
C713   C     0.90896   0.83000   0.40749   0.00000  Uiso   1.00
C714   C     0.75788   0.83898   0.09234   0.00000  Uiso   1.00
C715   C     0.89036   0.84050   0.45246   0.00000  Uiso   1.00
C716   C     0.77472   0.83658   0.04558   0.00000  Uiso   1.00
C717   C     0.92322   0.85615   0.47506   0.00000  Uiso   1.00
C718   C     0.74106   0.82481   0.02210   0.00000  Uiso   1.00
C719   C     0.84021   0.83602   0.47543   0.00000  Uiso   1.00
C720   C     0.82425   0.84410   0.02185   0.00000  Uiso   1.00
Cu721  Cu    0.71355   0.83334   0.25000   0.00000  Uiso   1.00
Cu722  Cu    0.95311   0.83333   0.25000   0.00000  Uiso   1.00
H723   H     0.78225   0.84494   0.11219   0.00000  Uiso   1.00
H724   H     0.88657   0.81587   0.38915   0.00000  Uiso   1.00
H725   H     0.97142   0.81687   0.10823   0.00000  Uiso   1.00
H726   H     0.69373   0.85948   0.38979   0.00000  Uiso   1.00
H727   H     0.99775   0.87447   0.46893   0.00000  Uiso   1.00
H728   H     0.99912   0.80993   0.02747   0.00000  Uiso   1.00
H729   H     0.84808   0.87001   0.07685   0.00000  Uiso   1.00
H730   H     0.81403   0.82070   0.41780   0.00000  Uiso   1.00
H731   H     0.93768   0.70485   0.30511   0.00000  Uiso   1.00
H732   H     0.72900   0.96215   0.19502   0.00000  Uiso   1.00
H733   H     0.77457   0.77924   0.28920   0.00000  Uiso   1.00
H734   H     0.89226   0.88728   0.21069   0.00000  Uiso   1.00
N735   N     0.78403   0.83334   0.24999   0.00000  Uiso   1.00
N736   N     0.88264   0.83332   0.25001   0.00000  Uiso   1.00
O737   O     0.70625   0.77322   0.25000   0.00000  Uiso   1.00
O738   O     0.96042   0.89345   0.25000   0.00000  Uiso   1.00
O739   O     0.96039   0.77321   0.25001   0.00000  Uiso   1.00
O740   O     0.70628   0.89346   0.24999   0.00000  Uiso   1.00
O741   O     0.68519   0.83334   0.31491   0.00000  Uiso   1.00
O742   O     0.98148   0.83332   0.18509   0.00000  Uiso   1.00
O743   O     0.93933   0.83333   0.31492   0.00000  Uiso   1.00
O744   O     0.72733   0.83333   0.18508   0.00000  Uiso   1.00
F745   F     0.93708   0.88225   0.04189   0.00000  Uiso   1.00
F746   F     0.72552   0.80712   0.45310   0.00000  Uiso   1.00
C747   C     0.92681   0.95657   0.32262   0.00000  Uiso   1.00
C748   C     0.94977   0.94340   0.35914   0.00000  Uiso   1.00
H749   H     0.92241   0.92664   0.38666   0.00000  Uiso   1.00
H750   H     0.98033   0.92275   0.34566   0.00000  Uiso   1.00
H751   H     0.96340   0.97108   0.37292   0.00000  Uiso   1.00
H752   H     0.89693   0.97759   0.33760   0.00000  Uiso   1.00
H753   H     0.90948   0.92947   0.31152   0.00000  Uiso   1.00
C754   C     0.74105   0.71047   0.17891   0.00000  Uiso   1.00
C755   C     0.78999   0.71138   0.18886   0.00000  Uiso   1.00
H756   H     0.81707   0.72843   0.16136   0.00000  Uiso   1.00
H757   H     0.78748   0.72725   0.22062   0.00000  Uiso   1.00
H758   H     0.80246   0.67939   0.19155   0.00000  Uiso   1.00
H759   H     0.74433   0.69407   0.14725   0.00000  Uiso   1.00
H760   H     0.73118   0.74259   0.17268   0.00000  Uiso   1.00
C761   C     0.86365   0.76690   0.29890   0.00000  Uiso   1.00
C762   C     0.82422   0.75003   0.33994   0.00000  Uiso   1.00
H763   H     0.80529   0.77577   0.35997   0.00000  Uiso   1.00
H764   H     0.79777   0.72979   0.32976   0.00000  Uiso   1.00
H765   H     0.84080   0.73083   0.36143   0.00000  Uiso   1.00
H766   H     0.87529   0.74119   0.27559   0.00000  Uiso   1.00
H767   H     0.89349   0.77606   0.31223   0.00000  Uiso   1.00
C768   C     0.80251   0.90027   0.20205   0.00000  Uiso   1.00
C769   C     0.84246   0.92019   0.16331   0.00000  Uiso   1.00
H770   H     0.86677   0.94059   0.17613   0.00000  Uiso   1.00
H771   H     0.86373   0.89610   0.14224   0.00000  Uiso   1.00
H772   H     0.82604   0.93984   0.14207   0.00000  Uiso   1.00
H773   H     0.77436   0.89050   0.18672   0.00000  Uiso   1.00
H774   H     0.78840   0.92465   0.22646   0.00000  Uiso   1.00
C775   C     0.00003   0.08761   0.74871   0.00000  Uiso   1.00
C776   C     0.33319   0.24575   0.75156   0.00000  Uiso   1.00
C777   C     0.19142   0.19359   0.54284   0.00000  Uiso   1.00
C778   C     0.13870   0.15798   0.95329   0.00000  Uiso   1.00
C779   C     0.23984   0.19958   0.51990   0.00000  Uiso   1.00
C780   C     0.09021   0.15247   0.97615   0.00000  Uiso   1.00
C781   C     0.29749   0.02129   0.78060   0.00000  Uiso   1.00
C782   C     0.03558   0.31221   0.71946   0.00000  Uiso   1.00
C783   C     0.29718   0.31160   0.78381   0.00000  Uiso   1.00
C784   C     0.03609   0.02192   0.71653   0.00000  Uiso   1.00
C785   C     0.33331   0.29045   0.75246   0.00000  Uiso   1.00
C786   C     0.33314   0.04300   0.74766   0.00000  Uiso   1.00
C787   C     0.18258   0.13627   0.77348   0.00000  Uiso   1.00
C788   C     0.15069   0.19721   0.72671   0.00000  Uiso   1.00
C789   C     0.13359   0.13651   0.77226   0.00000  Uiso   1.00
C790   C     0.19980   0.19677   0.72764   0.00000  Uiso   1.00
C791   C     0.30597   0.16686   0.83586   0.00000  Uiso   1.00
C792   C     0.02737   0.16647   0.66410   0.00000  Uiso   1.00
C793   C     0.29078   0.17098   0.88449   0.00000  Uiso   1.00
C794   C     0.04248   0.16527   0.61512   0.00000  Uiso   1.00
C795   C     0.30575   0.19541   0.95223   0.00000  Uiso   1.00
C796   C     0.02528   0.15180   0.54505   0.00000  Uiso   1.00
C797   C     0.32270   0.18644   0.90717   0.00000  Uiso   1.00
C798   C     0.00936   0.15577   0.59119   0.00000  Uiso   1.00
C799   C     0.24229   0.16333   0.90749   0.00000  Uiso   1.00
C800   C     0.09121   0.17231   0.59234   0.00000  Uiso   1.00
C801   C     0.22369   0.17383   0.95246   0.00000  Uiso   1.00
C802   C     0.10805   0.16991   0.54558   0.00000  Uiso   1.00
C803   C     0.25655   0.18948   0.97506   0.00000  Uiso   1.00
C804   C     0.07439   0.15814   0.52210   0.00000  Uiso   1.00
C805   C     0.17354   0.16935   0.97543   0.00000  Uiso   1.00
C806   C     0.15758   0.17743   0.52185   0.00000  Uiso   1.00
Cu807  Cu    0.04689   0.16667   0.75000   0.00000  Uiso   1.00
Cu808  Cu    0.28645   0.16666   0.75000   0.00000  Uiso   1.00
H809   H     0.11559   0.17827   0.61219   0.00000  Uiso   1.00
H810   H     0.21991   0.14920   0.88915   0.00000  Uiso   1.00
H811   H     0.30476   0.15021   0.60823   0.00000  Uiso   1.00
H812   H     0.02706   0.19282   0.88979   0.00000  Uiso   1.00
H813   H     0.33109   0.20780   0.96893   0.00000  Uiso   1.00
H814   H     0.33245   0.14326   0.52747   0.00000  Uiso   1.00
H815   H     0.18141   0.20334   0.57685   0.00000  Uiso   1.00
H816   H     0.14736   0.15404   0.91780   0.00000  Uiso   1.00
H817   H     0.27102   0.03819   0.80511   0.00000  Uiso   1.00
H818   H     0.06233   0.29549   0.69502   0.00000  Uiso   1.00
H819   H     0.10791   0.11257   0.78920   0.00000  Uiso   1.00
H820   H     0.22559   0.22061   0.71069   0.00000  Uiso   1.00
N821   N     0.11736   0.16668   0.74999   0.00000  Uiso   1.00
N822   N     0.21597   0.16666   0.75001   0.00000  Uiso   1.00
O823   O     0.03958   0.10655   0.75000   0.00000  Uiso   1.00
O824   O     0.29375   0.22678   0.75000   0.00000  Uiso   1.00
O825   O     0.29372   0.10654   0.75001   0.00000  Uiso   1.00
O826   O     0.03961   0.22679   0.74999   0.00000  Uiso   1.00
O827   O     0.01852   0.16668   0.81491   0.00000  Uiso   1.00
O828   O     0.31481   0.16666   0.68509   0.00000  Uiso   1.00
O829   O     0.27267   0.16667   0.81492   0.00000  Uiso   1.00
O830   O     0.06067   0.16667   0.68508   0.00000  Uiso   1.00
F831   F     0.27041   0.21558   0.54189   0.00000  Uiso   1.00
F832   F     0.05885   0.14046   0.95310   0.00000  Uiso   1.00
C833   C     0.26015   0.28990   0.82262   0.00000  Uiso   1.00
C834   C     0.28311   0.27674   0.85914   0.00000  Uiso   1.00
H835   H     0.25574   0.25997   0.88666   0.00000  Uiso   1.00
H836   H     0.31366   0.25608   0.84566   0.00000  Uiso   1.00
H837   H     0.29673   0.30441   0.87292   0.00000  Uiso   1.00
H838   H     0.23026   0.31092   0.83760   0.00000  Uiso   1.00
H839   H     0.24281   0.26280   0.81152   0.00000  Uiso   1.00
C840   C     0.07439   0.04380   0.67891   0.00000  Uiso   1.00
C841   C     0.12332   0.04471   0.68886   0.00000  Uiso   1.00
H842   H     0.15040   0.06176   0.66136   0.00000  Uiso   1.00
H843   H     0.12082   0.06059   0.72062   0.00000  Uiso   1.00
H844   H     0.13579   0.01273   0.69155   0.00000  Uiso   1.00
H845   H     0.07767   0.02740   0.64725   0.00000  Uiso   1.00
H846   H     0.06451   0.07592   0.67268   0.00000  Uiso   1.00
C847   C     0.19699   0.10024   0.79890   0.00000  Uiso   1.00
C848   C     0.15755   0.08336   0.83994   0.00000  Uiso   1.00
H849   H     0.13863   0.10910   0.85997   0.00000  Uiso   1.00
H850   H     0.13110   0.06312   0.82976   0.00000  Uiso   1.00
H851   H     0.17413   0.06417   0.86143   0.00000  Uiso   1.00
H852   H     0.20863   0.07452   0.77559   0.00000  Uiso   1.00
H853   H     0.22682   0.10940   0.81223   0.00000  Uiso   1.00
C854   C     0.13585   0.23360   0.70205   0.00000  Uiso   1.00
C855   C     0.17580   0.25352   0.66331   0.00000  Uiso   1.00
H856   H     0.20011   0.27393   0.67613   0.00000  Uiso   1.00
H857   H     0.19706   0.22944   0.64224   0.00000  Uiso   1.00
H858   H     0.15938   0.27318   0.64207   0.00000  Uiso   1.00
H859   H     0.10769   0.22383   0.68672   0.00000  Uiso   1.00
H860   H     0.12174   0.25798   0.72646   0.00000  Uiso   1.00
C861   C     0.33336   0.08761   0.74871   0.00000  Uiso   1.00
C862   C     0.66652   0.24575   0.75156   0.00000  Uiso   1.00
C863   C     0.52476   0.19359   0.54284   0.00000  Uiso   1.00
C864   C     0.47203   0.15798   0.95329   0.00000  Uiso   1.00
C865   C     0.57317   0.19958   0.51990   0.00000  Uiso   1.00
C866   C     0.42355   0.15247   0.97615   0.00000  Uiso   1.00
C867   C     0.63083   0.02129   0.78060   0.00000  Uiso   1.00
C868   C     0.36892   0.31221   0.71946   0.00000  Uiso   1.00
C869   C     0.63051   0.31160   0.78381   0.00000  Uiso   1.00
C870   C     0.36942   0.02192   0.71653   0.00000  Uiso   1.00
C871   C     0.66664   0.29045   0.75246   0.00000  Uiso   1.00
C872   C     0.66647   0.04300   0.74766   0.00000  Uiso   1.00
C873   C     0.51591   0.13627   0.77348   0.00000  Uiso   1.00
C874   C     0.48403   0.19721   0.72671   0.00000  Uiso   1.00
C875   C     0.46692   0.13651   0.77226   0.00000  Uiso   1.00
C876   C     0.53313   0.19677   0.72764   0.00000  Uiso   1.00
C877   C     0.63930   0.16686   0.83586   0.00000  Uiso   1.00
C878   C     0.36070   0.16647   0.66410   0.00000  Uiso   1.00
C879   C     0.62412   0.17098   0.88449   0.00000  Uiso   1.00
C880   C     0.37581   0.16527   0.61512   0.00000  Uiso   1.00
C881   C     0.63908   0.19541   0.95223   0.00000  Uiso   1.00
C882   C     0.35861   0.15180   0.54505   0.00000  Uiso   1.00
C883   C     0.65604   0.18644   0.90717   0.00000  Uiso   1.00
C884   C     0.34269   0.15577   0.59119   0.00000  Uiso   1.00
C885   C     0.57562   0.16333   0.90749   0.00000  Uiso   1.00
C886   C     0.42455   0.17231   0.59234   0.00000  Uiso   1.00
C887   C     0.55703   0.17383   0.95246   0.00000  Uiso   1.00
C888   C     0.44139   0.16991   0.54558   0.00000  Uiso   1.00
C889   C     0.58989   0.18948   0.97506   0.00000  Uiso   1.00
C890   C     0.40772   0.15814   0.52210   0.00000  Uiso   1.00
C891   C     0.50687   0.16935   0.97543   0.00000  Uiso   1.00
C892   C     0.49092   0.17743   0.52185   0.00000  Uiso   1.00
Cu893  Cu    0.38022   0.16667   0.75000   0.00000  Uiso   1.00
Cu894  Cu    0.61978   0.16666   0.75000   0.00000  Uiso   1.00
H895   H     0.44892   0.17827   0.61219   0.00000  Uiso   1.00
H896   H     0.55324   0.14920   0.88915   0.00000  Uiso   1.00
H897   H     0.63809   0.15021   0.60823   0.00000  Uiso   1.00
H898   H     0.36040   0.19282   0.88979   0.00000  Uiso   1.00
H899   H     0.66442   0.20780   0.96893   0.00000  Uiso   1.00
H900   H     0.66579   0.14326   0.52747   0.00000  Uiso   1.00
H901   H     0.51474   0.20334   0.57685   0.00000  Uiso   1.00
H902   H     0.48070   0.15404   0.91780   0.00000  Uiso   1.00
H903   H     0.60435   0.03819   0.80511   0.00000  Uiso   1.00
H904   H     0.39567   0.29549   0.69502   0.00000  Uiso   1.00
H905   H     0.44124   0.11257   0.78920   0.00000  Uiso   1.00
H906   H     0.55892   0.22061   0.71069   0.00000  Uiso   1.00
N907   N     0.45069   0.16668   0.74999   0.00000  Uiso   1.00
N908   N     0.54931   0.16666   0.75001   0.00000  Uiso   1.00
O909   O     0.37291   0.10655   0.75000   0.00000  Uiso   1.00
O910   O     0.62709   0.22678   0.75000   0.00000  Uiso   1.00
O911   O     0.62706   0.10654   0.75001   0.00000  Uiso   1.00
O912   O     0.37294   0.22679   0.74999   0.00000  Uiso   1.00
O913   O     0.35186   0.16668   0.81491   0.00000  Uiso   1.00
O914   O     0.64814   0.16666   0.68509   0.00000  Uiso   1.00
O915   O     0.60600   0.16667   0.81492   0.00000  Uiso   1.00
O916   O     0.39400   0.16667   0.68508   0.00000  Uiso   1.00
F917   F     0.60375   0.21558   0.54189   0.00000  Uiso   1.00
F918   F     0.39219   0.14046   0.95310   0.00000  Uiso   1.00
C919   C     0.59348   0.28990   0.82262   0.00000  Uiso   1.00
C920   C     0.61644   0.27674   0.85914   0.00000  Uiso   1.00
H921   H     0.58907   0.25997   0.88666   0.00000  Uiso   1.00
H922   H     0.64699   0.25608   0.84566   0.00000  Uiso   1.00
H923   H     0.63006   0.30441   0.87292   0.00000  Uiso   1.00
H924   H     0.56359   0.31092   0.83760   0.00000  Uiso   1.00
H925   H     0.57615   0.26280   0.81152   0.00000  Uiso   1.00
C926   C     0.40772   0.04380   0.67891   0.00000  Uiso   1.00
C927   C     0.45665   0.04471   0.68886   0.00000  Uiso   1.00
H928   H     0.48373   0.06176   0.66136   0.00000  Uiso   1.00
H929   H     0.45415   0.06059   0.72062   0.00000  Uiso   1.00
H930   H     0.46913   0.01273   0.69155   0.00000  Uiso   1.00
H931   H     0.41100   0.02740   0.64725   0.00000  Uiso   1.00
H932   H     0.39784   0.07592   0.67268   0.00000  Uiso   1.00
C933   C     0.53032   0.10024   0.79890   0.00000  Uiso   1.00
C934   C     0.49088   0.08336   0.83994   0.00000  Uiso   1.00
H935   H     0.47196   0.10910   0.85997   0.00000  Uiso   1.00
H936   H     0.46443   0.06312   0.82976   0.00000  Uiso   1.00
H937   H     0.50747   0.06417   0.86143   0.00000  Uiso   1.00
H938   H     0.54196   0.07452   0.77559   0.00000  Uiso   1.00
H939   H     0.56016   0.10940   0.81223   0.00000  Uiso   1.00
C940   C     0.46918   0.23360   0.70205   0.00000  Uiso   1.00
C941   C     0.50913   0.25352   0.66331   0.00000  Uiso   1.00
H942   H     0.53344   0.27393   0.67613   0.00000  Uiso   1.00
H943   H     0.53039   0.22944   0.64224   0.00000  Uiso   1.00
H944   H     0.49271   0.27318   0.64207   0.00000  Uiso   1.00
H945   H     0.44102   0.22383   0.68672   0.00000  Uiso   1.00
H946   H     0.45507   0.25798   0.72646   0.00000  Uiso   1.00
C947   C     0.66669   0.08761   0.74871   0.00000  Uiso   1.00
C948   C     0.99986   0.24575   0.75156   0.00000  Uiso   1.00
C949   C     0.85809   0.19359   0.54284   0.00000  Uiso   1.00
C950   C     0.80537   0.15798   0.95329   0.00000  Uiso   1.00
C951   C     0.90651   0.19958   0.51990   0.00000  Uiso   1.00
C952   C     0.75688   0.15247   0.97615   0.00000  Uiso   1.00
C953   C     0.96416   0.02129   0.78060   0.00000  Uiso   1.00
C954   C     0.70225   0.31221   0.71946   0.00000  Uiso   1.00
C955   C     0.96384   0.31160   0.78381   0.00000  Uiso   1.00
C956   C     0.70275   0.02192   0.71653   0.00000  Uiso   1.00
C957   C     0.99998   0.29045   0.75246   0.00000  Uiso   1.00
C958   C     0.99981   0.04300   0.74766   0.00000  Uiso   1.00
C959   C     0.84924   0.13627   0.77348   0.00000  Uiso   1.00
C960   C     0.81736   0.19721   0.72671   0.00000  Uiso   1.00
C961   C     0.80026   0.13651   0.77226   0.00000  Uiso   1.00
C962   C     0.86646   0.19677   0.72764   0.00000  Uiso   1.00
C963   C     0.97264   0.16686   0.83586   0.00000  Uiso   1.00
C964   C     0.69403   0.16647   0.66410   0.00000  Uiso   1.00
C965   C     0.95745   0.17098   0.88449   0.00000  Uiso   1.00
C966   C     0.70915   0.16527   0.61512   0.00000  Uiso   1.00
C967   C     0.97241   0.19541   0.95223   0.00000  Uiso   1.00
C968   C     0.69195   0.15180   0.54505   0.00000  Uiso   1.00
C969   C     0.98937   0.18644   0.90717   0.00000  Uiso   1.00
C970   C     0.67603   0.15577   0.59119   0.00000  Uiso   1.00
C971   C     0.90896   0.16333   0.90749   0.00000  Uiso   1.00
C972   C     0.75788   0.17231   0.59234   0.00000  Uiso   1.00
C973   C     0.89036   0.17383   0.95246   0.00000  Uiso   1.00
C974   C     0.77472   0.16991   0.54558   0.00000  Uiso   1.00
C975   C     0.92322   0.18948   0.97506   0.00000  Uiso   1.00
C976   C     0.74106   0.15814   0.52210   0.00000  Uiso   1.00
C977   C     0.84021   0.16935   0.97543   0.00000  Uiso   1.00
C978   C     0.82425   0.17743   0.52185   0.00000  Uiso   1.00
Cu979  Cu    0.71355   0.16667   0.75000   0.00000  Uiso   1.00
Cu980  Cu    0.95311   0.16666   0.75000   0.00000  Uiso   1.00
H981   H     0.78225   0.17827   0.61219   0.00000  Uiso   1.00
H982   H     0.88657   0.14920   0.88915   0.00000  Uiso   1.00
H983   H     0.97142   0.15021   0.60823   0.00000  Uiso   1.00
H984   H     0.69373   0.19282   0.88979   0.00000  Uiso   1.00
H985   H     0.99775   0.20780   0.96893   0.00000  Uiso   1.00
H986   H     0.99912   0.14326   0.52747   0.00000  Uiso   1.00
H987   H     0.84808   0.20334   0.57685   0.00000  Uiso   1.00
H988   H     0.81403   0.15404   0.91780   0.00000  Uiso   1.00
H989   H     0.93768   0.03819   0.80511   0.00000  Uiso   1.00
H990   H     0.72900   0.29549   0.69502   0.00000  Uiso   1.00
H991   H     0.77457   0.11257   0.78920   0.00000  Uiso   1.00
H992   H     0.89226   0.22061   0.71069   0.00000  Uiso   1.00
N993   N     0.78403   0.16668   0.74999   0.00000  Uiso   1.00
N994   N     0.88264   0.16666   0.75001   0.00000  Uiso   1.00
O995   O     0.70625   0.10655   0.75000   0.00000  Uiso   1.00
O996   O     0.96042   0.22678   0.75000   0.00000  Uiso   1.00
O997   O     0.96039   0.10654   0.75001   0.00000  Uiso   1.00
O998   O     0.70628   0.22679   0.74999   0.00000  Uiso   1.00
O999   O     0.68519   0.16668   0.81491   0.00000  Uiso   1.00
O1000  O     0.98148   0.16666   0.68509   0.00000  Uiso   1.00
O1001  O     0.93933   0.16667   0.81492   0.00000  Uiso   1.00
O1002  O     0.72733   0.16667   0.68508   0.00000  Uiso   1.00
F1003  F     0.93708   0.21558   0.54189   0.00000  Uiso   1.00
F1004  F     0.72552   0.14046   0.95310   0.00000  Uiso   1.00
C1005  C     0.92681   0.28990   0.82262   0.00000  Uiso   1.00
C1006  C     0.94977   0.27674   0.85914   0.00000  Uiso   1.00
H1007  H     0.92241   0.25997   0.88666   0.00000  Uiso   1.00
H1008  H     0.98033   0.25608   0.84566   0.00000  Uiso   1.00
H1009  H     0.96340   0.30441   0.87292   0.00000  Uiso   1.00
H1010  H     0.89693   0.31092   0.83760   0.00000  Uiso   1.00
H1011  H     0.90948   0.26280   0.81152   0.00000  Uiso   1.00
C1012  C     0.74105   0.04380   0.67891   0.00000  Uiso   1.00
C1013  C     0.78999   0.04471   0.68886   0.00000  Uiso   1.00
H1014  H     0.81707   0.06176   0.66136   0.00000  Uiso   1.00
H1015  H     0.78748   0.06059   0.72062   0.00000  Uiso   1.00
H1016  H     0.80246   0.01273   0.69155   0.00000  Uiso   1.00
H1017  H     0.74433   0.02740   0.64725   0.00000  Uiso   1.00
H1018  H     0.73118   0.07592   0.67268   0.00000  Uiso   1.00
C1019  C     0.86365   0.10024   0.79890   0.00000  Uiso   1.00
C1020  C     0.82422   0.08336   0.83994   0.00000  Uiso   1.00
H1021  H     0.80529   0.10910   0.85997   0.00000  Uiso   1.00
H1022  H     0.79777   0.06312   0.82976   0.00000  Uiso   1.00
H1023  H     0.84080   0.06417   0.86143   0.00000  Uiso   1.00
H1024  H     0.87529   0.07452   0.77559   0.00000  Uiso   1.00
H1025  H     0.89349   0.10940   0.81223   0.00000  Uiso   1.00
C1026  C     0.80251   0.23360   0.70205   0.00000  Uiso   1.00
C1027  C     0.84246   0.25352   0.66331   0.00000  Uiso   1.00
H1028  H     0.86677   0.27393   0.67613   0.00000  Uiso   1.00
H1029  H     0.86373   0.22944   0.64224   0.00000  Uiso   1.00
H1030  H     0.82604   0.27318   0.64207   0.00000  Uiso   1.00
H1031  H     0.77436   0.22383   0.68672   0.00000  Uiso   1.00
H1032  H     0.78840   0.25798   0.72646   0.00000  Uiso   1.00
C1033  C     0.00003   0.42094   0.74871   0.00000  Uiso   1.00
C1034  C     0.33319   0.57908   0.75156   0.00000  Uiso   1.00
C1035  C     0.19142   0.52692   0.54284   0.00000  Uiso   1.00
C1036  C     0.13870   0.49131   0.95329   0.00000  Uiso   1.00
C1037  C     0.23984   0.53292   0.51990   0.00000  Uiso   1.00
C1038  C     0.09021   0.48581   0.97615   0.00000  Uiso   1.00
C1039  C     0.29749   0.35463   0.78060   0.00000  Uiso   1.00
C1040  C     0.03558   0.64554   0.71946   0.00000  Uiso   1.00
C1041  C     0.29718   0.64494   0.78381   0.00000  Uiso   1.00
C1042  C     0.03609   0.35526   0.71653   0.00000  Uiso   1.00
C1043  C     0.33331   0.62378   0.75246   0.00000  Uiso   1.00
C1044  C     0.33314   0.37633   0.74766   0.00000  Uiso   1.00
C1045  C     0.18258   0.46960   0.77348   0.00000  Uiso   1.00
C1046  C     0.15069   0.53054   0.72671   0.00000  Uiso   1.00
C1047  C     0.13359   0.46984   0.77226   0.00000  Uiso   1.00
C1048  C     0.19980   0.53010   0.72764   0.00000  Uiso   1.00
C1049  C     0.30597   0.50019   0.83586   0.00000  Uiso   1.00
C1050  C     0.02737   0.49981   0.66410   0.00000  Uiso   1.00
C1051  C     0.29078   0.50431   0.88449   0.00000  Uiso   1.00
C1052  C     0.04248   0.49861   0.61512   0.00000  Uiso   1.00
C1053  C     0.30575   0.52874   0.95223   0.00000  Uiso   1.00
C1054  C     0.02528   0.48513   0.54505   0.00000  Uiso   1.00
C1055  C     0.32270   0.51978   0.90717   0.00000  Uiso   1.00
C1056  C     0.00936   0.48911   0.59119   0.00000  Uiso   1.00
C1057  C     0.24229   0.49666   0.90749   0.00000  Uiso   1.00
C1058  C     0.09121   0.50564   0.59234   0.00000  Uiso   1.00
C1059  C     0.22369   0.50717   0.95246   0.00000  Uiso   1.00
C1060  C     0.10805   0.50325   0.54558   0.00000  Uiso   1.00
C1061  C     0.25655   0.52282   0.97506   0.00000  Uiso   1.00
C1062  C     0.07439   0.49148   0.52210   0.00000  Uiso   1.00
C1063  C     0.17354   0.50269   0.97543   0.00000  Uiso   1.00
C1064  C     0.15758   0.51076   0.52185   0.00000  Uiso   1.00
Cu1065 Cu    0.04689   0.50001   0.75000   0.00000  Uiso   1.00
Cu1066 Cu    0.28645   0.49999   0.75000   0.00000  Uiso   1.00
H1067  H     0.11559   0.51161   0.61219   0.00000  Uiso   1.00
H1068  H     0.21991   0.48254   0.88915   0.00000  Uiso   1.00
H1069  H     0.30476   0.48354   0.60823   0.00000  Uiso   1.00
H1070  H     0.02706   0.52615   0.88979   0.00000  Uiso   1.00
H1071  H     0.33109   0.54113   0.96893   0.00000  Uiso   1.00
H1072  H     0.33245   0.47660   0.52747   0.00000  Uiso   1.00
H1073  H     0.18141   0.53667   0.57685   0.00000  Uiso   1.00
H1074  H     0.14736   0.48737   0.91780   0.00000  Uiso   1.00
H1075  H     0.27102   0.37152   0.80511   0.00000  Uiso   1.00
H1076  H     0.06233   0.62882   0.69502   0.00000  Uiso   1.00
H1077  H     0.10791   0.44590   0.78920   0.00000  Uiso   1.00
H1078  H     0.22559   0.55395   0.71069   0.00000  Uiso   1.00
N1079  N     0.11736   0.50001   0.74999   0.00000  Uiso   1.00
N1080  N     0.21597   0.49999   0.75001   0.00000  Uiso   1.00
O1081  O     0.03958   0.43989   0.75000   0.00000  Uiso   1.00
O1082  O     0.29375   0.56011   0.75000   0.00000  Uiso   1.00
O1083  O     0.29372   0.43988   0.75001   0.00000  Uiso   1.00
O1084  O     0.03961   0.56012   0.74999   0.00000  Uiso   1.00
O1085  O     0.01852   0.50001   0.81491   0.00000  Uiso   1.00
O1086  O     0.31481   0.49999   0.68509   0.00000  Uiso   1.00
O1087  O     0.27267   0.50000   0.81492   0.00000  Uiso   1.00
O1088  O     0.06067   0.50000   0.68508   0.00000  Uiso   1.00
F1089  F     0.27041   0.54892   0.54189   0.00000  Uiso   1.00
F1090  F     0.05885   0.47379   0.95310   0.00000  Uiso   1.00
C1091  C     0.26015   0.62324   0.82262   0.00000  Uiso   1.00
C1092  C     0.28311   0.61007   0.85914   0.00000  Uiso   1.00
H1093  H     0.25574   0.59331   0.88666   0.00000  Uiso   1.00
H1094  H     0.31366   0.58942   0.84566   0.00000  Uiso   1.00
H1095  H     0.29673   0.63775   0.87292   0.00000  Uiso   1.00
H1096  H     0.23026   0.64425   0.83760   0.00000  Uiso   1.00
H1097  H     0.24281   0.59613   0.81152   0.00000  Uiso   1.00
C1098  C     0.07439   0.37713   0.67891   0.00000  Uiso   1.00
C1099  C     0.12332   0.37804   0.68886   0.00000  Uiso   1.00
H1100  H     0.15040   0.39509   0.66136   0.00000  Uiso   1.00
H1101  H     0.12082   0.39392   0.72062   0.00000  Uiso   1.00
H1102  H     0.13579   0.34606   0.69155   0.00000  Uiso   1.00
H1103  H     0.07767   0.36074   0.64725   0.00000  Uiso   1.00
H1104  H     0.06451   0.40925   0.67268   0.00000  Uiso   1.00
C1105  C     0.19699   0.43357   0.79890   0.00000  Uiso   1.00
C1106  C     0.15755   0.41670   0.83994   0.00000  Uiso   1.00
H1107  H     0.13863   0.44243   0.85997   0.00000  Uiso   1.00
H1108  H     0.13110   0.39645   0.82976   0.00000  Uiso   1.00
H1109  H     0.17413   0.39750   0.86143   0.00000  Uiso   1.00
H1110  H     0.20863   0.40785   0.77559   0.00000  Uiso   1.00
H1111  H     0.22682   0.44273   0.81223   0.00000  Uiso   1.00
C1112  C     0.13585   0.56693   0.70205   0.00000  Uiso   1.00
C1113  C     0.17580   0.58686   0.66331   0.00000  Uiso   1.00
H1114  H     0.20011   0.60726   0.67613   0.00000  Uiso   1.00
H1115  H     0.19706   0.56277   0.64224   0.00000  Uiso   1.00
H1116  H     0.15938   0.60651   0.64207   0.00000  Uiso   1.00
H1117  H     0.10769   0.55717   0.68672   0.00000  Uiso   1.00
H1118  H     0.12174   0.59132   0.72646   0.00000  Uiso   1.00
C1119  C     0.33336   0.42094   0.74871   0.00000  Uiso   1.00
C1120  C     0.66652   0.57908   0.75156   0.00000  Uiso   1.00
C1121  C     0.52476   0.52692   0.54284   0.00000  Uiso   1.00
C1122  C     0.47203   0.49131   0.95329   0.00000  Uiso   1.00
C1123  C     0.57317   0.53292   0.51990   0.00000  Uiso   1.00
C1124  C     0.42355   0.48581   0.97615   0.00000  Uiso   1.00
C1125  C     0.63083   0.35463   0.78060   0.00000  Uiso   1.00
C1126  C     0.36892   0.64554   0.71946   0.00000  Uiso   1.00
C1127  C     0.63051   0.64494   0.78381   0.00000  Uiso   1.00
C1128  C     0.36942   0.35526   0.71653   0.00000  Uiso   1.00
C1129  C     0.66664   0.62378   0.75246   0.00000  Uiso   1.00
C1130  C     0.66647   0.37633   0.74766   0.00000  Uiso   1.00
C1131  C     0.51591   0.46960   0.77348   0.00000  Uiso   1.00
C1132  C     0.48403   0.53054   0.72671   0.00000  Uiso   1.00
C1133  C     0.46692   0.46984   0.77226   0.00000  Uiso   1.00
C1134  C     0.53313   0.53010   0.72764   0.00000  Uiso   1.00
C1135  C     0.63930   0.50019   0.83586   0.00000  Uiso   1.00
C1136  C     0.36070   0.49981   0.66410   0.00000  Uiso   1.00
C1137  C     0.62412   0.50431   0.88449   0.00000  Uiso   1.00
C1138  C     0.37581   0.49861   0.61512   0.00000  Uiso   1.00
C1139  C     0.63908   0.52874   0.95223   0.00000  Uiso   1.00
C1140  C     0.35861   0.48513   0.54505   0.00000  Uiso   1.00
C1141  C     0.65604   0.51978   0.90717   0.00000  Uiso   1.00
C1142  C     0.34269   0.48911   0.59119   0.00000  Uiso   1.00
C1143  C     0.57562   0.49666   0.90749   0.00000  Uiso   1.00
C1144  C     0.42455   0.50564   0.59234   0.00000  Uiso   1.00
C1145  C     0.55703   0.50717   0.95246   0.00000  Uiso   1.00
C1146  C     0.44139   0.50325   0.54558   0.00000  Uiso   1.00
C1147  C     0.58989   0.52282   0.97506   0.00000  Uiso   1.00
C1148  C     0.40772   0.49148   0.52210   0.00000  Uiso   1.00
C1149  C     0.50687   0.50269   0.97543   0.00000  Uiso   1.00
C1150  C     0.49092   0.51076   0.52185   0.00000  Uiso   1.00
Cu1151 Cu    0.38022   0.50001   0.75000   0.00000  Uiso   1.00
Cu1152 Cu    0.61978   0.49999   0.75000   0.00000  Uiso   1.00
H1153  H     0.44892   0.51161   0.61219   0.00000  Uiso   1.00
H1154  H     0.55324   0.48254   0.88915   0.00000  Uiso   1.00
H1155  H     0.63809   0.48354   0.60823   0.00000  Uiso   1.00
H1156  H     0.36040   0.52615   0.88979   0.00000  Uiso   1.00
H1157  H     0.66442   0.54113   0.96893   0.00000  Uiso   1.00
H1158  H     0.66579   0.47660   0.52747   0.00000  Uiso   1.00
H1159  H     0.51474   0.53667   0.57685   0.00000  Uiso   1.00
H1160  H     0.48070   0.48737   0.91780   0.00000  Uiso   1.00
H1161  H     0.60435   0.37152   0.80511   0.00000  Uiso   1.00
H1162  H     0.39567   0.62882   0.69502   0.00000  Uiso   1.00
H1163  H     0.44124   0.44590   0.78920   0.00000  Uiso   1.00
H1164  H     0.55892   0.55395   0.71069   0.00000  Uiso   1.00
N1165  N     0.45069   0.50001   0.74999   0.00000  Uiso   1.00
N1166  N     0.54931   0.49999   0.75001   0.00000  Uiso   1.00
O1167  O     0.37291   0.43989   0.75000   0.00000  Uiso   1.00
O1168  O     0.62709   0.56011   0.75000   0.00000  Uiso   1.00
O1169  O     0.62706   0.43988   0.75001   0.00000  Uiso   1.00
O1170  O     0.37294   0.56012   0.74999   0.00000  Uiso   1.00
O1171  O     0.35186   0.50001   0.81491   0.00000  Uiso   1.00
O1172  O     0.64814   0.49999   0.68509   0.00000  Uiso   1.00
O1173  O     0.60600   0.50000   0.81492   0.00000  Uiso   1.00
O1174  O     0.39400   0.50000   0.68508   0.00000  Uiso   1.00
F1175  F     0.60375   0.54892   0.54189   0.00000  Uiso   1.00
F1176  F     0.39219   0.47379   0.95310   0.00000  Uiso   1.00
C1177  C     0.59348   0.62324   0.82262   0.00000  Uiso   1.00
C1178  C     0.61644   0.61007   0.85914   0.00000  Uiso   1.00
H1179  H     0.58907   0.59331   0.88666   0.00000  Uiso   1.00
H1180  H     0.64699   0.58942   0.84566   0.00000  Uiso   1.00
H1181  H     0.63006   0.63775   0.87292   0.00000  Uiso   1.00
H1182  H     0.56359   0.64425   0.83760   0.00000  Uiso   1.00
H1183  H     0.57615   0.59613   0.81152   0.00000  Uiso   1.00
C1184  C     0.40772   0.37713   0.67891   0.00000  Uiso   1.00
C1185  C     0.45665   0.37804   0.68886   0.00000  Uiso   1.00
H1186  H     0.48373   0.39509   0.66136   0.00000  Uiso   1.00
H1187  H     0.45415   0.39392   0.72062   0.00000  Uiso   1.00
H1188  H     0.46913   0.34606   0.69155   0.00000  Uiso   1.00
H1189  H     0.41100   0.36074   0.64725   0.00000  Uiso   1.00
H1190  H     0.39784   0.40925   0.67268   0.00000  Uiso   1.00
C1191  C     0.53032   0.43357   0.79890   0.00000  Uiso   1.00
C1192  C     0.49088   0.41670   0.83994   0.00000  Uiso   1.00
H1193  H     0.47196   0.44243   0.85997   0.00000  Uiso   1.00
H1194  H     0.46443   0.39645   0.82976   0.00000  Uiso   1.00
H1195  H     0.50747   0.39750   0.86143   0.00000  Uiso   1.00
H1196  H     0.54196   0.40785   0.77559   0.00000  Uiso   1.00
H1197  H     0.56016   0.44273   0.81223   0.00000  Uiso   1.00
C1198  C     0.46918   0.56693   0.70205   0.00000  Uiso   1.00
C1199  C     0.50913   0.58686   0.66331   0.00000  Uiso   1.00
H1200  H     0.53344   0.60726   0.67613   0.00000  Uiso   1.00
H1201  H     0.53039   0.56277   0.64224   0.00000  Uiso   1.00
H1202  H     0.49271   0.60651   0.64207   0.00000  Uiso   1.00
H1203  H     0.44102   0.55717   0.68672   0.00000  Uiso   1.00
H1204  H     0.45507   0.59132   0.72646   0.00000  Uiso   1.00
C1205  C     0.66669   0.42094   0.74871   0.00000  Uiso   1.00
C1206  C     0.99986   0.57908   0.75156   0.00000  Uiso   1.00
C1207  C     0.85809   0.52692   0.54284   0.00000  Uiso   1.00
C1208  C     0.80537   0.49131   0.95329   0.00000  Uiso   1.00
C1209  C     0.90651   0.53292   0.51990   0.00000  Uiso   1.00
C1210  C     0.75688   0.48581   0.97615   0.00000  Uiso   1.00
C1211  C     0.96416   0.35463   0.78060   0.00000  Uiso   1.00
C1212  C     0.70225   0.64554   0.71946   0.00000  Uiso   1.00
C1213  C     0.96384   0.64494   0.78381   0.00000  Uiso   1.00
C1214  C     0.70275   0.35526   0.71653   0.00000  Uiso   1.00
C1215  C     0.99998   0.62378   0.75246   0.00000  Uiso   1.00
C1216  C     0.99981   0.37633   0.74766   0.00000  Uiso   1.00
C1217  C     0.84924   0.46960   0.77348   0.00000  Uiso   1.00
C1218  C     0.81736   0.53054   0.72671   0.00000  Uiso   1.00
C1219  C     0.80026   0.46984   0.77226   0.00000  Uiso   1.00
C1220  C     0.86646   0.53010   0.72764   0.00000  Uiso   1.00
C1221  C     0.97264   0.50019   0.83586   0.00000  Uiso   1.00
C1222  C     0.69403   0.49981   0.66410   0.00000  Uiso   1.00
C1223  C     0.95745   0.50431   0.88449   0.00000  Uiso   1.00
C1224  C     0.70915   0.49861   0.61512   0.00000  Uiso   1.00
C1225  C     0.97241   0.52874   0.95223   0.00000  Uiso   1.00
C1226  C     0.69195   0.48513   0.54505   0.00000  Uiso   1.00
C1227  C     0.98937   0.51978   0.90717   0.00000  Uiso   1.00
C1228  C     0.67603   0.48911   0.59119   0.00000  Uiso   1.00
C1229  C     0.90896   0.49666   0.90749   0.00000  Uiso   1.00
C1230  C     0.75788   0.50564   0.59234   0.00000  Uiso   1.00
C1231  C     0.89036   0.50717   0.95246   0.00000  Uiso   1.00
C1232  C     0.77472   0.50325   0.54558   0.00000  Uiso   1.00
C1233  C     0.92322   0.52282   0.97506   0.00000  Uiso   1.00
C1234  C     0.74106   0.49148   0.52210   0.00000  Uiso   1.00
C1235  C     0.84021   0.50269   0.97543   0.00000  Uiso   1.00
C1236  C     0.82425   0.51076   0.52185   0.00000  Uiso   1.00
Cu1237 Cu    0.71355   0.50001   0.75000   0.00000  Uiso   1.00
Cu1238 Cu    0.95311   0.49999   0.75000   0.00000  Uiso   1.00
H1239  H     0.78225   0.51161   0.61219   0.00000  Uiso   1.00
H1240  H     0.88657   0.48254   0.88915   0.00000  Uiso   1.00
H1241  H     0.97142   0.48354   0.60823   0.00000  Uiso   1.00
H1242  H     0.69373   0.52615   0.88979   0.00000  Uiso   1.00
H1243  H     0.99775   0.54113   0.96893   0.00000  Uiso   1.00
H1244  H     0.99912   0.47660   0.52747   0.00000  Uiso   1.00
H1245  H     0.84808   0.53667   0.57685   0.00000  Uiso   1.00
H1246  H     0.81403   0.48737   0.91780   0.00000  Uiso   1.00
H1247  H     0.93768   0.37152   0.80511   0.00000  Uiso   1.00
H1248  H     0.72900   0.62882   0.69502   0.00000  Uiso   1.00
H1249  H     0.77457   0.44590   0.78920   0.00000  Uiso   1.00
H1250  H     0.89226   0.55395   0.71069   0.00000  Uiso   1.00
N1251  N     0.78403   0.50001   0.74999   0.00000  Uiso   1.00
N1252  N     0.88264   0.49999   0.75001   0.00000  Uiso   1.00
O1253  O     0.70625   0.43989   0.75000   0.00000  Uiso   1.00
O1254  O     0.96042   0.56011   0.75000   0.00000  Uiso   1.00
O1255  O     0.96039   0.43988   0.75001   0.00000  Uiso   1.00
O1256  O     0.70628   0.56012   0.74999   0.00000  Uiso   1.00
O1257  O     0.68519   0.50001   0.81491   0.00000  Uiso   1.00
O1258  O     0.98148   0.49999   0.68509   0.00000  Uiso   1.00
O1259  O     0.93933   0.50000   0.81492   0.00000  Uiso   1.00
O1260  O     0.72733   0.50000   0.68508   0.00000  Uiso   1.00
F1261  F     0.93708   0.54892   0.54189   0.00000  Uiso   1.00
F1262  F     0.72552   0.47379   0.95310   0.00000  Uiso   1.00
C1263  C     0.92681   0.62324   0.82262   0.00000  Uiso   1.00
C1264  C     0.94977   0.61007   0.85914   0.00000  Uiso   1.00
H1265  H     0.92241   0.59331   0.88666   0.00000  Uiso   1.00
H1266  H     0.98033   0.58942   0.84566   0.00000  Uiso   1.00
H1267  H     0.96340   0.63775   0.87292   0.00000  Uiso   1.00
H1268  H     0.89693   0.64425   0.83760   0.00000  Uiso   1.00
H1269  H     0.90948   0.59613   0.81152   0.00000  Uiso   1.00
C1270  C     0.74105   0.37713   0.67891   0.00000  Uiso   1.00
C1271  C     0.78999   0.37804   0.68886   0.00000  Uiso   1.00
H1272  H     0.81707   0.39509   0.66136   0.00000  Uiso   1.00
H1273  H     0.78748   0.39392   0.72062   0.00000  Uiso   1.00
H1274  H     0.80246   0.34606   0.69155   0.00000  Uiso   1.00
H1275  H     0.74433   0.36074   0.64725   0.00000  Uiso   1.00
H1276  H     0.73118   0.40925   0.67268   0.00000  Uiso   1.00
C1277  C     0.86365   0.43357   0.79890   0.00000  Uiso   1.00
C1278  C     0.82422   0.41670   0.83994   0.00000  Uiso   1.00
H1279  H     0.80529   0.44243   0.85997   0.00000  Uiso   1.00
H1280  H     0.79777   0.39645   0.82976   0.00000  Uiso   1.00
H1281  H     0.84080   0.39750   0.86143   0.00000  Uiso   1.00
H1282  H     0.87529   0.40785   0.77559   0.00000  Uiso   1.00
H1283  H     0.89349   0.44273   0.81223   0.00000  Uiso   1.00
C1284  C     0.80251   0.56693   0.70205   0.00000  Uiso   1.00
C1285  C     0.84246   0.58686   0.66331   0.00000  Uiso   1.00
H1286  H     0.86677   0.60726   0.67613   0.00000  Uiso   1.00
H1287  H     0.86373   0.56277   0.64224   0.00000  Uiso   1.00
H1288  H     0.82604   0.60651   0.64207   0.00000  Uiso   1.00
H1289  H     0.77436   0.55717   0.68672   0.00000  Uiso   1.00
H1290  H     0.78840   0.59132   0.72646   0.00000  Uiso   1.00
C1291  C     0.00003   0.75428   0.74871   0.00000  Uiso   1.00
C1292  C     0.33319   0.91242   0.75156   0.00000  Uiso   1.00
C1293  C     0.19142   0.86025   0.54284   0.00000  Uiso   1.00
C1294  C     0.13870   0.82464   0.95329   0.00000  Uiso   1.00
C1295  C     0.23984   0.86625   0.51990   0.00000  Uiso   1.00
C1296  C     0.09021   0.81914   0.97615   0.00000  Uiso   1.00
C1297  C     0.29749   0.68796   0.78060   0.00000  Uiso   1.00
C1298  C     0.03558   0.97887   0.71946   0.00000  Uiso   1.00
C1299  C     0.29718   0.97827   0.78381   0.00000  Uiso   1.00
C1300  C     0.03609   0.68859   0.71653   0.00000  Uiso   1.00
C1301  C     0.33331   0.95711   0.75246   0.00000  Uiso   1.00
C1302  C     0.33314   0.70966   0.74766   0.00000  Uiso   1.00
C1303  C     0.18258   0.80293   0.77348   0.00000  Uiso   1.00
C1304  C     0.15069   0.86388   0.72671   0.00000  Uiso   1.00
C1305  C     0.13359   0.80317   0.77226   0.00000  Uiso   1.00
C1306  C     0.19980   0.86344   0.72764   0.00000  Uiso   1.00
C1307  C     0.30597   0.83353   0.83586   0.00000  Uiso   1.00
C1308  C     0.02737   0.83314   0.66410   0.00000  Uiso   1.00
C1309  C     0.29078   0.83765   0.88449   0.00000  Uiso   1.00
C1310  C     0.04248   0.83194   0.61512   0.00000  Uiso   1.00
C1311  C     0.30575   0.86208   0.95223   0.00000  Uiso   1.00
C1312  C     0.02528   0.81847   0.54505   0.00000  Uiso   1.00
C1313  C     0.32270   0.85311   0.90717   0.00000  Uiso   1.00
C1314  C     0.00936   0.82244   0.59119   0.00000  Uiso   1.00
C1315  C     0.24229   0.83000   0.90749   0.00000  Uiso   1.00
C1316  C     0.09121   0.83898   0.59234   0.00000  Uiso   1.00
C1317  C     0.22369   0.84050   0.95246   0.00000  Uiso   1.00
C1318  C     0.10805   0.83658   0.54558   0.00000  Uiso   1.00
C1319  C     0.25655   0.85615   0.97506   0.00000  Uiso   1.00
C1320  C     0.07439   0.82481   0.52210   0.00000  Uiso   1.00
C1321  C     0.17354   0.83602   0.97543   0.00000  Uiso   1.00
C1322  C     0.15758   0.84410   0.52185   0.00000  Uiso   1.00
Cu1323 Cu    0.04689   0.83334   0.75000   0.00000  Uiso   1.00
Cu1324 Cu    0.28645   0.83333   0.75000   0.00000  Uiso   1.00
H1325  H     0.11559   0.84494   0.61219   0.00000  Uiso   1.00
H1326  H     0.21991   0.81587   0.88915   0.00000  Uiso   1.00
H1327  H     0.30476   0.81687   0.60823   0.00000  Uiso   1.00
H1328  H     0.02706   0.85948   0.88979   0.00000  Uiso   1.00
H1329  H     0.33109   0.87447   0.96893   0.00000  Uiso   1.00
H1330  H     0.33245   0.80993   0.52747   0.00000  Uiso   1.00
H1331  H     0.18141   0.87001   0.57685   0.00000  Uiso   1.00
H1332  H     0.14736   0.82070   0.91780   0.00000  Uiso   1.00
H1333  H     0.27102   0.70485   0.80511   0.00000  Uiso   1.00
H1334  H     0.06233   0.96215   0.69502   0.00000  Uiso   1.00
H1335  H     0.10791   0.77924   0.78920   0.00000  Uiso   1.00
H1336  H     0.22559   0.88728   0.71069   0.00000  Uiso   1.00
N1337  N     0.11736   0.83334   0.74999   0.00000  Uiso   1.00
N1338  N     0.21597   0.83332   0.75001   0.00000  Uiso   1.00
O1339  O     0.03958   0.77322   0.75000   0.00000  Uiso   1.00
O1340  O     0.29375   0.89345   0.75000   0.00000  Uiso   1.00
O1341  O     0.29372   0.77321   0.75001   0.00000  Uiso   1.00
O1342  O     0.03961   0.89346   0.74999   0.00000  Uiso   1.00
O1343  O     0.01852   0.83334   0.81491   0.00000  Uiso   1.00
O1344  O     0.31481   0.83332   0.68509   0.00000  Uiso   1.00
O1345  O     0.27267   0.83333   0.81492   0.00000  Uiso   1.00
O1346  O     0.06067   0.83333   0.68508   0.00000  Uiso   1.00
F1347  F     0.27041   0.88225   0.54189   0.00000  Uiso   1.00
F1348  F     0.05885   0.80712   0.95310   0.00000  Uiso   1.00
C1349  C     0.26015   0.95657   0.82262   0.00000  Uiso   1.00
C1350  C     0.28311   0.94340   0.85914   0.00000  Uiso   1.00
H1351  H     0.25574   0.92664   0.88666   0.00000  Uiso   1.00
H1352  H     0.31366   0.92275   0.84566   0.00000  Uiso   1.00
H1353  H     0.29673   0.97108   0.87292   0.00000  Uiso   1.00
H1354  H     0.23026   0.97759   0.83760   0.00000  Uiso   1.00
H1355  H     0.24281   0.92947   0.81152   0.00000  Uiso   1.00
C1356  C     0.07439   0.71047   0.67891   0.00000  Uiso   1.00
C1357  C     0.12332   0.71138   0.68886   0.00000  Uiso   1.00
H1358  H     0.15040   0.72843   0.66136   0.00000  Uiso   1.00
H1359  H     0.12082   0.72725   0.72062   0.00000  Uiso   1.00
H1360  H     0.13579   0.67939   0.69155   0.00000  Uiso   1.00
H1361  H     0.07767   0.69407   0.64725   0.00000  Uiso   1.00
H1362  H     0.06451   0.74259   0.67268   0.00000  Uiso   1.00
C1363  C     0.19699   0.76690   0.79890   0.00000  Uiso   1.00
C1364  C     0.15755   0.75003   0.83994   0.00000  Uiso   1.00
H1365  H     0.13863   0.77577   0.85997   0.00000  Uiso   1.00
H1366  H     0.13110   0.72979   0.82976   0.00000  Uiso   1.00
H1367  H     0.17413   0.73083   0.86143   0.00000  Uiso   1.00
H1368  H     0.20863   0.74119   0.77559   0.00000  Uiso   1.00
H1369  H     0.22682   0.77606   0.81223   0.00000  Uiso   1.00
C1370  C     0.13585   0.90027   0.70205   0.00000  Uiso   1.00
C1371  C     0.17580   0.92019   0.66331   0.00000  Uiso   1.00
H1372  H     0.20011   0.94059   0.67613   0.00000  Uiso   1.00
H1373  H     0.19706   0.89610   0.64224   0.00000  Uiso   1.00
H1374  H     0.15938   0.93984   0.64207   0.00000  Uiso   1.00
H1375  H     0.10769   0.89050   0.68672   0.00000  Uiso   1.00
H1376  H     0.12174   0.92465   0.72646   0.00000  Uiso   1.00
C1377  C     0.33336   0.75428   0.74871   0.00000  Uiso   1.00
C1378  C     0.66652   0.91242   0.75156   0.00000  Uiso   1.00
C1379  C     0.52476   0.86025   0.54284   0.00000  Uiso   1.00
C1380  C     0.47203   0.82464   0.95329   0.00000  Uiso   1.00
C1381  C     0.57317   0.86625   0.51990   0.00000  Uiso   1.00
C1382  C     0.42355   0.81914   0.97615   0.00000  Uiso   1.00
C1383  C     0.63083   0.68796   0.78060   0.00000  Uiso   1.00
C1384  C     0.36892   0.97887   0.71946   0.00000  Uiso   1.00
C1385  C     0.63051   0.97827   0.78381   0.00000  Uiso   1.00
C1386  C     0.36942   0.68859   0.71653   0.00000  Uiso   1.00
C1387  C     0.66664   0.95711   0.75246   0.00000  Uiso   1.00
C1388  C     0.66647   0.70966   0.74766   0.00000  Uiso   1.00
C1389  C     0.51591   0.80293   0.77348   0.00000  Uiso   1.00
C1390  C     0.48403   0.86388   0.72671   0.00000  Uiso   1.00
C1391  C     0.46692   0.80317   0.77226   0.00000  Uiso   1.00
C1392  C     0.53313   0.86344   0.72764   0.00000  Uiso   1.00
C1393  C     0.63930   0.83353   0.83586   0.00000  Uiso   1.00
C1394  C     0.36070   0.83314   0.66410   0.00000  Uiso   1.00
C1395  C     0.62412   0.83765   0.88449   0.00000  Uiso   1.00
C1396  C     0.37581   0.83194   0.61512   0.00000  Uiso   1.00
C1397  C     0.63908   0.86208   0.95223   0.00000  Uiso   1.00
C1398  C     0.35861   0.81847   0.54505   0.00000  Uiso   1.00
C1399  C     0.65604   0.85311   0.90717   0.00000  Uiso   1.00
C1400  C     0.34269   0.82244   0.59119   0.00000  Uiso   1.00
C1401  C     0.57562   0.83000   0.90749   0.00000  Uiso   1.00
C1402  C     0.42455   0.83898   0.59234   0.00000  Uiso   1.00
C1403  C     0.55703   0.84050   0.95246   0.00000  Uiso   1.00
C1404  C     0.44139   0.83658   0.54558   0.00000  Uiso   1.00
C1405  C     0.58989   0.85615   0.97506   0.00000  Uiso   1.00
C1406  C     0.40772   0.82481   0.52210   0.00000  Uiso   1.00
C1407  C     0.50687   0.83602   0.97543   0.00000  Uiso   1.00
C1408  C     0.49092   0.84410   0.52185   0.00000  Uiso   1.00
Cu1409 Cu    0.38022   0.83334   0.75000   0.00000  Uiso   1.00
Cu1410 Cu    0.61978   0.83333   0.75000   0.00000  Uiso   1.00
H1411  H     0.44892   0.84494   0.61219   0.00000  Uiso   1.00
H1412  H     0.55324   0.81587   0.88915   0.00000  Uiso   1.00
H1413  H     0.63809   0.81687   0.60823   0.00000  Uiso   1.00
H1414  H     0.36040   0.85948   0.88979   0.00000  Uiso   1.00
H1415  H     0.66442   0.87447   0.96893   0.00000  Uiso   1.00
H1416  H     0.66579   0.80993   0.52747   0.00000  Uiso   1.00
H1417  H     0.51474   0.87001   0.57685   0.00000  Uiso   1.00
H1418  H     0.48070   0.82070   0.91780   0.00000  Uiso   1.00
H1419  H     0.60435   0.70485   0.80511   0.00000  Uiso   1.00
H1420  H     0.39567   0.96215   0.69502   0.00000  Uiso   1.00
H1421  H     0.44124   0.77924   0.78920   0.00000  Uiso   1.00
H1422  H     0.55892   0.88728   0.71069   0.00000  Uiso   1.00
N1423  N     0.45069   0.83334   0.74999   0.00000  Uiso   1.00
N1424  N     0.54931   0.83332   0.75001   0.00000  Uiso   1.00
O1425  O     0.37291   0.77322   0.75000   0.00000  Uiso   1.00
O1426  O     0.62709   0.89345   0.75000   0.00000  Uiso   1.00
O1427  O     0.62706   0.77321   0.75001   0.00000  Uiso   1.00
O1428  O     0.37294   0.89346   0.74999   0.00000  Uiso   1.00
O1429  O     0.35186   0.83334   0.81491   0.00000  Uiso   1.00
O1430  O     0.64814   0.83332   0.68509   0.00000  Uiso   1.00
O1431  O     0.60600   0.83333   0.81492   0.00000  Uiso   1.00
O1432  O     0.39400   0.83333   0.68508   0.00000  Uiso   1.00
F1433  F     0.60375   0.88225   0.54189   0.00000  Uiso   1.00
F1434  F     0.39219   0.80712   0.95310   0.00000  Uiso   1.00
C1435  C     0.59348   0.95657   0.82262   0.00000  Uiso   1.00
C1436  C     0.61644   0.94340   0.85914   0.00000  Uiso   1.00
H1437  H     0.58907   0.92664   0.88666   0.00000  Uiso   1.00
H1438  H     0.64699   0.92275   0.84566   0.00000  Uiso   1.00
H1439  H     0.63006   0.97108   0.87292   0.00000  Uiso   1.00
H1440  H     0.56359   0.97759   0.83760   0.00000  Uiso   1.00
H1441  H     0.57615   0.92947   0.81152   0.00000  Uiso   1.00
C1442  C     0.40772   0.71047   0.67891   0.00000  Uiso   1.00
C1443  C     0.45665   0.71138   0.68886   0.00000  Uiso   1.00
H1444  H     0.48373   0.72843   0.66136   0.00000  Uiso   1.00
H1445  H     0.45415   0.72725   0.72062   0.00000  Uiso   1.00
H1446  H     0.46913   0.67939   0.69155   0.00000  Uiso   1.00
H1447  H     0.41100   0.69407   0.64725   0.00000  Uiso   1.00
H1448  H     0.39784   0.74259   0.67268   0.00000  Uiso   1.00
C1449  C     0.53032   0.76690   0.79890   0.00000  Uiso   1.00
C1450  C     0.49088   0.75003   0.83994   0.00000  Uiso   1.00
H1451  H     0.47196   0.77577   0.85997   0.00000  Uiso   1.00
H1452  H     0.46443   0.72979   0.82976   0.00000  Uiso   1.00
H1453  H     0.50747   0.73083   0.86143   0.00000  Uiso   1.00
H1454  H     0.54196   0.74119   0.77559   0.00000  Uiso   1.00
H1455  H     0.56016   0.77606   0.81223   0.00000  Uiso   1.00
C1456  C     0.46918   0.90027   0.70205   0.00000  Uiso   1.00
C1457  C     0.50913   0.92019   0.66331   0.00000  Uiso   1.00
H1458  H     0.53344   0.94059   0.67613   0.00000  Uiso   1.00
H1459  H     0.53039   0.89610   0.64224   0.00000  Uiso   1.00
H1460  H     0.49271   0.93984   0.64207   0.00000  Uiso   1.00
H1461  H     0.44102   0.89050   0.68672   0.00000  Uiso   1.00
H1462  H     0.45507   0.92465   0.72646   0.00000  Uiso   1.00
C1463  C     0.66669   0.75428   0.74871   0.00000  Uiso   1.00
C1464  C     0.99986   0.91242   0.75156   0.00000  Uiso   1.00
C1465  C     0.85809   0.86025   0.54284   0.00000  Uiso   1.00
C1466  C     0.80537   0.82464   0.95329   0.00000  Uiso   1.00
C1467  C     0.90651   0.86625   0.51990   0.00000  Uiso   1.00
C1468  C     0.75688   0.81914   0.97615   0.00000  Uiso   1.00
C1469  C     0.96416   0.68796   0.78060   0.00000  Uiso   1.00
C1470  C     0.70225   0.97887   0.71946   0.00000  Uiso   1.00
C1471  C     0.96384   0.97827   0.78381   0.00000  Uiso   1.00
C1472  C     0.70275   0.68859   0.71653   0.00000  Uiso   1.00
C1473  C     0.99998   0.95711   0.75246   0.00000  Uiso   1.00
C1474  C     0.99981   0.70966   0.74766   0.00000  Uiso   1.00
C1475  C     0.84924   0.80293   0.77348   0.00000  Uiso   1.00
C1476  C     0.81736   0.86388   0.72671   0.00000  Uiso   1.00
C1477  C     0.80026   0.80317   0.77226   0.00000  Uiso   1.00
C1478  C     0.86646   0.86344   0.72764   0.00000  Uiso   1.00
C1479  C     0.97264   0.83353   0.83586   0.00000  Uiso   1.00
C1480  C     0.69403   0.83314   0.66410   0.00000  Uiso   1.00
C1481  C     0.95745   0.83765   0.88449   0.00000  Uiso   1.00
C1482  C     0.70915   0.83194   0.61512   0.00000  Uiso   1.00
C1483  C     0.97241   0.86208   0.95223   0.00000  Uiso   1.00
C1484  C     0.69195   0.81847   0.54505   0.00000  Uiso   1.00
C1485  C     0.98937   0.85311   0.90717   0.00000  Uiso   1.00
C1486  C     0.67603   0.82244   0.59119   0.00000  Uiso   1.00
C1487  C     0.90896   0.83000   0.90749   0.00000  Uiso   1.00
C1488  C     0.75788   0.83898   0.59234   0.00000  Uiso   1.00
C1489  C     0.89036   0.84050   0.95246   0.00000  Uiso   1.00
C1490  C     0.77472   0.83658   0.54558   0.00000  Uiso   1.00
C1491  C     0.92322   0.85615   0.97506   0.00000  Uiso   1.00
C1492  C     0.74106   0.82481   0.52210   0.00000  Uiso   1.00
C1493  C     0.84021   0.83602   0.97543   0.00000  Uiso   1.00
C1494  C     0.82425   0.84410   0.52185   0.00000  Uiso   1.00
Cu1495 Cu    0.71355   0.83334   0.75000   0.00000  Uiso   1.00
Cu1496 Cu    0.95311   0.83333   0.75000   0.00000  Uiso   1.00
H1497  H     0.78225   0.84494   0.61219   0.00000  Uiso   1.00
H1498  H     0.88657   0.81587   0.88915   0.00000  Uiso   1.00
H1499  H     0.97142   0.81687   0.60823   0.00000  Uiso   1.00
H1500  H     0.69373   0.85948   0.88979   0.00000  Uiso   1.00
H1501  H     0.99775   0.87447   0.96893   0.00000  Uiso   1.00
H1502  H     0.99912   0.80993   0.52747   0.00000  Uiso   1.00
H1503  H     0.84808   0.87001   0.57685   0.00000  Uiso   1.00
H1504  H     0.81403   0.82070   0.91780   0.00000  Uiso   1.00
H1505  H     0.93768   0.70485   0.80511   0.00000  Uiso   1.00
H1506  H     0.72900   0.96215   0.69502   0.00000  Uiso   1.00
H1507  H     0.77457   0.77924   0.78920   0.00000  Uiso   1.00
H1508  H     0.89226   0.88728   0.71069   0.00000  Uiso   1.00
N1509  N     0.78403   0.83334   0.74999   0.00000  Uiso   1.00
N1510  N     0.88264   0.83332   0.75001   0.00000  Uiso   1.00
O1511  O     0.70625   0.77322   0.75000   0.00000  Uiso   1.00
O1512  O     0.96042   0.89345   0.75000   0.00000  Uiso   1.00
O1513  O     0.96039   0.77321   0.75001   0.00000  Uiso   1.00
O1514  O     0.70628   0.89346   0.74999   0.00000  Uiso   1.00
O1515  O     0.68519   0.83334   0.81491   0.00000  Uiso   1.00
O1516  O     0.98148   0.83332   0.68509   0.00000  Uiso   1.00
O1517  O     0.93933   0.83333   0.81492   0.00000  Uiso   1.00
O1518  O     0.72733   0.83333   0.68508   0.00000  Uiso   1.00
F1519  F     0.93708   0.88225   0.54189   0.00000  Uiso   1.00
F1520  F     0.72552   0.80712   0.95310   0.00000  Uiso   1.00
C1521  C     0.92681   0.95657   0.82262   0.00000  Uiso   1.00
C1522  C     0.94977   0.94340   0.85914   0.00000  Uiso   1.00
H1523  H     0.92241   0.92664   0.88666   0.00000  Uiso   1.00
H1524  H     0.98033   0.92275   0.84566   0.00000  Uiso   1.00
H1525  H     0.96340   0.97108   0.87292   0.00000  Uiso   1.00
H1526  H     0.89693   0.97759   0.83760   0.00000  Uiso   1.00
H1527  H     0.90948   0.92947   0.81152   0.00000  Uiso   1.00
C1528  C     0.74105   0.71047   0.67891   0.00000  Uiso   1.00
C1529  C     0.78999   0.71138   0.68886   0.00000  Uiso   1.00
H1530  H     0.81707   0.72843   0.66136   0.00000  Uiso   1.00
H1531  H     0.78748   0.72725   0.72062   0.00000  Uiso   1.00
H1532  H     0.80246   0.67939   0.69155   0.00000  Uiso   1.00
H1533  H     0.74433   0.69407   0.64725   0.00000  Uiso   1.00
H1534  H     0.73118   0.74259   0.67268   0.00000  Uiso   1.00
C1535  C     0.86365   0.76690   0.79890   0.00000  Uiso   1.00
C1536  C     0.82422   0.75003   0.83994   0.00000  Uiso   1.00
H1537  H     0.80529   0.77577   0.85997   0.00000  Uiso   1.00
H1538  H     0.79777   0.72979   0.82976   0.00000  Uiso   1.00
H1539  H     0.84080   0.73083   0.86143   0.00000  Uiso   1.00
H1540  H     0.87529   0.74119   0.77559   0.00000  Uiso   1.00
H1541  H     0.89349   0.77606   0.81223   0.00000  Uiso   1.00
C1542  C     0.80251   0.90027   0.70205   0.00000  Uiso   1.00
C1543  C     0.84246   0.92019   0.66331   0.00000  Uiso   1.00
H1544  H     0.86677   0.94059   0.67613   0.00000  Uiso   1.00
H1545  H     0.86373   0.89610   0.64224   0.00000  Uiso   1.00
H1546  H     0.82604   0.93984   0.64207   0.00000  Uiso   1.00
H1547  H     0.77436   0.89050   0.68672   0.00000  Uiso   1.00
H1548  H     0.78840   0.92465   0.72646   0.00000  Uiso   1.00
loop_
_geom_bond_atom_site_label_1
_geom_bond_atom_site_label_2
_geom_bond_distance
_geom_bond_site_symmetry_2
_ccdc_geom_bond_type
C1     O49     1.293   .     A
C1     C184    1.442   1_455 S
C1     O223    1.300   1_455 S
C2     O50     1.293   .     A
C2     C11     1.445   .     S
C2     O138    1.301   .     S
C3     H41     1.074   .     S
C3     C5      1.386   .     A
C3     C32     1.415   .     A
C4     H42     1.074   .     S
C4     C6      1.386   .     A
C4     C31     1.415   .     A
C5     F57     1.359   .     S
C5     C803    1.394   1_554 S
C6     F58     1.358   .     S
C6     C804    1.394   .     S
C7     C12     1.396   .     A
C7     H43     1.084   .     S
C7     C525    1.391   1_545 S
C8     H44     1.084   .     S
C8     C268    1.391   .     S
C8     C183    1.397   1_455 S
C9     C11     1.414   .     A
C9     C59     1.517   .     S
C9     C265    1.391   .     S
C10    C66     1.516   .     S
C10    C524    1.391   1_545 S
C10    C184    1.412   1_455 S
C11    C94     1.397   .     S
C12    C87     1.442   .     S
C12    C96     1.412   .     S
C13    C73     1.523   .     S
C13    C15     1.424   .     A
C13    N48     1.399   .     A
C14    C80     1.524   .     S
C14    C16     1.425   .     A
C14    N47     1.400   .     A
C15    N47     1.350   .     A
C15    H45     1.078   .     S
C16    N48     1.350   .     A
C16    H46     1.078   .     S
C17    O55     1.303   .     A
C17    C19     1.465   .     S
C17    O139    1.302   .     S
C18    O56     1.304   .     A
C18    C20     1.467   .     S
C18    O226    1.302   1_455 S
C19    C23     1.398   .     A
C19    C25     1.395   .     A
C20    C24     1.399   .     A
C20    C26     1.397   .     A
C21    C23     1.391   .     A
C21    C29     1.405   .     A
C21    H39     1.083   .     S
C22    C24     1.391   .     A
C22    C30     1.405   .     A
C22    H212    1.083   1_455 S
C23    H124    1.083   .     S
C24    H209    1.083   1_455 S
C25    C27     1.406   .     A
C25    H36     1.075   .     S
C26    C28     1.406   .     A
C26    H35     1.075   .     S
C27    C29     1.420   .     A
C27    C31     1.426   .     A
C28    C32     1.426   .     A
C28    C30     1.419   .     A
C29    C779    1.394   .     S
C30    C780    1.394   1_554 S
C31    C806    1.422   .     S
C32    C805    1.422   1_554 S
Cu33   O52     1.958   .     S
Cu33   O49     1.949   .     S
Cu33   O56     1.949   .     S
Cu33   O53     1.958   .     S
Cu33   N47     2.032   .     S
Cu33   Cu206   2.704   1_455 S
Cu34   O51     1.958   .     S
Cu34   O55     1.949   .     S
Cu34   O50     1.949   .     S
Cu34   O54     1.958   .     S
Cu34   N48     2.032   .     S
Cu34   Cu119   2.704   .     S
H37    C110    1.083   .     S
H38    C195    1.083   1_455 S
H40    C108    1.083   .     S
O51    C87     1.300   .     S
O52    C174    1.301   1_455 S
O53    C189    1.302   1_455 S
O54    C104    1.302   .     S
C59    H65     1.108   .     S
C59    H64     1.112   .     S
C59    C60     1.525   .     S
C60    H63     1.111   .     S
C60    H62     1.109   .     S
C60    H61     1.110   .     S
C66    H72     1.109   .     S
C66    C67     1.527   .     S
C66    H71     1.112   .     S
C67    H68     1.110   .     S
C67    H69     1.110   .     S
C67    H70     1.111   .     S
C73    C74     1.534   .     S
C73    H78     1.111   .     S
C73    H79     1.093   .     S
C74    H77     1.111   .     S
C74    H75     1.110   .     S
C74    H76     1.110   .     S
C80    H86     1.110   .     S
C80    H85     1.095   .     S
C80    C81     1.534   .     S
C81    H82     1.111   .     S
C81    H83     1.110   .     S
C81    H84     1.111   .     S
C87    O135    1.293   .     A
C88    O136    1.293   .     A
C88    C97     1.445   .     S
C88    O224    1.301   .     S
C89    H127    1.074   .     S
C89    C91     1.386   .     A
C89    C118    1.415   .     A
C90    H128    1.074   .     S
C90    C92     1.386   .     A
C90    C117    1.415   .     A
C91    F143    1.359   .     S
C91    C889    1.394   1_554 S
C92    F144    1.358   .     S
C92    C890    1.394   .     S
C93    C98     1.396   .     A
C93    H129    1.084   .     S
C93    C611    1.391   1_545 S
C94    H130    1.084   .     S
C94    C354    1.391   .     S
C95    C97     1.414   .     A
C95    C145    1.517   .     S
C95    C351    1.391   .     S
C96    C152    1.516   .     S
C96    C610    1.391   1_545 S
C97    C180    1.397   .     S
C98    C173    1.442   .     S
C98    C182    1.412   .     S
C99    C159    1.523   .     S
C99    C101    1.424   .     A
C99    N134    1.399   .     A
C100   C166    1.524   .     S
C100   C102    1.425   .     A
C100   N133    1.400   .     A
C101   N133    1.350   .     A
C101   H131    1.078   .     S
C102   N134    1.350   .     A
C102   H132    1.078   .     S
C103   O141    1.303   .     A
C103   C105    1.465   .     S
C103   O225    1.302   .     S
C104   O142    1.304   .     A
C104   C106    1.467   .     S
C105   C109    1.398   .     A
C105   C111    1.395   .     A
C106   C110    1.399   .     A
C106   C112    1.397   .     A
C107   C109    1.391   .     A
C107   C115    1.405   .     A
C107   H125    1.083   .     S
C108   C110    1.391   .     A
C108   C116    1.405   .     A
C109   H210    1.083   .     S
C111   C113    1.406   .     A
C111   H122    1.075   .     S
C112   C114    1.406   .     A
C112   H121    1.075   .     S
C113   C115    1.420   .     A
C113   C117    1.426   .     A
C114   C118    1.426   .     A
C114   C116    1.419   .     A
C115   C865    1.394   .     S
C116   C866    1.394   1_554 S
C117   C892    1.422   .     S
C118   C891    1.422   1_554 S
Cu119  O138    1.958   .     S
Cu119  O135    1.949   .     S
Cu119  O142    1.949   .     S
Cu119  O139    1.958   .     S
Cu119  N133    2.032   .     S
Cu120  O137    1.958   .     S
Cu120  O141    1.949   .     S
Cu120  O136    1.949   .     S
Cu120  O140    1.958   .     S
Cu120  N134    2.032   .     S
Cu120  Cu205   2.704   .     S
H123   C196    1.083   .     S
H126   C194    1.083   .     S
O137   C173    1.300   .     S
O140   C190    1.302   .     S
C145   H151    1.108   .     S
C145   H150    1.112   .     S
C145   C146    1.525   .     S
C146   H149    1.111   .     S
C146   H148    1.109   .     S
C146   H147    1.110   .     S
C152   H158    1.109   .     S
C152   C153    1.527   .     S
C152   H157    1.112   .     S
C153   H154    1.110   .     S
C153   H155    1.110   .     S
C153   H156    1.111   .     S
C159   C160    1.534   .     S
C159   H164    1.111   .     S
C159   H165    1.093   .     S
C160   H163    1.111   .     S
C160   H161    1.110   .     S
C160   H162    1.110   .     S
C166   H172    1.110   .     S
C166   H171    1.095   .     S
C166   C167    1.534   .     S
C167   H168    1.111   .     S
C167   H169    1.110   .     S
C167   H170    1.111   .     S
C173   O221    1.293   .     A
C174   O222    1.293   .     A
C174   C183    1.445   .     S
C174   O52     1.301   1_655 S
C175   H213    1.074   .     S
C175   C177    1.386   .     A
C175   C204    1.415   .     A
C176   H214    1.074   .     S
C176   C178    1.386   .     A
C176   C203    1.415   .     A
C177   F229    1.359   .     S
C177   C975    1.394   1_554 S
C178   F230    1.358   .     S
C178   C976    1.394   .     S
C179   C184    1.396   .     A
C179   H215    1.084   .     S
C179   C697    1.391   1_545 S
C180   H216    1.084   .     S
C180   C440    1.391   .     S
C181   C183    1.414   .     A
C181   C231    1.517   .     S
C181   C437    1.391   .     S
C182   C238    1.516   .     S
C182   C696    1.391   1_545 S
C183   C8      1.397   1_655 S
C184   C1      1.442   1_655 S
C184   C10     1.412   1_655 S
C185   C245    1.523   .     S
C185   C187    1.424   .     A
C185   N220    1.399   .     A
C186   C252    1.524   .     S
C186   C188    1.425   .     A
C186   N219    1.400   .     A
C187   N219    1.350   .     A
C187   H217    1.078   .     S
C188   N220    1.350   .     A
C188   H218    1.078   .     S
C189   O227    1.303   .     A
C189   C191    1.465   .     S
C189   O53     1.302   1_655 S
C190   O228    1.304   .     A
C190   C192    1.467   .     S
C191   C195    1.398   .     A
C191   C197    1.395   .     A
C192   C196    1.399   .     A
C192   C198    1.397   .     A
C193   C195    1.391   .     A
C193   C201    1.405   .     A
C193   H211    1.083   .     S
C194   C196    1.391   .     A
C194   C202    1.405   .     A
C195   H38     1.083   1_655 S
C197   C199    1.406   .     A
C197   H208    1.075   .     S
C198   C200    1.406   .     A
C198   H207    1.075   .     S
C199   C201    1.420   .     A
C199   C203    1.426   .     A
C200   C204    1.426   .     A
C200   C202    1.419   .     A
C201   C951    1.394   .     S
C202   C952    1.394   1_554 S
C203   C978    1.422   .     S
C204   C977    1.422   1_554 S
Cu205  O224    1.958   .     S
Cu205  O221    1.949   .     S
Cu205  O228    1.949   .     S
Cu205  O225    1.958   .     S
Cu205  N219    2.032   .     S
Cu206  O223    1.958   .     S
Cu206  O227    1.949   .     S
Cu206  O222    1.949   .     S
Cu206  O226    1.958   .     S
Cu206  N220    2.032   .     S
Cu206  Cu33    2.704   1_655 S
H209   C24     1.083   1_655 S
H212   C22     1.083   1_655 S
O223   C1      1.300   1_655 S
O226   C18     1.302   1_655 S
C231   H237    1.108   .     S
C231   H236    1.112   .     S
C231   C232    1.525   .     S
C232   H235    1.111   .     S
C232   H234    1.109   .     S
C232   H233    1.110   .     S
C238   H244    1.109   .     S
C238   C239    1.527   .     S
C238   H243    1.112   .     S
C239   H240    1.110   .     S
C239   H241    1.110   .     S
C239   H242    1.111   .     S
C245   C246    1.534   .     S
C245   H250    1.111   .     S
C245   H251    1.093   .     S
C246   H249    1.111   .     S
C246   H247    1.110   .     S
C246   H248    1.110   .     S
C252   H258    1.110   .     S
C252   H257    1.095   .     S
C252   C253    1.534   .     S
C253   H254    1.111   .     S
C253   H255    1.110   .     S
C253   H256    1.111   .     S
C259   O307    1.293   .     A
C259   C442    1.442   1_455 S
C259   O481    1.300   1_455 S
C260   O308    1.293   .     A
C260   C269    1.445   .     S
C260   O396    1.301   .     S
C261   H299    1.074   .     S
C261   C263    1.386   .     A
C261   C290    1.415   .     A
C262   H300    1.074   .     S
C262   C264    1.386   .     A
C262   C289    1.415   .     A
C263   F315    1.359   .     S
C263   C1061   1.394   1_554 S
C264   F316    1.358   .     S
C264   C1062   1.394   .     S
C265   C270    1.396   .     A
C265   H301    1.084   .     S
C266   H302    1.084   .     S
C266   C526    1.391   .     S
C266   C441    1.397   1_455 S
C267   C269    1.414   .     A
C267   C317    1.517   .     S
C267   C523    1.391   .     S
C268   C324    1.516   .     S
C268   C442    1.412   1_455 S
C269   C352    1.397   .     S
C270   C345    1.442   .     S
C270   C354    1.412   .     S
C271   C331    1.523   .     S
C271   C273    1.424   .     A
C271   N306    1.399   .     A
C272   C338    1.524   .     S
C272   C274    1.425   .     A
C272   N305    1.400   .     A
C273   N305    1.350   .     A
C273   H303    1.078   .     S
C274   N306    1.350   .     A
C274   H304    1.078   .     S
C275   O313    1.303   .     A
C275   C277    1.465   .     S
C275   O397    1.302   .     S
C276   O314    1.304   .     A
C276   C278    1.467   .     S
C276   O484    1.302   1_455 S
C277   C281    1.398   .     A
C277   C283    1.395   .     A
C278   C282    1.399   .     A
C278   C284    1.397   .     A
C279   C281    1.391   .     A
C279   C287    1.405   .     A
C279   H297    1.083   .     S
C280   C282    1.391   .     A
C280   C288    1.405   .     A
C280   H470    1.083   1_455 S
C281   H382    1.083   .     S
C282   H467    1.083   1_455 S
C283   C285    1.406   .     A
C283   H294    1.075   .     S
C284   C286    1.406   .     A
C284   H293    1.075   .     S
C285   C287    1.420   .     A
C285   C289    1.426   .     A
C286   C290    1.426   .     A
C286   C288    1.419   .     A
C287   C1037   1.394   .     S
C288   C1038   1.394   1_554 S
C289   C1064   1.422   .     S
C290   C1063   1.422   1_554 S
Cu291  O310    1.958   .     S
Cu291  O307    1.949   .     S
Cu291  O314    1.949   .     S
Cu291  O311    1.958   .     S
Cu291  N305    2.032   .     S
Cu291  Cu464   2.704   1_455 S
Cu292  O309    1.958   .     S
Cu292  O313    1.949   .     S
Cu292  O308    1.949   .     S
Cu292  O312    1.958   .     S
Cu292  N306    2.032   .     S
Cu292  Cu377   2.704   .     S
H295   C368    1.083   .     S
H296   C453    1.083   1_455 S
H298   C366    1.083   .     S
O309   C345    1.300   .     S
O310   C432    1.301   1_455 S
O311   C447    1.302   1_455 S
O312   C362    1.302   .     S
C317   H323    1.108   .     S
C317   H322    1.112   .     S
C317   C318    1.525   .     S
C318   H321    1.111   .     S
C318   H320    1.109   .     S
C318   H319    1.110   .     S
C324   H330    1.109   .     S
C324   C325    1.527   .     S
C324   H329    1.112   .     S
C325   H326    1.110   .     S
C325   H327    1.110   .     S
C325   H328    1.111   .     S
C331   C332    1.534   .     S
C331   H336    1.111   .     S
C331   H337    1.093   .     S
C332   H335    1.111   .     S
C332   H333    1.110   .     S
C332   H334    1.110   .     S
C338   H344    1.110   .     S
C338   H343    1.095   .     S
C338   C339    1.534   .     S
C339   H340    1.111   .     S
C339   H341    1.110   .     S
C339   H342    1.111   .     S
C345   O393    1.293   .     A
C346   O394    1.293   .     A
C346   C355    1.445   .     S
C346   O482    1.301   .     S
C347   H385    1.074   .     S
C347   C349    1.386   .     A
C347   C376    1.415   .     A
C348   H386    1.074   .     S
C348   C350    1.386   .     A
C348   C375    1.415   .     A
C349   F401    1.359   .     S
C349   C1147   1.394   1_554 S
C350   F402    1.358   .     S
C350   C1148   1.394   .     S
C351   C356    1.396   .     A
C351   H387    1.084   .     S
C352   H388    1.084   .     S
C352   C612    1.391   .     S
C353   C355    1.414   .     A
C353   C403    1.517   .     S
C353   C609    1.391   .     S
C354   C410    1.516   .     S
C355   C438    1.397   .     S
C356   C431    1.442   .     S
C356   C440    1.412   .     S
C357   C417    1.523   .     S
C357   C359    1.424   .     A
C357   N392    1.399   .     A
C358   C424    1.524   .     S
C358   C360    1.425   .     A
C358   N391    1.400   .     A
C359   N391    1.350   .     A
C359   H389    1.078   .     S
C360   N392    1.350   .     A
C360   H390    1.078   .     S
C361   O399    1.303   .     A
C361   C363    1.465   .     S
C361   O483    1.302   .     S
C362   O400    1.304   .     A
C362   C364    1.467   .     S
C363   C367    1.398   .     A
C363   C369    1.395   .     A
C364   C368    1.399   .     A
C364   C370    1.397   .     A
C365   C367    1.391   .     A
C365   C373    1.405   .     A
C365   H383    1.083   .     S
C366   C368    1.391   .     A
C366   C374    1.405   .     A
C367   H468    1.083   .     S
C369   C371    1.406   .     A
C369   H380    1.075   .     S
C370   C372    1.406   .     A
C370   H379    1.075   .     S
C371   C373    1.420   .     A
C371   C375    1.426   .     A
C372   C376    1.426   .     A
C372   C374    1.419   .     A
C373   C1123   1.394   .     S
C374   C1124   1.394   1_554 S
C375   C1150   1.422   .     S
C376   C1149   1.422   1_554 S
Cu377  O396    1.958   .     S
Cu377  O393    1.949   .     S
Cu377  O400    1.949   .     S
Cu377  O397    1.958   .     S
Cu377  N391    2.032   .     S
Cu378  O395    1.958   .     S
Cu378  O399    1.949   .     S
Cu378  O394    1.949   .     S
Cu378  O398    1.958   .     S
Cu378  N392    2.032   .     S
Cu378  Cu463   2.704   .     S
H381   C454    1.083   .     S
H384   C452    1.083   .     S
O395   C431    1.300   .     S
O398   C448    1.302   .     S
C403   H409    1.108   .     S
C403   H408    1.112   .     S
C403   C404    1.525   .     S
C404   H407    1.111   .     S
C404   H406    1.109   .     S
C404   H405    1.110   .     S
C410   H416    1.109   .     S
C410   C411    1.527   .     S
C410   H415    1.112   .     S
C411   H412    1.110   .     S
C411   H413    1.110   .     S
C411   H414    1.111   .     S
C417   C418    1.534   .     S
C417   H422    1.111   .     S
C417   H423    1.093   .     S
C418   H421    1.111   .     S
C418   H419    1.110   .     S
C418   H420    1.110   .     S
C424   H430    1.110   .     S
C424   H429    1.095   .     S
C424   C425    1.534   .     S
C425   H426    1.111   .     S
C425   H427    1.110   .     S
C425   H428    1.111   .     S
C431   O479    1.293   .     A
C432   O480    1.293   .     A
C432   C441    1.445   .     S
C432   O310    1.301   1_655 S
C433   H471    1.074   .     S
C433   C435    1.386   .     A
C433   C462    1.415   .     A
C434   H472    1.074   .     S
C434   C436    1.386   .     A
C434   C461    1.415   .     A
C435   F487    1.359   .     S
C435   C1233   1.394   1_554 S
C436   F488    1.358   .     S
C436   C1234   1.394   .     S
C437   C442    1.396   .     A
C437   H473    1.084   .     S
C438   H474    1.084   .     S
C438   C698    1.391   .     S
C439   C441    1.414   .     A
C439   C489    1.517   .     S
C439   C695    1.391   .     S
C440   C496    1.516   .     S
C441   C266    1.397   1_655 S
C442   C259    1.442   1_655 S
C442   C268    1.412   1_655 S
C443   C503    1.523   .     S
C443   C445    1.424   .     A
C443   N478    1.399   .     A
C444   C510    1.524   .     S
C444   C446    1.425   .     A
C444   N477    1.400   .     A
C445   N477    1.350   .     A
C445   H475    1.078   .     S
C446   N478    1.350   .     A
C446   H476    1.078   .     S
C447   O485    1.303   .     A
C447   C449    1.465   .     S
C447   O311    1.302   1_655 S
C448   O486    1.304   .     A
C448   C450    1.467   .     S
C449   C453    1.398   .     A
C449   C455    1.395   .     A
C450   C454    1.399   .     A
C450   C456    1.397   .     A
C451   C453    1.391   .     A
C451   C459    1.405   .     A
C451   H469    1.083   .     S
C452   C454    1.391   .     A
C452   C460    1.405   .     A
C453   H296    1.083   1_655 S
C455   C457    1.406   .     A
C455   H466    1.075   .     S
C456   C458    1.406   .     A
C456   H465    1.075   .     S
C457   C459    1.420   .     A
C457   C461    1.426   .     A
C458   C462    1.426   .     A
C458   C460    1.419   .     A
C459   C1209   1.394   .     S
C460   C1210   1.394   1_554 S
C461   C1236   1.422   .     S
C462   C1235   1.422   1_554 S
Cu463  O482    1.958   .     S
Cu463  O479    1.949   .     S
Cu463  O486    1.949   .     S
Cu463  O483    1.958   .     S
Cu463  N477    2.032   .     S
Cu464  O481    1.958   .     S
Cu464  O485    1.949   .     S
Cu464  O480    1.949   .     S
Cu464  O484    1.958   .     S
Cu464  N478    2.032   .     S
Cu464  Cu291   2.704   1_655 S
H467   C282    1.083   1_655 S
H470   C280    1.083   1_655 S
O481   C259    1.300   1_655 S
O484   C276    1.302   1_655 S
C489   H495    1.108   .     S
C489   H494    1.112   .     S
C489   C490    1.525   .     S
C490   H493    1.111   .     S
C490   H492    1.109   .     S
C490   H491    1.110   .     S
C496   H502    1.109   .     S
C496   C497    1.527   .     S
C496   H501    1.112   .     S
C497   H498    1.110   .     S
C497   H499    1.110   .     S
C497   H500    1.111   .     S
C503   C504    1.534   .     S
C503   H508    1.111   .     S
C503   H509    1.093   .     S
C504   H507    1.111   .     S
C504   H505    1.110   .     S
C504   H506    1.110   .     S
C510   H516    1.110   .     S
C510   H515    1.095   .     S
C510   C511    1.534   .     S
C511   H512    1.111   .     S
C511   H513    1.110   .     S
C511   H514    1.111   .     S
C517   O565    1.293   .     A
C517   C700    1.442   1_455 S
C517   O739    1.300   1_455 S
C518   O566    1.293   .     A
C518   C527    1.445   .     S
C518   O654    1.301   .     S
C519   H557    1.074   .     S
C519   C521    1.386   .     A
C519   C548    1.415   .     A
C520   H558    1.074   .     S
C520   C522    1.386   .     A
C520   C547    1.415   .     A
C521   F573    1.359   .     S
C521   C1319   1.394   1_554 S
C522   F574    1.358   .     S
C522   C1320   1.394   .     S
C523   C528    1.396   .     A
C523   H559    1.084   .     S
C524   H560    1.084   .     S
C524   C10     1.391   1_565 S
C524   C699    1.397   1_455 S
C525   C527    1.414   .     A
C525   C575    1.517   .     S
C525   C7      1.391   1_565 S
C526   C582    1.516   .     S
C526   C700    1.412   1_455 S
C527   C610    1.397   .     S
C528   C603    1.442   .     S
C528   C612    1.412   .     S
C529   C589    1.523   .     S
C529   C531    1.424   .     A
C529   N564    1.399   .     A
C530   C596    1.524   .     S
C530   C532    1.425   .     A
C530   N563    1.400   .     A
C531   N563    1.350   .     A
C531   H561    1.078   .     S
C532   N564    1.350   .     A
C532   H562    1.078   .     S
C533   O571    1.303   .     A
C533   C535    1.465   .     S
C533   O655    1.302   .     S
C534   O572    1.304   .     A
C534   C536    1.467   .     S
C534   O742    1.302   1_455 S
C535   C539    1.398   .     A
C535   C541    1.395   .     A
C536   C540    1.399   .     A
C536   C542    1.397   .     A
C537   C539    1.391   .     A
C537   C545    1.405   .     A
C537   H555    1.083   .     S
C538   C540    1.391   .     A
C538   C546    1.405   .     A
C538   H728    1.083   1_455 S
C539   H640    1.083   .     S
C540   H725    1.083   1_455 S
C541   C543    1.406   .     A
C541   H552    1.075   .     S
C542   C544    1.406   .     A
C542   H551    1.075   .     S
C543   C545    1.420   .     A
C543   C547    1.426   .     A
C544   C548    1.426   .     A
C544   C546    1.419   .     A
C545   C1295   1.394   .     S
C546   C1296   1.394   1_554 S
C547   C1322   1.422   .     S
C548   C1321   1.422   1_554 S
Cu549  O568    1.958   .     S
Cu549  O565    1.949   .     S
Cu549  O572    1.949   .     S
Cu549  O569    1.958   .     S
Cu549  N563    2.032   .     S
Cu549  Cu722   2.704   1_455 S
Cu550  O567    1.958   .     S
Cu550  O571    1.949   .     S
Cu550  O566    1.949   .     S
Cu550  O570    1.958   .     S
Cu550  N564    2.032   .     S
Cu550  Cu635   2.704   .     S
H553   C626    1.083   .     S
H554   C711    1.083   1_455 S
H556   C624    1.083   .     S
O567   C603    1.300   .     S
O568   C690    1.301   1_455 S
O569   C705    1.302   1_455 S
O570   C620    1.302   .     S
C575   H581    1.108   .     S
C575   H580    1.112   .     S
C575   C576    1.525   .     S
C576   H579    1.111   .     S
C576   H578    1.109   .     S
C576   H577    1.110   .     S
C582   H588    1.109   .     S
C582   C583    1.527   .     S
C582   H587    1.112   .     S
C583   H584    1.110   .     S
C583   H585    1.110   .     S
C583   H586    1.111   .     S
C589   C590    1.534   .     S
C589   H594    1.111   .     S
C589   H595    1.093   .     S
C590   H593    1.111   .     S
C590   H591    1.110   .     S
C590   H592    1.110   .     S
C596   H602    1.110   .     S
C596   H601    1.095   .     S
C596   C597    1.534   .     S
C597   H598    1.111   .     S
C597   H599    1.110   .     S
C597   H600    1.111   .     S
C603   O651    1.293   .     A
C604   O652    1.293   .     A
C604   C613    1.445   .     S
C604   O740    1.301   .     S
C605   H643    1.074   .     S
C605   C607    1.386   .     A
C605   C634    1.415   .     A
C606   H644    1.074   .     S
C606   C608    1.386   .     A
C606   C633    1.415   .     A
C607   F659    1.359   .     S
C607   C1405   1.394   1_554 S
C608   F660    1.358   .     S
C608   C1406   1.394   .     S
C609   C614    1.396   .     A
C609   H645    1.084   .     S
C610   H646    1.084   .     S
C610   C96     1.391   1_565 S
C611   C613    1.414   .     A
C611   C661    1.517   .     S
C611   C93     1.391   1_565 S
C612   C668    1.516   .     S
C613   C696    1.397   .     S
C614   C689    1.442   .     S
C614   C698    1.412   .     S
C615   C675    1.523   .     S
C615   C617    1.424   .     A
C615   N650    1.399   .     A
C616   C682    1.524   .     S
C616   C618    1.425   .     A
C616   N649    1.400   .     A
C617   N649    1.350   .     A
C617   H647    1.078   .     S
C618   N650    1.350   .     A
C618   H648    1.078   .     S
C619   O657    1.303   .     A
C619   C621    1.465   .     S
C619   O741    1.302   .     S
C620   O658    1.304   .     A
C620   C622    1.467   .     S
C621   C625    1.398   .     A
C621   C627    1.395   .     A
C622   C626    1.399   .     A
C622   C628    1.397   .     A
C623   C625    1.391   .     A
C623   C631    1.405   .     A
C623   H641    1.083   .     S
C624   C626    1.391   .     A
C624   C632    1.405   .     A
C625   H726    1.083   .     S
C627   C629    1.406   .     A
C627   H638    1.075   .     S
C628   C630    1.406   .     A
C628   H637    1.075   .     S
C629   C631    1.420   .     A
C629   C633    1.426   .     A
C630   C634    1.426   .     A
C630   C632    1.419   .     A
C631   C1381   1.394   .     S
C632   C1382   1.394   1_554 S
C633   C1408   1.422   .     S
C634   C1407   1.422   1_554 S
Cu635  O654    1.958   .     S
Cu635  O651    1.949   .     S
Cu635  O658    1.949   .     S
Cu635  O655    1.958   .     S
Cu635  N649    2.032   .     S
Cu636  O653    1.958   .     S
Cu636  O657    1.949   .     S
Cu636  O652    1.949   .     S
Cu636  O656    1.958   .     S
Cu636  N650    2.032   .     S
Cu636  Cu721   2.704   .     S
H639   C712    1.083   .     S
H642   C710    1.083   .     S
O653   C689    1.300   .     S
O656   C706    1.302   .     S
C661   H667    1.108   .     S
C661   H666    1.112   .     S
C661   C662    1.525   .     S
C662   H665    1.111   .     S
C662   H664    1.109   .     S
C662   H663    1.110   .     S
C668   H674    1.109   .     S
C668   C669    1.527   .     S
C668   H673    1.112   .     S
C669   H670    1.110   .     S
C669   H671    1.110   .     S
C669   H672    1.111   .     S
C675   C676    1.534   .     S
C675   H680    1.111   .     S
C675   H681    1.093   .     S
C676   H679    1.111   .     S
C676   H677    1.110   .     S
C676   H678    1.110   .     S
C682   H688    1.110   .     S
C682   H687    1.095   .     S
C682   C683    1.534   .     S
C683   H684    1.111   .     S
C683   H685    1.110   .     S
C683   H686    1.111   .     S
C689   O737    1.293   .     A
C690   O738    1.293   .     A
C690   C699    1.445   .     S
C690   O568    1.301   1_655 S
C691   H729    1.074   .     S
C691   C693    1.386   .     A
C691   C720    1.415   .     A
C692   H730    1.074   .     S
C692   C694    1.386   .     A
C692   C719    1.415   .     A
C693   F745    1.359   .     S
C693   C1491   1.394   1_554 S
C694   F746    1.358   .     S
C694   C1492   1.394   .     S
C695   C700    1.396   .     A
C695   H731    1.084   .     S
C696   H732    1.084   .     S
C696   C182    1.391   1_565 S
C697   C699    1.414   .     A
C697   C747    1.517   .     S
C697   C179    1.391   1_565 S
C698   C754    1.516   .     S
C699   C524    1.397   1_655 S
C700   C517    1.442   1_655 S
C700   C526    1.412   1_655 S
C701   C761    1.523   .     S
C701   C703    1.424   .     A
C701   N736    1.399   .     A
C702   C768    1.524   .     S
C702   C704    1.425   .     A
C702   N735    1.400   .     A
C703   N735    1.350   .     A
C703   H733    1.078   .     S
C704   N736    1.350   .     A
C704   H734    1.078   .     S
C705   O743    1.303   .     A
C705   C707    1.465   .     S
C705   O569    1.302   1_655 S
C706   O744    1.304   .     A
C706   C708    1.467   .     S
C707   C711    1.398   .     A
C707   C713    1.395   .     A
C708   C712    1.399   .     A
C708   C714    1.397   .     A
C709   C711    1.391   .     A
C709   C717    1.405   .     A
C709   H727    1.083   .     S
C710   C712    1.391   .     A
C710   C718    1.405   .     A
C711   H554    1.083   1_655 S
C713   C715    1.406   .     A
C713   H724    1.075   .     S
C714   C716    1.406   .     A
C714   H723    1.075   .     S
C715   C717    1.420   .     A
C715   C719    1.426   .     A
C716   C720    1.426   .     A
C716   C718    1.419   .     A
C717   C1467   1.394   .     S
C718   C1468   1.394   1_554 S
C719   C1494   1.422   .     S
C720   C1493   1.422   1_554 S
Cu721  O740    1.958   .     S
Cu721  O737    1.949   .     S
Cu721  O744    1.949   .     S
Cu721  O741    1.958   .     S
Cu721  N735    2.032   .     S
Cu722  O739    1.958   .     S
Cu722  O743    1.949   .     S
Cu722  O738    1.949   .     S
Cu722  O742    1.958   .     S
Cu722  N736    2.032   .     S
Cu722  Cu549   2.704   1_655 S
H725   C540    1.083   1_655 S
H728   C538    1.083   1_655 S
O739   C517    1.300   1_655 S
O742   C534    1.302   1_655 S
C747   H753    1.108   .     S
C747   H752    1.112   .     S
C747   C748    1.525   .     S
C748   H751    1.111   .     S
C748   H750    1.109   .     S
C748   H749    1.110   .     S
C754   H760    1.109   .     S
C754   C755    1.527   .     S
C754   H759    1.112   .     S
C755   H756    1.110   .     S
C755   H757    1.110   .     S
C755   H758    1.111   .     S
C761   C762    1.534   .     S
C761   H766    1.111   .     S
C761   H767    1.093   .     S
C762   H765    1.111   .     S
C762   H763    1.110   .     S
C762   H764    1.110   .     S
C768   H774    1.110   .     S
C768   H773    1.095   .     S
C768   C769    1.534   .     S
C769   H770    1.111   .     S
C769   H771    1.110   .     S
C769   H772    1.111   .     S
C775   O823    1.293   .     A
C775   C958    1.442   1_455 S
C775   O997    1.300   1_455 S
C776   O824    1.293   .     A
C776   C785    1.445   .     S
C776   O912    1.301   .     S
C777   H815    1.074   .     S
C777   C779    1.386   .     A
C777   C806    1.415   .     A
C778   H816    1.074   .     S
C778   C780    1.386   .     A
C778   C805    1.415   .     A
C779   F831    1.359   .     S
C780   F832    1.358   .     S
C780   C30     1.394   1_556 S
C781   C786    1.396   .     A
C781   H817    1.084   .     S
C781   C1299   1.391   1_545 S
C782   H818    1.084   .     S
C782   C1042   1.391   .     S
C782   C957    1.397   1_455 S
C783   C785    1.414   .     A
C783   C833    1.517   .     S
C783   C1039   1.391   .     S
C784   C840    1.516   .     S
C784   C1298   1.391   1_545 S
C784   C958    1.412   1_455 S
C785   C868    1.397   .     S
C786   C861    1.442   .     S
C786   C870    1.412   .     S
C787   C847    1.523   .     S
C787   C789    1.424   .     A
C787   N822    1.399   .     A
C788   C854    1.524   .     S
C788   C790    1.425   .     A
C788   N821    1.400   .     A
C789   N821    1.350   .     A
C789   H819    1.078   .     S
C790   N822    1.350   .     A
C790   H820    1.078   .     S
C791   O829    1.303   .     A
C791   C793    1.465   .     S
C791   O913    1.302   .     S
C792   O830    1.304   .     A
C792   C794    1.467   .     S
C792   O1000   1.302   1_455 S
C793   C797    1.398   .     A
C793   C799    1.395   .     A
C794   C798    1.399   .     A
C794   C800    1.397   .     A
C795   C797    1.391   .     A
C795   C803    1.405   .     A
C795   H813    1.083   .     S
C796   C798    1.391   .     A
C796   C804    1.405   .     A
C796   H986    1.083   1_455 S
C797   H898    1.083   .     S
C798   H983    1.083   1_455 S
C799   C801    1.406   .     A
C799   H810    1.075   .     S
C800   C802    1.406   .     A
C800   H809    1.075   .     S
C801   C803    1.420   .     A
C801   C805    1.426   .     A
C802   C806    1.426   .     A
C802   C804    1.419   .     A
C803   C5      1.394   1_556 S
C805   C32     1.422   1_556 S
Cu807  O826    1.958   .     S
Cu807  O823    1.949   .     S
Cu807  O830    1.949   .     S
Cu807  O827    1.958   .     S
Cu807  N821    2.032   .     S
Cu807  Cu980   2.704   1_455 S
Cu808  O825    1.958   .     S
Cu808  O829    1.949   .     S
Cu808  O824    1.949   .     S
Cu808  O828    1.958   .     S
Cu808  N822    2.032   .     S
Cu808  Cu893   2.704   .     S
H811   C884    1.083   .     S
H812   C969    1.083   1_455 S
H814   C882    1.083   .     S
O825   C861    1.300   .     S
O826   C948    1.301   1_455 S
O827   C963    1.302   1_455 S
O828   C878    1.302   .     S
C833   H839    1.108   .     S
C833   H838    1.112   .     S
C833   C834    1.525   .     S
C834   H837    1.111   .     S
C834   H836    1.109   .     S
C834   H835    1.110   .     S
C840   H846    1.109   .     S
C840   C841    1.527   .     S
C840   H845    1.112   .     S
C841   H842    1.110   .     S
C841   H843    1.110   .     S
C841   H844    1.111   .     S
C847   C848    1.534   .     S
C847   H852    1.111   .     S
C847   H853    1.093   .     S
C848   H851    1.111   .     S
C848   H849    1.110   .     S
C848   H850    1.110   .     S
C854   H860    1.110   .     S
C854   H859    1.095   .     S
C854   C855    1.534   .     S
C855   H856    1.111   .     S
C855   H857    1.110   .     S
C855   H858    1.111   .     S
C861   O909    1.293   .     A
C862   O910    1.293   .     A
C862   C871    1.445   .     S
C862   O998    1.301   .     S
C863   H901    1.074   .     S
C863   C865    1.386   .     A
C863   C892    1.415   .     A
C864   H902    1.074   .     S
C864   C866    1.386   .     A
C864   C891    1.415   .     A
C865   F917    1.359   .     S
C866   F918    1.358   .     S
C866   C116    1.394   1_556 S
C867   C872    1.396   .     A
C867   H903    1.084   .     S
C867   C1385   1.391   1_545 S
C868   H904    1.084   .     S
C868   C1128   1.391   .     S
C869   C871    1.414   .     A
C869   C919    1.517   .     S
C869   C1125   1.391   .     S
C870   C926    1.516   .     S
C870   C1384   1.391   1_545 S
C871   C954    1.397   .     S
C872   C947    1.442   .     S
C872   C956    1.412   .     S
C873   C933    1.523   .     S
C873   C875    1.424   .     A
C873   N908    1.399   .     A
C874   C940    1.524   .     S
C874   C876    1.425   .     A
C874   N907    1.400   .     A
C875   N907    1.350   .     A
C875   H905    1.078   .     S
C876   N908    1.350   .     A
C876   H906    1.078   .     S
C877   O915    1.303   .     A
C877   C879    1.465   .     S
C877   O999    1.302   .     S
C878   O916    1.304   .     A
C878   C880    1.467   .     S
C879   C883    1.398   .     A
C879   C885    1.395   .     A
C880   C884    1.399   .     A
C880   C886    1.397   .     A
C881   C883    1.391   .     A
C881   C889    1.405   .     A
C881   H899    1.083   .     S
C882   C884    1.391   .     A
C882   C890    1.405   .     A
C883   H984    1.083   .     S
C885   C887    1.406   .     A
C885   H896    1.075   .     S
C886   C888    1.406   .     A
C886   H895    1.075   .     S
C887   C889    1.420   .     A
C887   C891    1.426   .     A
C888   C892    1.426   .     A
C888   C890    1.419   .     A
C889   C91     1.394   1_556 S
C891   C118    1.422   1_556 S
Cu893  O912    1.958   .     S
Cu893  O909    1.949   .     S
Cu893  O916    1.949   .     S
Cu893  O913    1.958   .     S
Cu893  N907    2.032   .     S
Cu894  O911    1.958   .     S
Cu894  O915    1.949   .     S
Cu894  O910    1.949   .     S
Cu894  O914    1.958   .     S
Cu894  N908    2.032   .     S
Cu894  Cu979   2.704   .     S
H897   C970    1.083   .     S
H900   C968    1.083   .     S
O911   C947    1.300   .     S
O914   C964    1.302   .     S
C919   H925    1.108   .     S
C919   H924    1.112   .     S
C919   C920    1.525   .     S
C920   H923    1.111   .     S
C920   H922    1.109   .     S
C920   H921    1.110   .     S
C926   H932    1.109   .     S
C926   C927    1.527   .     S
C926   H931    1.112   .     S
C927   H928    1.110   .     S
C927   H929    1.110   .     S
C927   H930    1.111   .     S
C933   C934    1.534   .     S
C933   H938    1.111   .     S
C933   H939    1.093   .     S
C934   H937    1.111   .     S
C934   H935    1.110   .     S
C934   H936    1.110   .     S
C940   H946    1.110   .     S
C940   H945    1.095   .     S
C940   C941    1.534   .     S
C941   H942    1.111   .     S
C941   H943    1.110   .     S
C941   H944    1.111   .     S
C947   O995    1.293   .     A
C948   O996    1.293   .     A
C948   C957    1.445   .     S
C948   O826    1.301   1_655 S
C949   H987    1.074   .     S
C949   C951    1.386   .     A
C949   C978    1.415   .     A
C950   H988    1.074   .     S
C950   C952    1.386   .     A
C950   C977    1.415   .     A
C951   F1003   1.359   .     S
C952   F1004   1.358   .     S
C952   C202    1.394   1_556 S
C953   C958    1.396   .     A
C953   H989    1.084   .     S
C953   C1471   1.391   1_545 S
C954   H990    1.084   .     S
C954   C1214   1.391   .     S
C955   C957    1.414   .     A
C955   C1005   1.517   .     S
C955   C1211   1.391   .     S
C956   C1012   1.516   .     S
C956   C1470   1.391   1_545 S
C957   C782    1.397   1_655 S
C958   C775    1.442   1_655 S
C958   C784    1.412   1_655 S
C959   C1019   1.523   .     S
C959   C961    1.424   .     A
C959   N994    1.399   .     A
C960   C1026   1.524   .     S
C960   C962    1.425   .     A
C960   N993    1.400   .     A
C961   N993    1.350   .     A
C961   H991    1.078   .     S
C962   N994    1.350   .     A
C962   H992    1.078   .     S
C963   O1001   1.303   .     A
C963   C965    1.465   .     S
C963   O827    1.302   1_655 S
C964   O1002   1.304   .     A
C964   C966    1.467   .     S
C965   C969    1.398   .     A
C965   C971    1.395   .     A
C966   C970    1.399   .     A
C966   C972    1.397   .     A
C967   C969    1.391   .     A
C967   C975    1.405   .     A
C967   H985    1.083   .     S
C968   C970    1.391   .     A
C968   C976    1.405   .     A
C969   H812    1.083   1_655 S
C971   C973    1.406   .     A
C971   H982    1.075   .     S
C972   C974    1.406   .     A
C972   H981    1.075   .     S
C973   C975    1.420   .     A
C973   C977    1.426   .     A
C974   C978    1.426   .     A
C974   C976    1.419   .     A
C975   C177    1.394   1_556 S
C977   C204    1.422   1_556 S
Cu979  O998    1.958   .     S
Cu979  O995    1.949   .     S
Cu979  O1002   1.949   .     S
Cu979  O999    1.958   .     S
Cu979  N993    2.032   .     S
Cu980  O997    1.958   .     S
Cu980  O1001   1.949   .     S
Cu980  O996    1.949   .     S
Cu980  O1000   1.958   .     S
Cu980  N994    2.032   .     S
Cu980  Cu807   2.704   1_655 S
H983   C798    1.083   1_655 S
H986   C796    1.083   1_655 S
O997   C775    1.300   1_655 S
O1000  C792    1.302   1_655 S
C1005  H1011   1.108   .     S
C1005  H1010   1.112   .     S
C1005  C1006   1.525   .     S
C1006  H1009   1.111   .     S
C1006  H1008   1.109   .     S
C1006  H1007   1.110   .     S
C1012  H1018   1.109   .     S
C1012  C1013   1.527   .     S
C1012  H1017   1.112   .     S
C1013  H1014   1.110   .     S
C1013  H1015   1.110   .     S
C1013  H1016   1.111   .     S
C1019  C1020   1.534   .     S
C1019  H1024   1.111   .     S
C1019  H1025   1.093   .     S
C1020  H1023   1.111   .     S
C1020  H1021   1.110   .     S
C1020  H1022   1.110   .     S
C1026  H1032   1.110   .     S
C1026  H1031   1.095   .     S
C1026  C1027   1.534   .     S
C1027  H1028   1.111   .     S
C1027  H1029   1.110   .     S
C1027  H1030   1.111   .     S
C1033  O1081   1.293   .     A
C1033  C1216   1.442   1_455 S
C1033  O1255   1.300   1_455 S
C1034  O1082   1.293   .     A
C1034  C1043   1.445   .     S
C1034  O1170   1.301   .     S
C1035  H1073   1.074   .     S
C1035  C1037   1.386   .     A
C1035  C1064   1.415   .     A
C1036  H1074   1.074   .     S
C1036  C1038   1.386   .     A
C1036  C1063   1.415   .     A
C1037  F1089   1.359   .     S
C1038  F1090   1.358   .     S
C1038  C288    1.394   1_556 S
C1039  C1044   1.396   .     A
C1039  H1075   1.084   .     S
C1040  H1076   1.084   .     S
C1040  C1300   1.391   .     S
C1040  C1215   1.397   1_455 S
C1041  C1043   1.414   .     A
C1041  C1091   1.517   .     S
C1041  C1297   1.391   .     S
C1042  C1098   1.516   .     S
C1042  C1216   1.412   1_455 S
C1043  C1126   1.397   .     S
C1044  C1119   1.442   .     S
C1044  C1128   1.412   .     S
C1045  C1105   1.523   .     S
C1045  C1047   1.424   .     A
C1045  N1080   1.399   .     A
C1046  C1112   1.524   .     S
C1046  C1048   1.425   .     A
C1046  N1079   1.400   .     A
C1047  N1079   1.350   .     A
C1047  H1077   1.078   .     S
C1048  N1080   1.350   .     A
C1048  H1078   1.078   .     S
C1049  O1087   1.303   .     A
C1049  C1051   1.465   .     S
C1049  O1171   1.302   .     S
C1050  O1088   1.304   .     A
C1050  C1052   1.467   .     S
C1050  O1258   1.302   1_455 S
C1051  C1055   1.398   .     A
C1051  C1057   1.395   .     A
C1052  C1056   1.399   .     A
C1052  C1058   1.397   .     A
C1053  C1055   1.391   .     A
C1053  C1061   1.405   .     A
C1053  H1071   1.083   .     S
C1054  C1056   1.391   .     A
C1054  C1062   1.405   .     A
C1054  H1244   1.083   1_455 S
C1055  H1156   1.083   .     S
C1056  H1241   1.083   1_455 S
C1057  C1059   1.406   .     A
C1057  H1068   1.075   .     S
C1058  C1060   1.406   .     A
C1058  H1067   1.075   .     S
C1059  C1061   1.420   .     A
C1059  C1063   1.426   .     A
C1060  C1064   1.426   .     A
C1060  C1062   1.419   .     A
C1061  C263    1.394   1_556 S
C1063  C290    1.422   1_556 S
Cu1065 O1084   1.958   .     S
Cu1065 O1081   1.949   .     S
Cu1065 O1088   1.949   .     S
Cu1065 O1085   1.958   .     S
Cu1065 N1079   2.032   .     S
Cu1065 Cu1238  2.704   1_455 S
Cu1066 O1083   1.958   .     S
Cu1066 O1087   1.949   .     S
Cu1066 O1082   1.949   .     S
Cu1066 O1086   1.958   .     S
Cu1066 N1080   2.032   .     S
Cu1066 Cu1151  2.704   .     S
H1069  C1142   1.083   .     S
H1070  C1227   1.083   1_455 S
H1072  C1140   1.083   .     S
O1083  C1119   1.300   .     S
O1084  C1206   1.301   1_455 S
O1085  C1221   1.302   1_455 S
O1086  C1136   1.302   .     S
C1091  H1097   1.108   .     S
C1091  H1096   1.112   .     S
C1091  C1092   1.525   .     S
C1092  H1095   1.111   .     S
C1092  H1094   1.109   .     S
C1092  H1093   1.110   .     S
C1098  H1104   1.109   .     S
C1098  C1099   1.527   .     S
C1098  H1103   1.112   .     S
C1099  H1100   1.110   .     S
C1099  H1101   1.110   .     S
C1099  H1102   1.111   .     S
C1105  C1106   1.534   .     S
C1105  H1110   1.111   .     S
C1105  H1111   1.093   .     S
C1106  H1109   1.111   .     S
C1106  H1107   1.110   .     S
C1106  H1108   1.110   .     S
C1112  H1118   1.110   .     S
C1112  H1117   1.095   .     S
C1112  C1113   1.534   .     S
C1113  H1114   1.111   .     S
C1113  H1115   1.110   .     S
C1113  H1116   1.111   .     S
C1119  O1167   1.293   .     A
C1120  O1168   1.293   .     A
C1120  C1129   1.445   .     S
C1120  O1256   1.301   .     S
C1121  H1159   1.074   .     S
C1121  C1123   1.386   .     A
C1121  C1150   1.415   .     A
C1122  H1160   1.074   .     S
C1122  C1124   1.386   .     A
C1122  C1149   1.415   .     A
C1123  F1175   1.359   .     S
C1124  F1176   1.358   .     S
C1124  C374    1.394   1_556 S
C1125  C1130   1.396   .     A
C1125  H1161   1.084   .     S
C1126  H1162   1.084   .     S
C1126  C1386   1.391   .     S
C1127  C1129   1.414   .     A
C1127  C1177   1.517   .     S
C1127  C1383   1.391   .     S
C1128  C1184   1.516   .     S
C1129  C1212   1.397   .     S
C1130  C1205   1.442   .     S
C1130  C1214   1.412   .     S
C1131  C1191   1.523   .     S
C1131  C1133   1.424   .     A
C1131  N1166   1.399   .     A
C1132  C1198   1.524   .     S
C1132  C1134   1.425   .     A
C1132  N1165   1.400   .     A
C1133  N1165   1.350   .     A
C1133  H1163   1.078   .     S
C1134  N1166   1.350   .     A
C1134  H1164   1.078   .     S
C1135  O1173   1.303   .     A
C1135  C1137   1.465   .     S
C1135  O1257   1.302   .     S
C1136  O1174   1.304   .     A
C1136  C1138   1.467   .     S
C1137  C1141   1.398   .     A
C1137  C1143   1.395   .     A
C1138  C1142   1.399   .     A
C1138  C1144   1.397   .     A
C1139  C1141   1.391   .     A
C1139  C1147   1.405   .     A
C1139  H1157   1.083   .     S
C1140  C1142   1.391   .     A
C1140  C1148   1.405   .     A
C1141  H1242   1.083   .     S
C1143  C1145   1.406   .     A
C1143  H1154   1.075   .     S
C1144  C1146   1.406   .     A
C1144  H1153   1.075   .     S
C1145  C1147   1.420   .     A
C1145  C1149   1.426   .     A
C1146  C1150   1.426   .     A
C1146  C1148   1.419   .     A
C1147  C349    1.394   1_556 S
C1149  C376    1.422   1_556 S
Cu1151 O1170   1.958   .     S
Cu1151 O1167   1.949   .     S
Cu1151 O1174   1.949   .     S
Cu1151 O1171   1.958   .     S
Cu1151 N1165   2.032   .     S
Cu1152 O1169   1.958   .     S
Cu1152 O1173   1.949   .     S
Cu1152 O1168   1.949   .     S
Cu1152 O1172   1.958   .     S
Cu1152 N1166   2.032   .     S
Cu1152 Cu1237  2.704   .     S
H1155  C1228   1.083   .     S
H1158  C1226   1.083   .     S
O1169  C1205   1.300   .     S
O1172  C1222   1.302   .     S
C1177  H1183   1.108   .     S
C1177  H1182   1.112   .     S
C1177  C1178   1.525   .     S
C1178  H1181   1.111   .     S
C1178  H1180   1.109   .     S
C1178  H1179   1.110   .     S
C1184  H1190   1.109   .     S
C1184  C1185   1.527   .     S
C1184  H1189   1.112   .     S
C1185  H1186   1.110   .     S
C1185  H1187   1.110   .     S
C1185  H1188   1.111   .     S
C1191  C1192   1.534   .     S
C1191  H1196   1.111   .     S
C1191  H1197   1.093   .     S
C1192  H1195   1.111   .     S
C1192  H1193   1.110   .     S
C1192  H1194   1.110   .     S
C1198  H1204   1.110   .     S
C1198  H1203   1.095   .     S
C1198  C1199   1.534   .     S
C1199  H1200   1.111   .     S
C1199  H1201   1.110   .     S
C1199  H1202   1.111   .     S
C1205  O1253   1.293   .     A
C1206  O1254   1.293   .     A
C1206  C1215   1.445   .     S
C1206  O1084   1.301   1_655 S
C1207  H1245   1.074   .     S
C1207  C1209   1.386   .     A
C1207  C1236   1.415   .     A
C1208  H1246   1.074   .     S
C1208  C1210   1.386   .     A
C1208  C1235   1.415   .     A
C1209  F1261   1.359   .     S
C1210  F1262   1.358   .     S
C1210  C460    1.394   1_556 S
C1211  C1216   1.396   .     A
C1211  H1247   1.084   .     S
C1212  H1248   1.084   .     S
C1212  C1472   1.391   .     S
C1213  C1215   1.414   .     A
C1213  C1263   1.517   .     S
C1213  C1469   1.391   .     S
C1214  C1270   1.516   .     S
C1215  C1040   1.397   1_655 S
C1216  C1033   1.442   1_655 S
C1216  C1042   1.412   1_655 S
C1217  C1277   1.523   .     S
C1217  C1219   1.424   .     A
C1217  N1252   1.399   .     A
C1218  C1284   1.524   .     S
C1218  C1220   1.425   .     A
C1218  N1251   1.400   .     A
C1219  N1251   1.350   .     A
C1219  H1249   1.078   .     S
C1220  N1252   1.350   .     A
C1220  H1250   1.078   .     S
C1221  O1259   1.303   .     A
C1221  C1223   1.465   .     S
C1221  O1085   1.302   1_655 S
C1222  O1260   1.304   .     A
C1222  C1224   1.467   .     S
C1223  C1227   1.398   .     A
C1223  C1229   1.395   .     A
C1224  C1228   1.399   .     A
C1224  C1230   1.397   .     A
C1225  C1227   1.391   .     A
C1225  C1233   1.405   .     A
C1225  H1243   1.083   .     S
C1226  C1228   1.391   .     A
C1226  C1234   1.405   .     A
C1227  H1070   1.083   1_655 S
C1229  C1231   1.406   .     A
C1229  H1240   1.075   .     S
C1230  C1232   1.406   .     A
C1230  H1239   1.075   .     S
C1231  C1233   1.420   .     A
C1231  C1235   1.426   .     A
C1232  C1236   1.426   .     A
C1232  C1234   1.419   .     A
C1233  C435    1.394   1_556 S
C1235  C462    1.422   1_556 S
Cu1237 O1256   1.958   .     S
Cu1237 O1253   1.949   .     S
Cu1237 O1260   1.949   .     S
Cu1237 O1257   1.958   .     S
Cu1237 N1251   2.032   .     S
Cu1238 O1255   1.958   .     S
Cu1238 O1259   1.949   .     S
Cu1238 O1254   1.949   .     S
Cu1238 O1258   1.958   .     S
Cu1238 N1252   2.032   .     S
Cu1238 Cu1065  2.704   1_655 S
H1241  C1056   1.083   1_655 S
H1244  C1054   1.083   1_655 S
O1255  C1033   1.300   1_655 S
O1258  C1050   1.302   1_655 S
C1263  H1269   1.108   .     S
C1263  H1268   1.112   .     S
C1263  C1264   1.525   .     S
C1264  H1267   1.111   .     S
C1264  H1266   1.109   .     S
C1264  H1265   1.110   .     S
C1270  H1276   1.109   .     S
C1270  C1271   1.527   .     S
C1270  H1275   1.112   .     S
C1271  H1272   1.110   .     S
C1271  H1273   1.110   .     S
C1271  H1274   1.111   .     S
C1277  C1278   1.534   .     S
C1277  H1282   1.111   .     S
C1277  H1283   1.093   .     S
C1278  H1281   1.111   .     S
C1278  H1279   1.110   .     S
C1278  H1280   1.110   .     S
C1284  H1290   1.110   .     S
C1284  H1289   1.095   .     S
C1284  C1285   1.534   .     S
C1285  H1286   1.111   .     S
C1285  H1287   1.110   .     S
C1285  H1288   1.111   .     S
C1291  O1339   1.293   .     A
C1291  C1474   1.442   1_455 S
C1291  O1513   1.300   1_455 S
C1292  O1340   1.293   .     A
C1292  C1301   1.445   .     S
C1292  O1428   1.301   .     S
C1293  H1331   1.074   .     S
C1293  C1295   1.386   .     A
C1293  C1322   1.415   .     A
C1294  H1332   1.074   .     S
C1294  C1296   1.386   .     A
C1294  C1321   1.415   .     A
C1295  F1347   1.359   .     S
C1296  F1348   1.358   .     S
C1296  C546    1.394   1_556 S
C1297  C1302   1.396   .     A
C1297  H1333   1.084   .     S
C1298  H1334   1.084   .     S
C1298  C784    1.391   1_565 S
C1298  C1473   1.397   1_455 S
C1299  C1301   1.414   .     A
C1299  C1349   1.517   .     S
C1299  C781    1.391   1_565 S
C1300  C1356   1.516   .     S
C1300  C1474   1.412   1_455 S
C1301  C1384   1.397   .     S
C1302  C1377   1.442   .     S
C1302  C1386   1.412   .     S
C1303  C1363   1.523   .     S
C1303  C1305   1.424   .     A
C1303  N1338   1.399   .     A
C1304  C1370   1.524   .     S
C1304  C1306   1.425   .     A
C1304  N1337   1.400   .     A
C1305  N1337   1.350   .     A
C1305  H1335   1.078   .     S
C1306  N1338   1.350   .     A
C1306  H1336   1.078   .     S
C1307  O1345   1.303   .     A
C1307  C1309   1.465   .     S
C1307  O1429   1.302   .     S
C1308  O1346   1.304   .     A
C1308  C1310   1.467   .     S
C1308  O1516   1.302   1_455 S
C1309  C1313   1.398   .     A
C1309  C1315   1.395   .     A
C1310  C1314   1.399   .     A
C1310  C1316   1.397   .     A
C1311  C1313   1.391   .     A
C1311  C1319   1.405   .     A
C1311  H1329   1.083   .     S
C1312  C1314   1.391   .     A
C1312  C1320   1.405   .     A
C1312  H1502   1.083   1_455 S
C1313  H1414   1.083   .     S
C1314  H1499   1.083   1_455 S
C1315  C1317   1.406   .     A
C1315  H1326   1.075   .     S
C1316  C1318   1.406   .     A
C1316  H1325   1.075   .     S
C1317  C1319   1.420   .     A
C1317  C1321   1.426   .     A
C1318  C1322   1.426   .     A
C1318  C1320   1.419   .     A
C1319  C521    1.394   1_556 S
C1321  C548    1.422   1_556 S
Cu1323 O1342   1.958   .     S
Cu1323 O1339   1.949   .     S
Cu1323 O1346   1.949   .     S
Cu1323 O1343   1.958   .     S
Cu1323 N1337   2.032   .     S
Cu1323 Cu1496  2.704   1_455 S
Cu1324 O1341   1.958   .     S
Cu1324 O1345   1.949   .     S
Cu1324 O1340   1.949   .     S
Cu1324 O1344   1.958   .     S
Cu1324 N1338   2.032   .     S
Cu1324 Cu1409  2.704   .     S
H1327  C1400   1.083   .     S
H1328  C1485   1.083   1_455 S
H1330  C1398   1.083   .     S
O1341  C1377   1.300   .     S
O1342  C1464   1.301   1_455 S
O1343  C1479   1.302   1_455 S
O1344  C1394   1.302   .     S
C1349  H1355   1.108   .     S
C1349  H1354   1.112   .     S
C1349  C1350   1.525   .     S
C1350  H1353   1.111   .     S
C1350  H1352   1.109   .     S
C1350  H1351   1.110   .     S
C1356  H1362   1.109   .     S
C1356  C1357   1.527   .     S
C1356  H1361   1.112   .     S
C1357  H1358   1.110   .     S
C1357  H1359   1.110   .     S
C1357  H1360   1.111   .     S
C1363  C1364   1.534   .     S
C1363  H1368   1.111   .     S
C1363  H1369   1.093   .     S
C1364  H1367   1.111   .     S
C1364  H1365   1.110   .     S
C1364  H1366   1.110   .     S
C1370  H1376   1.110   .     S
C1370  H1375   1.095   .     S
C1370  C1371   1.534   .     S
C1371  H1372   1.111   .     S
C1371  H1373   1.110   .     S
C1371  H1374   1.111   .     S
C1377  O1425   1.293   .     A
C1378  O1426   1.293   .     A
C1378  C1387   1.445   .     S
C1378  O1514   1.301   .     S
C1379  H1417   1.074   .     S
C1379  C1381   1.386   .     A
C1379  C1408   1.415   .     A
C1380  H1418   1.074   .     S
C1380  C1382   1.386   .     A
C1380  C1407   1.415   .     A
C1381  F1433   1.359   .     S
C1382  F1434   1.358   .     S
C1382  C632    1.394   1_556 S
C1383  C1388   1.396   .     A
C1383  H1419   1.084   .     S
C1384  H1420   1.084   .     S
C1384  C870    1.391   1_565 S
C1385  C1387   1.414   .     A
C1385  C1435   1.517   .     S
C1385  C867    1.391   1_565 S
C1386  C1442   1.516   .     S
C1387  C1470   1.397   .     S
C1388  C1463   1.442   .     S
C1388  C1472   1.412   .     S
C1389  C1449   1.523   .     S
C1389  C1391   1.424   .     A
C1389  N1424   1.399   .     A
C1390  C1456   1.524   .     S
C1390  C1392   1.425   .     A
C1390  N1423   1.400   .     A
C1391  N1423   1.350   .     A
C1391  H1421   1.078   .     S
C1392  N1424   1.350   .     A
C1392  H1422   1.078   .     S
C1393  O1431   1.303   .     A
C1393  C1395   1.465   .     S
C1393  O1515   1.302   .     S
C1394  O1432   1.304   .     A
C1394  C1396   1.467   .     S
C1395  C1399   1.398   .     A
C1395  C1401   1.395   .     A
C1396  C1400   1.399   .     A
C1396  C1402   1.397   .     A
C1397  C1399   1.391   .     A
C1397  C1405   1.405   .     A
C1397  H1415   1.083   .     S
C1398  C1400   1.391   .     A
C1398  C1406   1.405   .     A
C1399  H1500   1.083   .     S
C1401  C1403   1.406   .     A
C1401  H1412   1.075   .     S
C1402  C1404   1.406   .     A
C1402  H1411   1.075   .     S
C1403  C1405   1.420   .     A
C1403  C1407   1.426   .     A
C1404  C1408   1.426   .     A
C1404  C1406   1.419   .     A
C1405  C607    1.394   1_556 S
C1407  C634    1.422   1_556 S
Cu1409 O1428   1.958   .     S
Cu1409 O1425   1.949   .     S
Cu1409 O1432   1.949   .     S
Cu1409 O1429   1.958   .     S
Cu1409 N1423   2.032   .     S
Cu1410 O1427   1.958   .     S
Cu1410 O1431   1.949   .     S
Cu1410 O1426   1.949   .     S
Cu1410 O1430   1.958   .     S
Cu1410 N1424   2.032   .     S
Cu1410 Cu1495  2.704   .     S
H1413  C1486   1.083   .     S
H1416  C1484   1.083   .     S
O1427  C1463   1.300   .     S
O1430  C1480   1.302   .     S
C1435  H1441   1.108   .     S
C1435  H1440   1.112   .     S
C1435  C1436   1.525   .     S
C1436  H1439   1.111   .     S
C1436  H1438   1.109   .     S
C1436  H1437   1.110   .     S
C1442  H1448   1.109   .     S
C1442  C1443   1.527   .     S
C1442  H1447   1.112   .     S
C1443  H1444   1.110   .     S
C1443  H1445   1.110   .     S
C1443  H1446   1.111   .     S
C1449  C1450   1.534   .     S
C1449  H1454   1.111   .     S
C1449  H1455   1.093   .     S
C1450  H1453   1.111   .     S
C1450  H1451   1.110   .     S
C1450  H1452   1.110   .     S
C1456  H1462   1.110   .     S
C1456  H1461   1.095   .     S
C1456  C1457   1.534   .     S
C1457  H1458   1.111   .     S
C1457  H1459   1.110   .     S
C1457  H1460   1.111   .     S
C1463  O1511   1.293   .     A
C1464  O1512   1.293   .     A
C1464  C1473   1.445   .     S
C1464  O1342   1.301   1_655 S
C1465  H1503   1.074   .     S
C1465  C1467   1.386   .     A
C1465  C1494   1.415   .     A
C1466  H1504   1.074   .     S
C1466  C1468   1.386   .     A
C1466  C1493   1.415   .     A
C1467  F1519   1.359   .     S
C1468  F1520   1.358   .     S
C1468  C718    1.394   1_556 S
C1469  C1474   1.396   .     A
C1469  H1505   1.084   .     S
C1470  H1506   1.084   .     S
C1470  C956    1.391   1_565 S
C1471  C1473   1.414   .     A
C1471  C1521   1.517   .     S
C1471  C953    1.391   1_565 S
C1472  C1528   1.516   .     S
C1473  C1298   1.397   1_655 S
C1474  C1291   1.442   1_655 S
C1474  C1300   1.412   1_655 S
C1475  C1535   1.523   .     S
C1475  C1477   1.424   .     A
C1475  N1510   1.399   .     A
C1476  C1542   1.524   .     S
C1476  C1478   1.425   .     A
C1476  N1509   1.400   .     A
C1477  N1509   1.350   .     A
C1477  H1507   1.078   .     S
C1478  N1510   1.350   .     A
C1478  H1508   1.078   .     S
C1479  O1517   1.303   .     A
C1479  C1481   1.465   .     S
C1479  O1343   1.302   1_655 S
C1480  O1518   1.304   .     A
C1480  C1482   1.467   .     S
C1481  C1485   1.398   .     A
C1481  C1487   1.395   .     A
C1482  C1486   1.399   .     A
C1482  C1488   1.397   .     A
C1483  C1485   1.391   .     A
C1483  C1491   1.405   .     A
C1483  H1501   1.083   .     S
C1484  C1486   1.391   .     A
C1484  C1492   1.405   .     A
C1485  H1328   1.083   1_655 S
C1487  C1489   1.406   .     A
C1487  H1498   1.075   .     S
C1488  C1490   1.406   .     A
C1488  H1497   1.075   .     S
C1489  C1491   1.420   .     A
C1489  C1493   1.426   .     A
C1490  C1494   1.426   .     A
C1490  C1492   1.419   .     A
C1491  C693    1.394   1_556 S
C1493  C720    1.422   1_556 S
Cu1495 O1514   1.958   .     S
Cu1495 O1511   1.949   .     S
Cu1495 O1518   1.949   .     S
Cu1495 O1515   1.958   .     S
Cu1495 N1509   2.032   .     S
Cu1496 O1513   1.958   .     S
Cu1496 O1517   1.949   .     S
Cu1496 O1512   1.949   .     S
Cu1496 O1516   1.958   .     S
Cu1496 N1510   2.032   .     S
Cu1496 Cu1323  2.704   1_655 S
H1499  C1314   1.083   1_655 S
H1502  C1312   1.083   1_655 S
O1513  C1291   1.300   1_655 S
O1516  C1308   1.302   1_655 S
C1521  H1527   1.108   .     S
C1521  H1526   1.112   .     S
C1521  C1522   1.525   .     S
C1522  H1525   1.111   .     S
C1522  H1524   1.109   .     S
C1522  H1523   1.110   .     S
C1528  H1534   1.109   .     S
C1528  C1529   1.527   .     S
C1528  H1533   1.112   .     S
C1529  H1530   1.110   .     S
C1529  H1531   1.110   .     S
C1529  H1532   1.111   .     S
C1535  C1536   1.534   .     S
C1535  H1540   1.111   .     S
C1535  H1541   1.093   .     S
C1536  H1539   1.111   .     S
C1536  H1537   1.110   .     S
C1536  H1538   1.110   .     S
C1542  H1548   1.110   .     S
C1542  H1547   1.095   .     S
C1542  C1543   1.534   .     S
C1543  H1544   1.111   .     S
C1543  H1545   1.110   .     S
C1543  H1546   1.111   .     S
