data_str_m2_o1_o17_pcu_sym.30
_audit_creation_date              2020-01-03
_audit_creation_method            'Materials Studio'
_symmetry_space_group_name_H-M    'P1'
_symmetry_Int_Tables_number       1
_symmetry_cell_setting            triclinic
loop_
_symmetry_equiv_pos_as_xyz
  x,y,z
_cell_length_a                    32.5299
_cell_length_b                    28.8310
_cell_length_c                    30.1584
_cell_angle_alpha                 90.0000
_cell_angle_beta                  93.1384
_cell_angle_gamma                 90.0000
loop_
_atom_site_label
_atom_site_type_symbol
_atom_site_fract_x
_atom_site_fract_y
_atom_site_fract_z
_atom_site_U_iso_or_equiv
_atom_site_adp_type
_atom_site_occupancy
C1     C     0.08754   0.16667   0.25171   0.00000  Uiso   1.00
C2     C     0.04301   0.16667   0.25455   0.00000  Uiso   1.00
C3     C     0.14210   0.02491   0.21965   0.00000  Uiso   1.00
C4     C     0.19432   0.30841   0.27712   0.00000  Uiso   1.00
C5     C     0.19432   0.02492   0.27712   0.00000  Uiso   1.00
C6     C     0.14210   0.30842   0.21965   0.00000  Uiso   1.00
C7     C     0.16664   0.16667   0.16433   0.00000  Uiso   1.00
C8     C     0.16469   0.16667   0.33549   0.00000  Uiso   1.00
C9     C     0.15873   0.20872   0.40687   0.00000  Uiso   1.00
C10    C     0.16522   0.12453   0.09241   0.00000  Uiso   1.00
C11    C     0.16070   0.16667   0.38371   0.00000  Uiso   1.00
C12    C     0.24592   0.16667   0.25059   0.00000  Uiso   1.00
C13    C     0.16590   0.16667   0.11573   0.00000  Uiso   1.00
C14    C     0.15873   0.12461   0.40687   0.00000  Uiso   1.00
C15    C     0.16521   0.20881   0.09241   0.00000  Uiso   1.00
C16    C     0.15917   0.12422   0.45309   0.00000  Uiso   1.00
C17    C     0.16290   0.20914   0.04614   0.00000  Uiso   1.00
C18    C     0.16002   0.16667   0.47635   0.00000  Uiso   1.00
C19    C     0.16180   0.16667   0.02289   0.00000  Uiso   1.00
C20    C     0.15916   0.20911   0.45309   0.00000  Uiso   1.00
C21    C     0.16290   0.12420   0.04614   0.00000  Uiso   1.00
C22    C     0.15961   0.08215   0.47643   0.00000  Uiso   1.00
C23    C     0.16160   0.08214   0.02274   0.00000  Uiso   1.00
C24    C     0.16160   0.25119   0.02274   0.00000  Uiso   1.00
C25    C     0.07825   0.05564   0.18333   0.00000  Uiso   1.00
C26    C     0.22699   0.27782   0.34661   0.00000  Uiso   1.00
C27    C     0.22700   0.05552   0.34660   0.00000  Uiso   1.00
C28    C     0.07825   0.27769   0.18333   0.00000  Uiso   1.00
C29    C     0.15961   0.25118   0.47643   0.00000  Uiso   1.00
C30    C     0.02150   0.12469   0.25569   0.00000  Uiso   1.00
C31    C     0.31225   0.20870   0.25385   0.00000  Uiso   1.00
C32    C     0.31225   0.12463   0.25385   0.00000  Uiso   1.00
C33    C     0.02150   0.20864   0.25569   0.00000  Uiso   1.00
C34    C     0.29067   0.16667   0.25241   0.00000  Uiso   1.00
Cu35   Cu    0.16667   0.21355   0.25000   0.00000  Uiso   1.00
Cu36   Cu    0.16667   0.11978   0.25000   0.00000  Uiso   1.00
H37    H     0.15705   0.09214   0.38907   0.00000  Uiso   1.00
H38    H     0.16658   0.09192   0.11013   0.00000  Uiso   1.00
H39    H     0.16225   0.04929   0.04025   0.00000  Uiso   1.00
H40    H     0.15895   0.28401   0.45889   0.00000  Uiso   1.00
H41    H     0.13239   0.03995   0.15284   0.00000  Uiso   1.00
H42    H     0.06299   0.03924   0.15351   0.00000  Uiso   1.00
H43    H     0.07102   0.09315   0.18113   0.00000  Uiso   1.00
H44    H     0.06539   0.04066   0.21346   0.00000  Uiso   1.00
H45    H     0.25610   0.29334   0.28871   0.00000  Uiso   1.00
H46    H     0.25439   0.29432   0.36345   0.00000  Uiso   1.00
H47    H     0.22909   0.24036   0.35460   0.00000  Uiso   1.00
H48    H     0.16658   0.24141   0.11013   0.00000  Uiso   1.00
H49    H     0.19879   0.29272   0.35996   0.00000  Uiso   1.00
H50    H     0.25610   0.04000   0.28871   0.00000  Uiso   1.00
H51    H     0.19880   0.04061   0.35996   0.00000  Uiso   1.00
H52    H     0.22909   0.09297   0.35460   0.00000  Uiso   1.00
H53    H     0.25440   0.03902   0.36345   0.00000  Uiso   1.00
H54    H     0.13239   0.29338   0.15284   0.00000  Uiso   1.00
H55    H     0.06299   0.29409   0.15351   0.00000  Uiso   1.00
H56    H     0.06539   0.29267   0.21346   0.00000  Uiso   1.00
H57    H     0.07102   0.24019   0.18113   0.00000  Uiso   1.00
H58    H     0.15895   0.04932   0.45889   0.00000  Uiso   1.00
H59    H     0.16225   0.28404   0.04025   0.00000  Uiso   1.00
H60    H     0.03741   0.09191   0.25796   0.00000  Uiso   1.00
H61    H     0.29642   0.24163   0.25320   0.00000  Uiso   1.00
H62    H     0.29642   0.09170   0.25320   0.00000  Uiso   1.00
H63    H     0.03741   0.24143   0.25796   0.00000  Uiso   1.00
H64    H     0.15704   0.24119   0.38907   0.00000  Uiso   1.00
N65    N     0.16667   0.28402   0.25000   0.00000  Uiso   1.00
N66    N     0.16667   0.04931   0.25000   0.00000  Uiso   1.00
N67    N     0.12237   0.04931   0.18339   0.00000  Uiso   1.00
N68    N     0.22760   0.28397   0.29903   0.00000  Uiso   1.00
N69    N     0.22760   0.04936   0.29903   0.00000  Uiso   1.00
N70    N     0.12237   0.28403   0.18339   0.00000  Uiso   1.00
O71    O     0.10655   0.20625   0.25000   0.00000  Uiso   1.00
O72    O     0.22679   0.12709   0.25001   0.00000  Uiso   1.00
O73    O     0.22679   0.20625   0.25001   0.00000  Uiso   1.00
O74    O     0.10655   0.12709   0.25000   0.00000  Uiso   1.00
O75    O     0.16666   0.20627   0.18513   0.00000  Uiso   1.00
O76    O     0.16668   0.12707   0.31487   0.00000  Uiso   1.00
O77    O     0.16668   0.20627   0.31487   0.00000  Uiso   1.00
O78    O     0.16666   0.12707   0.18513   0.00000  Uiso   1.00
C79    C     0.42087   0.16667   0.25171   0.00000  Uiso   1.00
C80    C     0.37634   0.16667   0.25455   0.00000  Uiso   1.00
C81    C     0.47543   0.02491   0.21965   0.00000  Uiso   1.00
C82    C     0.52766   0.30841   0.27712   0.00000  Uiso   1.00
C83    C     0.52766   0.02492   0.27712   0.00000  Uiso   1.00
C84    C     0.47543   0.30842   0.21965   0.00000  Uiso   1.00
C85    C     0.49997   0.16667   0.16433   0.00000  Uiso   1.00
C86    C     0.49802   0.16667   0.33549   0.00000  Uiso   1.00
C87    C     0.49206   0.20872   0.40687   0.00000  Uiso   1.00
C88    C     0.49855   0.12453   0.09241   0.00000  Uiso   1.00
C89    C     0.49404   0.16667   0.38371   0.00000  Uiso   1.00
C90    C     0.57926   0.16667   0.25059   0.00000  Uiso   1.00
C91    C     0.49924   0.16667   0.11573   0.00000  Uiso   1.00
C92    C     0.49206   0.12461   0.40687   0.00000  Uiso   1.00
C93    C     0.49855   0.20881   0.09241   0.00000  Uiso   1.00
C94    C     0.49250   0.12422   0.45309   0.00000  Uiso   1.00
C95    C     0.49623   0.20914   0.04614   0.00000  Uiso   1.00
C96    C     0.49335   0.16667   0.47635   0.00000  Uiso   1.00
C97    C     0.49514   0.16667   0.02289   0.00000  Uiso   1.00
C98    C     0.49250   0.20911   0.45309   0.00000  Uiso   1.00
C99    C     0.49623   0.12420   0.04614   0.00000  Uiso   1.00
C100   C     0.49294   0.08215   0.47643   0.00000  Uiso   1.00
C101   C     0.49493   0.08214   0.02274   0.00000  Uiso   1.00
C102   C     0.49493   0.25119   0.02274   0.00000  Uiso   1.00
C103   C     0.41159   0.05564   0.18333   0.00000  Uiso   1.00
C104   C     0.56033   0.27782   0.34661   0.00000  Uiso   1.00
C105   C     0.56033   0.05552   0.34660   0.00000  Uiso   1.00
C106   C     0.41159   0.27769   0.18333   0.00000  Uiso   1.00
C107   C     0.49294   0.25118   0.47643   0.00000  Uiso   1.00
C108   C     0.35483   0.12469   0.25569   0.00000  Uiso   1.00
C109   C     0.64558   0.20870   0.25385   0.00000  Uiso   1.00
C110   C     0.64558   0.12463   0.25385   0.00000  Uiso   1.00
C111   C     0.35483   0.20864   0.25569   0.00000  Uiso   1.00
C112   C     0.62400   0.16667   0.25241   0.00000  Uiso   1.00
Cu113  Cu    0.50000   0.21355   0.25000   0.00000  Uiso   1.00
Cu114  Cu    0.50000   0.11978   0.25000   0.00000  Uiso   1.00
H115   H     0.49038   0.09214   0.38907   0.00000  Uiso   1.00
H116   H     0.49991   0.09192   0.11013   0.00000  Uiso   1.00
H117   H     0.49559   0.04929   0.04025   0.00000  Uiso   1.00
H118   H     0.49228   0.28401   0.45889   0.00000  Uiso   1.00
H119   H     0.46573   0.03995   0.15284   0.00000  Uiso   1.00
H120   H     0.39633   0.03924   0.15351   0.00000  Uiso   1.00
H121   H     0.40435   0.09315   0.18113   0.00000  Uiso   1.00
H122   H     0.39872   0.04066   0.21346   0.00000  Uiso   1.00
H123   H     0.58943   0.29334   0.28871   0.00000  Uiso   1.00
H124   H     0.58773   0.29432   0.36345   0.00000  Uiso   1.00
H125   H     0.56242   0.24036   0.35460   0.00000  Uiso   1.00
H126   H     0.49991   0.24141   0.11013   0.00000  Uiso   1.00
H127   H     0.53213   0.29272   0.35996   0.00000  Uiso   1.00
H128   H     0.58943   0.04000   0.28871   0.00000  Uiso   1.00
H129   H     0.53213   0.04061   0.35996   0.00000  Uiso   1.00
H130   H     0.56242   0.09297   0.35460   0.00000  Uiso   1.00
H131   H     0.58773   0.03902   0.36345   0.00000  Uiso   1.00
H132   H     0.46573   0.29338   0.15284   0.00000  Uiso   1.00
H133   H     0.39633   0.29409   0.15351   0.00000  Uiso   1.00
H134   H     0.39872   0.29267   0.21346   0.00000  Uiso   1.00
H135   H     0.40435   0.24019   0.18113   0.00000  Uiso   1.00
H136   H     0.49228   0.04932   0.45889   0.00000  Uiso   1.00
H137   H     0.49558   0.28404   0.04025   0.00000  Uiso   1.00
H138   H     0.37074   0.09191   0.25796   0.00000  Uiso   1.00
H139   H     0.62975   0.24163   0.25320   0.00000  Uiso   1.00
H140   H     0.62975   0.09170   0.25320   0.00000  Uiso   1.00
H141   H     0.37074   0.24143   0.25796   0.00000  Uiso   1.00
H142   H     0.49038   0.24119   0.38907   0.00000  Uiso   1.00
N143   N     0.50000   0.28402   0.25000   0.00000  Uiso   1.00
N144   N     0.50000   0.04931   0.25000   0.00000  Uiso   1.00
N145   N     0.45570   0.04931   0.18339   0.00000  Uiso   1.00
N146   N     0.56094   0.28397   0.29903   0.00000  Uiso   1.00
N147   N     0.56094   0.04936   0.29903   0.00000  Uiso   1.00
N148   N     0.45570   0.28403   0.18339   0.00000  Uiso   1.00
O149   O     0.43988   0.20625   0.25000   0.00000  Uiso   1.00
O150   O     0.56012   0.12709   0.25001   0.00000  Uiso   1.00
O151   O     0.56012   0.20625   0.25001   0.00000  Uiso   1.00
O152   O     0.43988   0.12709   0.25000   0.00000  Uiso   1.00
O153   O     0.49999   0.20627   0.18513   0.00000  Uiso   1.00
O154   O     0.50001   0.12707   0.31487   0.00000  Uiso   1.00
O155   O     0.50001   0.20627   0.31487   0.00000  Uiso   1.00
O156   O     0.49999   0.12707   0.18513   0.00000  Uiso   1.00
C157   C     0.75421   0.16667   0.25171   0.00000  Uiso   1.00
C158   C     0.70967   0.16667   0.25455   0.00000  Uiso   1.00
C159   C     0.80876   0.02491   0.21965   0.00000  Uiso   1.00
C160   C     0.86099   0.30841   0.27712   0.00000  Uiso   1.00
C161   C     0.86099   0.02492   0.27712   0.00000  Uiso   1.00
C162   C     0.80876   0.30842   0.21965   0.00000  Uiso   1.00
C163   C     0.83330   0.16667   0.16433   0.00000  Uiso   1.00
C164   C     0.83136   0.16667   0.33549   0.00000  Uiso   1.00
C165   C     0.82539   0.20872   0.40687   0.00000  Uiso   1.00
C166   C     0.83188   0.12453   0.09241   0.00000  Uiso   1.00
C167   C     0.82737   0.16667   0.38371   0.00000  Uiso   1.00
C168   C     0.91259   0.16667   0.25059   0.00000  Uiso   1.00
C169   C     0.83257   0.16667   0.11573   0.00000  Uiso   1.00
C170   C     0.82539   0.12461   0.40687   0.00000  Uiso   1.00
C171   C     0.83188   0.20881   0.09241   0.00000  Uiso   1.00
C172   C     0.82583   0.12422   0.45309   0.00000  Uiso   1.00
C173   C     0.82956   0.20914   0.04614   0.00000  Uiso   1.00
C174   C     0.82669   0.16667   0.47635   0.00000  Uiso   1.00
C175   C     0.82847   0.16667   0.02289   0.00000  Uiso   1.00
C176   C     0.82583   0.20911   0.45309   0.00000  Uiso   1.00
C177   C     0.82956   0.12420   0.04614   0.00000  Uiso   1.00
C178   C     0.82628   0.08215   0.47643   0.00000  Uiso   1.00
C179   C     0.82827   0.08214   0.02274   0.00000  Uiso   1.00
C180   C     0.82826   0.25119   0.02274   0.00000  Uiso   1.00
C181   C     0.74492   0.05564   0.18333   0.00000  Uiso   1.00
C182   C     0.89366   0.27782   0.34661   0.00000  Uiso   1.00
C183   C     0.89366   0.05552   0.34660   0.00000  Uiso   1.00
C184   C     0.74492   0.27769   0.18333   0.00000  Uiso   1.00
C185   C     0.82627   0.25118   0.47643   0.00000  Uiso   1.00
C186   C     0.68816   0.12469   0.25569   0.00000  Uiso   1.00
C187   C     0.97891   0.20870   0.25385   0.00000  Uiso   1.00
C188   C     0.97891   0.12463   0.25385   0.00000  Uiso   1.00
C189   C     0.68816   0.20864   0.25569   0.00000  Uiso   1.00
C190   C     0.95733   0.16667   0.25241   0.00000  Uiso   1.00
Cu191  Cu    0.83333   0.21355   0.25000   0.00000  Uiso   1.00
Cu192  Cu    0.83333   0.11978   0.25000   0.00000  Uiso   1.00
H193   H     0.82371   0.09214   0.38907   0.00000  Uiso   1.00
H194   H     0.83325   0.09192   0.11013   0.00000  Uiso   1.00
H195   H     0.82892   0.04929   0.04025   0.00000  Uiso   1.00
H196   H     0.82561   0.28401   0.45889   0.00000  Uiso   1.00
H197   H     0.79906   0.03995   0.15284   0.00000  Uiso   1.00
H198   H     0.72966   0.03924   0.15351   0.00000  Uiso   1.00
H199   H     0.73769   0.09315   0.18113   0.00000  Uiso   1.00
H200   H     0.73206   0.04066   0.21346   0.00000  Uiso   1.00
H201   H     0.92276   0.29334   0.28871   0.00000  Uiso   1.00
H202   H     0.92106   0.29432   0.36345   0.00000  Uiso   1.00
H203   H     0.89575   0.24036   0.35460   0.00000  Uiso   1.00
H204   H     0.83324   0.24141   0.11013   0.00000  Uiso   1.00
H205   H     0.86546   0.29272   0.35996   0.00000  Uiso   1.00
H206   H     0.92276   0.04000   0.28871   0.00000  Uiso   1.00
H207   H     0.86546   0.04061   0.35996   0.00000  Uiso   1.00
H208   H     0.89576   0.09297   0.35460   0.00000  Uiso   1.00
H209   H     0.92106   0.03902   0.36345   0.00000  Uiso   1.00
H210   H     0.79906   0.29338   0.15284   0.00000  Uiso   1.00
H211   H     0.72966   0.29409   0.15351   0.00000  Uiso   1.00
H212   H     0.73206   0.29267   0.21346   0.00000  Uiso   1.00
H213   H     0.73769   0.24019   0.18113   0.00000  Uiso   1.00
H214   H     0.82562   0.04932   0.45889   0.00000  Uiso   1.00
H215   H     0.82892   0.28404   0.04025   0.00000  Uiso   1.00
H216   H     0.70408   0.09191   0.25796   0.00000  Uiso   1.00
H217   H     0.96308   0.24163   0.25320   0.00000  Uiso   1.00
H218   H     0.96308   0.09170   0.25320   0.00000  Uiso   1.00
H219   H     0.70408   0.24143   0.25796   0.00000  Uiso   1.00
H220   H     0.82371   0.24119   0.38907   0.00000  Uiso   1.00
N221   N     0.83333   0.28402   0.25000   0.00000  Uiso   1.00
N222   N     0.83333   0.04931   0.25000   0.00000  Uiso   1.00
N223   N     0.78903   0.04931   0.18339   0.00000  Uiso   1.00
N224   N     0.89427   0.28397   0.29903   0.00000  Uiso   1.00
N225   N     0.89427   0.04936   0.29903   0.00000  Uiso   1.00
N226   N     0.78903   0.28403   0.18339   0.00000  Uiso   1.00
O227   O     0.77321   0.20625   0.25000   0.00000  Uiso   1.00
O228   O     0.89345   0.12709   0.25001   0.00000  Uiso   1.00
O229   O     0.89345   0.20625   0.25001   0.00000  Uiso   1.00
O230   O     0.77321   0.12709   0.25000   0.00000  Uiso   1.00
O231   O     0.83332   0.20627   0.18513   0.00000  Uiso   1.00
O232   O     0.83334   0.12707   0.31487   0.00000  Uiso   1.00
O233   O     0.83334   0.20627   0.31487   0.00000  Uiso   1.00
O234   O     0.83332   0.12707   0.18513   0.00000  Uiso   1.00
C235   C     0.08754   0.50000   0.25171   0.00000  Uiso   1.00
C236   C     0.04301   0.50000   0.25455   0.00000  Uiso   1.00
C237   C     0.14210   0.35824   0.21965   0.00000  Uiso   1.00
C238   C     0.19432   0.64174   0.27712   0.00000  Uiso   1.00
C239   C     0.19432   0.35826   0.27712   0.00000  Uiso   1.00
C240   C     0.14210   0.64176   0.21965   0.00000  Uiso   1.00
C241   C     0.16664   0.50000   0.16433   0.00000  Uiso   1.00
C242   C     0.16469   0.50000   0.33549   0.00000  Uiso   1.00
C243   C     0.15873   0.54205   0.40687   0.00000  Uiso   1.00
C244   C     0.16522   0.45786   0.09241   0.00000  Uiso   1.00
C245   C     0.16070   0.50000   0.38371   0.00000  Uiso   1.00
C246   C     0.24592   0.50000   0.25059   0.00000  Uiso   1.00
C247   C     0.16590   0.50000   0.11573   0.00000  Uiso   1.00
C248   C     0.15873   0.45795   0.40687   0.00000  Uiso   1.00
C249   C     0.16521   0.54214   0.09241   0.00000  Uiso   1.00
C250   C     0.15917   0.45756   0.45309   0.00000  Uiso   1.00
C251   C     0.16290   0.54247   0.04614   0.00000  Uiso   1.00
C252   C     0.16002   0.50000   0.47635   0.00000  Uiso   1.00
C253   C     0.16180   0.50000   0.02289   0.00000  Uiso   1.00
C254   C     0.15916   0.54244   0.45309   0.00000  Uiso   1.00
C255   C     0.16290   0.45753   0.04614   0.00000  Uiso   1.00
C256   C     0.15961   0.41549   0.47643   0.00000  Uiso   1.00
C257   C     0.16160   0.41547   0.02274   0.00000  Uiso   1.00
C258   C     0.16160   0.58453   0.02274   0.00000  Uiso   1.00
C259   C     0.07825   0.38897   0.18333   0.00000  Uiso   1.00
C260   C     0.22699   0.61115   0.34661   0.00000  Uiso   1.00
C261   C     0.22700   0.38885   0.34660   0.00000  Uiso   1.00
C262   C     0.07825   0.61103   0.18333   0.00000  Uiso   1.00
C263   C     0.15961   0.58451   0.47643   0.00000  Uiso   1.00
C264   C     0.02150   0.45802   0.25569   0.00000  Uiso   1.00
C265   C     0.31225   0.54203   0.25385   0.00000  Uiso   1.00
C266   C     0.31225   0.45797   0.25385   0.00000  Uiso   1.00
C267   C     0.02150   0.54198   0.25569   0.00000  Uiso   1.00
C268   C     0.29067   0.50000   0.25241   0.00000  Uiso   1.00
Cu269  Cu    0.16667   0.54689   0.25000   0.00000  Uiso   1.00
Cu270  Cu    0.16667   0.45311   0.25000   0.00000  Uiso   1.00
H271   H     0.15705   0.42547   0.38907   0.00000  Uiso   1.00
H272   H     0.16658   0.42525   0.11013   0.00000  Uiso   1.00
H273   H     0.16225   0.38263   0.04025   0.00000  Uiso   1.00
H274   H     0.15895   0.61734   0.45889   0.00000  Uiso   1.00
H275   H     0.13239   0.37329   0.15284   0.00000  Uiso   1.00
H276   H     0.06299   0.37257   0.15351   0.00000  Uiso   1.00
H277   H     0.07102   0.42648   0.18113   0.00000  Uiso   1.00
H278   H     0.06539   0.37400   0.21346   0.00000  Uiso   1.00
H279   H     0.25610   0.62667   0.28871   0.00000  Uiso   1.00
H280   H     0.25439   0.62765   0.36345   0.00000  Uiso   1.00
H281   H     0.22909   0.57370   0.35460   0.00000  Uiso   1.00
H282   H     0.16658   0.57475   0.11013   0.00000  Uiso   1.00
H283   H     0.19879   0.62606   0.35996   0.00000  Uiso   1.00
H284   H     0.25610   0.37333   0.28871   0.00000  Uiso   1.00
H285   H     0.19880   0.37395   0.35996   0.00000  Uiso   1.00
H286   H     0.22909   0.42631   0.35460   0.00000  Uiso   1.00
H287   H     0.25440   0.37235   0.36345   0.00000  Uiso   1.00
H288   H     0.13239   0.62671   0.15284   0.00000  Uiso   1.00
H289   H     0.06299   0.62743   0.15351   0.00000  Uiso   1.00
H290   H     0.06539   0.62600   0.21346   0.00000  Uiso   1.00
H291   H     0.07102   0.57352   0.18113   0.00000  Uiso   1.00
H292   H     0.15895   0.38266   0.45889   0.00000  Uiso   1.00
H293   H     0.16225   0.61737   0.04025   0.00000  Uiso   1.00
H294   H     0.03741   0.42524   0.25796   0.00000  Uiso   1.00
H295   H     0.29642   0.57497   0.25320   0.00000  Uiso   1.00
H296   H     0.29642   0.42503   0.25320   0.00000  Uiso   1.00
H297   H     0.03741   0.57476   0.25796   0.00000  Uiso   1.00
H298   H     0.15704   0.57453   0.38907   0.00000  Uiso   1.00
N299   N     0.16667   0.61736   0.25000   0.00000  Uiso   1.00
N300   N     0.16667   0.38264   0.25000   0.00000  Uiso   1.00
N301   N     0.12237   0.38264   0.18339   0.00000  Uiso   1.00
N302   N     0.22760   0.61731   0.29903   0.00000  Uiso   1.00
N303   N     0.22760   0.38269   0.29903   0.00000  Uiso   1.00
N304   N     0.12237   0.61736   0.18339   0.00000  Uiso   1.00
O305   O     0.10655   0.53958   0.25000   0.00000  Uiso   1.00
O306   O     0.22679   0.46042   0.25001   0.00000  Uiso   1.00
O307   O     0.22679   0.53958   0.25001   0.00000  Uiso   1.00
O308   O     0.10655   0.46042   0.25000   0.00000  Uiso   1.00
O309   O     0.16666   0.53960   0.18513   0.00000  Uiso   1.00
O310   O     0.16668   0.46040   0.31487   0.00000  Uiso   1.00
O311   O     0.16668   0.53960   0.31487   0.00000  Uiso   1.00
O312   O     0.16666   0.46040   0.18513   0.00000  Uiso   1.00
C313   C     0.42087   0.50000   0.25171   0.00000  Uiso   1.00
C314   C     0.37634   0.50000   0.25455   0.00000  Uiso   1.00
C315   C     0.47543   0.35824   0.21965   0.00000  Uiso   1.00
C316   C     0.52766   0.64174   0.27712   0.00000  Uiso   1.00
C317   C     0.52766   0.35826   0.27712   0.00000  Uiso   1.00
C318   C     0.47543   0.64176   0.21965   0.00000  Uiso   1.00
C319   C     0.49997   0.50000   0.16433   0.00000  Uiso   1.00
C320   C     0.49802   0.50000   0.33549   0.00000  Uiso   1.00
C321   C     0.49206   0.54205   0.40687   0.00000  Uiso   1.00
C322   C     0.49855   0.45786   0.09241   0.00000  Uiso   1.00
C323   C     0.49404   0.50000   0.38371   0.00000  Uiso   1.00
C324   C     0.57926   0.50000   0.25059   0.00000  Uiso   1.00
C325   C     0.49924   0.50000   0.11573   0.00000  Uiso   1.00
C326   C     0.49206   0.45795   0.40687   0.00000  Uiso   1.00
C327   C     0.49855   0.54214   0.09241   0.00000  Uiso   1.00
C328   C     0.49250   0.45756   0.45309   0.00000  Uiso   1.00
C329   C     0.49623   0.54247   0.04614   0.00000  Uiso   1.00
C330   C     0.49335   0.50000   0.47635   0.00000  Uiso   1.00
C331   C     0.49514   0.50000   0.02289   0.00000  Uiso   1.00
C332   C     0.49250   0.54244   0.45309   0.00000  Uiso   1.00
C333   C     0.49623   0.45753   0.04614   0.00000  Uiso   1.00
C334   C     0.49294   0.41549   0.47643   0.00000  Uiso   1.00
C335   C     0.49493   0.41547   0.02274   0.00000  Uiso   1.00
C336   C     0.49493   0.58453   0.02274   0.00000  Uiso   1.00
C337   C     0.41159   0.38897   0.18333   0.00000  Uiso   1.00
C338   C     0.56033   0.61115   0.34661   0.00000  Uiso   1.00
C339   C     0.56033   0.38885   0.34660   0.00000  Uiso   1.00
C340   C     0.41159   0.61103   0.18333   0.00000  Uiso   1.00
C341   C     0.49294   0.58451   0.47643   0.00000  Uiso   1.00
C342   C     0.35483   0.45802   0.25569   0.00000  Uiso   1.00
C343   C     0.64558   0.54203   0.25385   0.00000  Uiso   1.00
C344   C     0.64558   0.45797   0.25385   0.00000  Uiso   1.00
C345   C     0.35483   0.54198   0.25569   0.00000  Uiso   1.00
C346   C     0.62400   0.50000   0.25241   0.00000  Uiso   1.00
Cu347  Cu    0.50000   0.54689   0.25000   0.00000  Uiso   1.00
Cu348  Cu    0.50000   0.45311   0.25000   0.00000  Uiso   1.00
H349   H     0.49038   0.42547   0.38907   0.00000  Uiso   1.00
H350   H     0.49991   0.42525   0.11013   0.00000  Uiso   1.00
H351   H     0.49559   0.38263   0.04025   0.00000  Uiso   1.00
H352   H     0.49228   0.61734   0.45889   0.00000  Uiso   1.00
H353   H     0.46573   0.37329   0.15284   0.00000  Uiso   1.00
H354   H     0.39633   0.37257   0.15351   0.00000  Uiso   1.00
H355   H     0.40435   0.42648   0.18113   0.00000  Uiso   1.00
H356   H     0.39872   0.37400   0.21346   0.00000  Uiso   1.00
H357   H     0.58943   0.62667   0.28871   0.00000  Uiso   1.00
H358   H     0.58773   0.62765   0.36345   0.00000  Uiso   1.00
H359   H     0.56242   0.57370   0.35460   0.00000  Uiso   1.00
H360   H     0.49991   0.57475   0.11013   0.00000  Uiso   1.00
H361   H     0.53213   0.62606   0.35996   0.00000  Uiso   1.00
H362   H     0.58943   0.37333   0.28871   0.00000  Uiso   1.00
H363   H     0.53213   0.37395   0.35996   0.00000  Uiso   1.00
H364   H     0.56242   0.42631   0.35460   0.00000  Uiso   1.00
H365   H     0.58773   0.37235   0.36345   0.00000  Uiso   1.00
H366   H     0.46573   0.62671   0.15284   0.00000  Uiso   1.00
H367   H     0.39633   0.62743   0.15351   0.00000  Uiso   1.00
H368   H     0.39872   0.62600   0.21346   0.00000  Uiso   1.00
H369   H     0.40435   0.57352   0.18113   0.00000  Uiso   1.00
H370   H     0.49228   0.38266   0.45889   0.00000  Uiso   1.00
H371   H     0.49558   0.61737   0.04025   0.00000  Uiso   1.00
H372   H     0.37074   0.42524   0.25796   0.00000  Uiso   1.00
H373   H     0.62975   0.57497   0.25320   0.00000  Uiso   1.00
H374   H     0.62975   0.42503   0.25320   0.00000  Uiso   1.00
H375   H     0.37074   0.57476   0.25796   0.00000  Uiso   1.00
H376   H     0.49038   0.57453   0.38907   0.00000  Uiso   1.00
N377   N     0.50000   0.61736   0.25000   0.00000  Uiso   1.00
N378   N     0.50000   0.38264   0.25000   0.00000  Uiso   1.00
N379   N     0.45570   0.38264   0.18339   0.00000  Uiso   1.00
N380   N     0.56094   0.61731   0.29903   0.00000  Uiso   1.00
N381   N     0.56094   0.38269   0.29903   0.00000  Uiso   1.00
N382   N     0.45570   0.61736   0.18339   0.00000  Uiso   1.00
O383   O     0.43988   0.53958   0.25000   0.00000  Uiso   1.00
O384   O     0.56012   0.46042   0.25001   0.00000  Uiso   1.00
O385   O     0.56012   0.53958   0.25001   0.00000  Uiso   1.00
O386   O     0.43988   0.46042   0.25000   0.00000  Uiso   1.00
O387   O     0.49999   0.53960   0.18513   0.00000  Uiso   1.00
O388   O     0.50001   0.46040   0.31487   0.00000  Uiso   1.00
O389   O     0.50001   0.53960   0.31487   0.00000  Uiso   1.00
O390   O     0.49999   0.46040   0.18513   0.00000  Uiso   1.00
C391   C     0.75421   0.50000   0.25171   0.00000  Uiso   1.00
C392   C     0.70967   0.50000   0.25455   0.00000  Uiso   1.00
C393   C     0.80876   0.35824   0.21965   0.00000  Uiso   1.00
C394   C     0.86099   0.64174   0.27712   0.00000  Uiso   1.00
C395   C     0.86099   0.35826   0.27712   0.00000  Uiso   1.00
C396   C     0.80876   0.64176   0.21965   0.00000  Uiso   1.00
C397   C     0.83330   0.50000   0.16433   0.00000  Uiso   1.00
C398   C     0.83136   0.50000   0.33549   0.00000  Uiso   1.00
C399   C     0.82539   0.54205   0.40687   0.00000  Uiso   1.00
C400   C     0.83188   0.45786   0.09241   0.00000  Uiso   1.00
C401   C     0.82737   0.50000   0.38371   0.00000  Uiso   1.00
C402   C     0.91259   0.50000   0.25059   0.00000  Uiso   1.00
C403   C     0.83257   0.50000   0.11573   0.00000  Uiso   1.00
C404   C     0.82539   0.45795   0.40687   0.00000  Uiso   1.00
C405   C     0.83188   0.54214   0.09241   0.00000  Uiso   1.00
C406   C     0.82583   0.45756   0.45309   0.00000  Uiso   1.00
C407   C     0.82956   0.54247   0.04614   0.00000  Uiso   1.00
C408   C     0.82669   0.50000   0.47635   0.00000  Uiso   1.00
C409   C     0.82847   0.50000   0.02289   0.00000  Uiso   1.00
C410   C     0.82583   0.54244   0.45309   0.00000  Uiso   1.00
C411   C     0.82956   0.45753   0.04614   0.00000  Uiso   1.00
C412   C     0.82628   0.41549   0.47643   0.00000  Uiso   1.00
C413   C     0.82827   0.41547   0.02274   0.00000  Uiso   1.00
C414   C     0.82826   0.58453   0.02274   0.00000  Uiso   1.00
C415   C     0.74492   0.38897   0.18333   0.00000  Uiso   1.00
C416   C     0.89366   0.61115   0.34661   0.00000  Uiso   1.00
C417   C     0.89366   0.38885   0.34660   0.00000  Uiso   1.00
C418   C     0.74492   0.61103   0.18333   0.00000  Uiso   1.00
C419   C     0.82627   0.58451   0.47643   0.00000  Uiso   1.00
C420   C     0.68816   0.45802   0.25569   0.00000  Uiso   1.00
C421   C     0.97891   0.54203   0.25385   0.00000  Uiso   1.00
C422   C     0.97891   0.45797   0.25385   0.00000  Uiso   1.00
C423   C     0.68816   0.54198   0.25569   0.00000  Uiso   1.00
C424   C     0.95733   0.50000   0.25241   0.00000  Uiso   1.00
Cu425  Cu    0.83333   0.54689   0.25000   0.00000  Uiso   1.00
Cu426  Cu    0.83333   0.45311   0.25000   0.00000  Uiso   1.00
H427   H     0.82371   0.42547   0.38907   0.00000  Uiso   1.00
H428   H     0.83325   0.42525   0.11013   0.00000  Uiso   1.00
H429   H     0.82892   0.38263   0.04025   0.00000  Uiso   1.00
H430   H     0.82561   0.61734   0.45889   0.00000  Uiso   1.00
H431   H     0.79906   0.37329   0.15284   0.00000  Uiso   1.00
H432   H     0.72966   0.37257   0.15351   0.00000  Uiso   1.00
H433   H     0.73769   0.42648   0.18113   0.00000  Uiso   1.00
H434   H     0.73206   0.37400   0.21346   0.00000  Uiso   1.00
H435   H     0.92276   0.62667   0.28871   0.00000  Uiso   1.00
H436   H     0.92106   0.62765   0.36345   0.00000  Uiso   1.00
H437   H     0.89575   0.57370   0.35460   0.00000  Uiso   1.00
H438   H     0.83324   0.57475   0.11013   0.00000  Uiso   1.00
H439   H     0.86546   0.62606   0.35996   0.00000  Uiso   1.00
H440   H     0.92276   0.37333   0.28871   0.00000  Uiso   1.00
H441   H     0.86546   0.37395   0.35996   0.00000  Uiso   1.00
H442   H     0.89576   0.42631   0.35460   0.00000  Uiso   1.00
H443   H     0.92106   0.37235   0.36345   0.00000  Uiso   1.00
H444   H     0.79906   0.62671   0.15284   0.00000  Uiso   1.00
H445   H     0.72966   0.62743   0.15351   0.00000  Uiso   1.00
H446   H     0.73206   0.62600   0.21346   0.00000  Uiso   1.00
H447   H     0.73769   0.57352   0.18113   0.00000  Uiso   1.00
H448   H     0.82562   0.38266   0.45889   0.00000  Uiso   1.00
H449   H     0.82892   0.61737   0.04025   0.00000  Uiso   1.00
H450   H     0.70408   0.42524   0.25796   0.00000  Uiso   1.00
H451   H     0.96308   0.57497   0.25320   0.00000  Uiso   1.00
H452   H     0.96308   0.42503   0.25320   0.00000  Uiso   1.00
H453   H     0.70408   0.57476   0.25796   0.00000  Uiso   1.00
H454   H     0.82371   0.57453   0.38907   0.00000  Uiso   1.00
N455   N     0.83333   0.61736   0.25000   0.00000  Uiso   1.00
N456   N     0.83333   0.38264   0.25000   0.00000  Uiso   1.00
N457   N     0.78903   0.38264   0.18339   0.00000  Uiso   1.00
N458   N     0.89427   0.61731   0.29903   0.00000  Uiso   1.00
N459   N     0.89427   0.38269   0.29903   0.00000  Uiso   1.00
N460   N     0.78903   0.61736   0.18339   0.00000  Uiso   1.00
O461   O     0.77321   0.53958   0.25000   0.00000  Uiso   1.00
O462   O     0.89345   0.46042   0.25001   0.00000  Uiso   1.00
O463   O     0.89345   0.53958   0.25001   0.00000  Uiso   1.00
O464   O     0.77321   0.46042   0.25000   0.00000  Uiso   1.00
O465   O     0.83332   0.53960   0.18513   0.00000  Uiso   1.00
O466   O     0.83334   0.46040   0.31487   0.00000  Uiso   1.00
O467   O     0.83334   0.53960   0.31487   0.00000  Uiso   1.00
O468   O     0.83332   0.46040   0.18513   0.00000  Uiso   1.00
C469   C     0.08754   0.83333   0.25171   0.00000  Uiso   1.00
C470   C     0.04301   0.83333   0.25455   0.00000  Uiso   1.00
C471   C     0.14210   0.69158   0.21965   0.00000  Uiso   1.00
C472   C     0.19432   0.97508   0.27712   0.00000  Uiso   1.00
C473   C     0.19432   0.69159   0.27712   0.00000  Uiso   1.00
C474   C     0.14210   0.97509   0.21965   0.00000  Uiso   1.00
C475   C     0.16664   0.83333   0.16433   0.00000  Uiso   1.00
C476   C     0.16469   0.83333   0.33549   0.00000  Uiso   1.00
C477   C     0.15873   0.87539   0.40687   0.00000  Uiso   1.00
C478   C     0.16522   0.79119   0.09241   0.00000  Uiso   1.00
C479   C     0.16070   0.83333   0.38371   0.00000  Uiso   1.00
C480   C     0.24592   0.83333   0.25059   0.00000  Uiso   1.00
C481   C     0.16590   0.83333   0.11573   0.00000  Uiso   1.00
C482   C     0.15873   0.79128   0.40687   0.00000  Uiso   1.00
C483   C     0.16521   0.87547   0.09241   0.00000  Uiso   1.00
C484   C     0.15917   0.79089   0.45309   0.00000  Uiso   1.00
C485   C     0.16290   0.87580   0.04614   0.00000  Uiso   1.00
C486   C     0.16002   0.83333   0.47635   0.00000  Uiso   1.00
C487   C     0.16180   0.83333   0.02289   0.00000  Uiso   1.00
C488   C     0.15916   0.87578   0.45309   0.00000  Uiso   1.00
C489   C     0.16290   0.79086   0.04614   0.00000  Uiso   1.00
C490   C     0.15961   0.74882   0.47643   0.00000  Uiso   1.00
C491   C     0.16160   0.74881   0.02274   0.00000  Uiso   1.00
C492   C     0.16160   0.91786   0.02274   0.00000  Uiso   1.00
C493   C     0.07825   0.72231   0.18333   0.00000  Uiso   1.00
C494   C     0.22699   0.94448   0.34661   0.00000  Uiso   1.00
C495   C     0.22700   0.72218   0.34660   0.00000  Uiso   1.00
C496   C     0.07825   0.94436   0.18333   0.00000  Uiso   1.00
C497   C     0.15961   0.91785   0.47643   0.00000  Uiso   1.00
C498   C     0.02150   0.79136   0.25569   0.00000  Uiso   1.00
C499   C     0.31225   0.87537   0.25385   0.00000  Uiso   1.00
C500   C     0.31225   0.79130   0.25385   0.00000  Uiso   1.00
C501   C     0.02150   0.87531   0.25569   0.00000  Uiso   1.00
C502   C     0.29067   0.83333   0.25241   0.00000  Uiso   1.00
Cu503  Cu    0.16667   0.88022   0.25000   0.00000  Uiso   1.00
Cu504  Cu    0.16667   0.78645   0.25000   0.00000  Uiso   1.00
H505   H     0.15705   0.75881   0.38907   0.00000  Uiso   1.00
H506   H     0.16658   0.75859   0.11013   0.00000  Uiso   1.00
H507   H     0.16225   0.71596   0.04025   0.00000  Uiso   1.00
H508   H     0.15895   0.95068   0.45889   0.00000  Uiso   1.00
H509   H     0.13239   0.70662   0.15284   0.00000  Uiso   1.00
H510   H     0.06299   0.70591   0.15351   0.00000  Uiso   1.00
H511   H     0.07102   0.75981   0.18113   0.00000  Uiso   1.00
H512   H     0.06539   0.70733   0.21346   0.00000  Uiso   1.00
H513   H     0.25610   0.96000   0.28871   0.00000  Uiso   1.00
H514   H     0.25439   0.96099   0.36345   0.00000  Uiso   1.00
H515   H     0.22909   0.90703   0.35460   0.00000  Uiso   1.00
H516   H     0.16658   0.90808   0.11013   0.00000  Uiso   1.00
H517   H     0.19879   0.95939   0.35996   0.00000  Uiso   1.00
H518   H     0.25610   0.70666   0.28871   0.00000  Uiso   1.00
H519   H     0.19880   0.70728   0.35996   0.00000  Uiso   1.00
H520   H     0.22909   0.75964   0.35460   0.00000  Uiso   1.00
H521   H     0.25440   0.70568   0.36345   0.00000  Uiso   1.00
H522   H     0.13239   0.96005   0.15284   0.00000  Uiso   1.00
H523   H     0.06299   0.96076   0.15351   0.00000  Uiso   1.00
H524   H     0.06539   0.95934   0.21346   0.00000  Uiso   1.00
H525   H     0.07102   0.90685   0.18113   0.00000  Uiso   1.00
H526   H     0.15895   0.71599   0.45889   0.00000  Uiso   1.00
H527   H     0.16225   0.95071   0.04025   0.00000  Uiso   1.00
H528   H     0.03741   0.75857   0.25796   0.00000  Uiso   1.00
H529   H     0.29642   0.90830   0.25320   0.00000  Uiso   1.00
H530   H     0.29642   0.75837   0.25320   0.00000  Uiso   1.00
H531   H     0.03741   0.90809   0.25796   0.00000  Uiso   1.00
H532   H     0.15704   0.90786   0.38907   0.00000  Uiso   1.00
N533   N     0.16667   0.95069   0.25000   0.00000  Uiso   1.00
N534   N     0.16667   0.71598   0.25000   0.00000  Uiso   1.00
N535   N     0.12237   0.71597   0.18339   0.00000  Uiso   1.00
N536   N     0.22760   0.95064   0.29903   0.00000  Uiso   1.00
N537   N     0.22760   0.71603   0.29903   0.00000  Uiso   1.00
N538   N     0.12237   0.95069   0.18339   0.00000  Uiso   1.00
O539   O     0.10655   0.87291   0.25000   0.00000  Uiso   1.00
O540   O     0.22679   0.79375   0.25001   0.00000  Uiso   1.00
O541   O     0.22679   0.87291   0.25001   0.00000  Uiso   1.00
O542   O     0.10655   0.79375   0.25000   0.00000  Uiso   1.00
O543   O     0.16666   0.87293   0.18513   0.00000  Uiso   1.00
O544   O     0.16668   0.79373   0.31487   0.00000  Uiso   1.00
O545   O     0.16668   0.87293   0.31487   0.00000  Uiso   1.00
O546   O     0.16666   0.79373   0.18513   0.00000  Uiso   1.00
C547   C     0.42087   0.83333   0.25171   0.00000  Uiso   1.00
C548   C     0.37634   0.83333   0.25455   0.00000  Uiso   1.00
C549   C     0.47543   0.69158   0.21965   0.00000  Uiso   1.00
C550   C     0.52766   0.97508   0.27712   0.00000  Uiso   1.00
C551   C     0.52766   0.69159   0.27712   0.00000  Uiso   1.00
C552   C     0.47543   0.97509   0.21965   0.00000  Uiso   1.00
C553   C     0.49997   0.83333   0.16433   0.00000  Uiso   1.00
C554   C     0.49802   0.83333   0.33549   0.00000  Uiso   1.00
C555   C     0.49206   0.87539   0.40687   0.00000  Uiso   1.00
C556   C     0.49855   0.79119   0.09241   0.00000  Uiso   1.00
C557   C     0.49404   0.83333   0.38371   0.00000  Uiso   1.00
C558   C     0.57926   0.83333   0.25059   0.00000  Uiso   1.00
C559   C     0.49924   0.83333   0.11573   0.00000  Uiso   1.00
C560   C     0.49206   0.79128   0.40687   0.00000  Uiso   1.00
C561   C     0.49855   0.87547   0.09241   0.00000  Uiso   1.00
C562   C     0.49250   0.79089   0.45309   0.00000  Uiso   1.00
C563   C     0.49623   0.87580   0.04614   0.00000  Uiso   1.00
C564   C     0.49335   0.83333   0.47635   0.00000  Uiso   1.00
C565   C     0.49514   0.83333   0.02289   0.00000  Uiso   1.00
C566   C     0.49250   0.87578   0.45309   0.00000  Uiso   1.00
C567   C     0.49623   0.79086   0.04614   0.00000  Uiso   1.00
C568   C     0.49294   0.74882   0.47643   0.00000  Uiso   1.00
C569   C     0.49493   0.74881   0.02274   0.00000  Uiso   1.00
C570   C     0.49493   0.91786   0.02274   0.00000  Uiso   1.00
C571   C     0.41159   0.72231   0.18333   0.00000  Uiso   1.00
C572   C     0.56033   0.94448   0.34661   0.00000  Uiso   1.00
C573   C     0.56033   0.72218   0.34660   0.00000  Uiso   1.00
C574   C     0.41159   0.94436   0.18333   0.00000  Uiso   1.00
C575   C     0.49294   0.91785   0.47643   0.00000  Uiso   1.00
C576   C     0.35483   0.79136   0.25569   0.00000  Uiso   1.00
C577   C     0.64558   0.87537   0.25385   0.00000  Uiso   1.00
C578   C     0.64558   0.79130   0.25385   0.00000  Uiso   1.00
C579   C     0.35483   0.87531   0.25569   0.00000  Uiso   1.00
C580   C     0.62400   0.83333   0.25241   0.00000  Uiso   1.00
Cu581  Cu    0.50000   0.88022   0.25000   0.00000  Uiso   1.00
Cu582  Cu    0.50000   0.78645   0.25000   0.00000  Uiso   1.00
H583   H     0.49038   0.75881   0.38907   0.00000  Uiso   1.00
H584   H     0.49991   0.75859   0.11013   0.00000  Uiso   1.00
H585   H     0.49559   0.71596   0.04025   0.00000  Uiso   1.00
H586   H     0.49228   0.95068   0.45889   0.00000  Uiso   1.00
H587   H     0.46573   0.70662   0.15284   0.00000  Uiso   1.00
H588   H     0.39633   0.70591   0.15351   0.00000  Uiso   1.00
H589   H     0.40435   0.75981   0.18113   0.00000  Uiso   1.00
H590   H     0.39872   0.70733   0.21346   0.00000  Uiso   1.00
H591   H     0.58943   0.96000   0.28871   0.00000  Uiso   1.00
H592   H     0.58773   0.96099   0.36345   0.00000  Uiso   1.00
H593   H     0.56242   0.90703   0.35460   0.00000  Uiso   1.00
H594   H     0.49991   0.90808   0.11013   0.00000  Uiso   1.00
H595   H     0.53213   0.95939   0.35996   0.00000  Uiso   1.00
H596   H     0.58943   0.70666   0.28871   0.00000  Uiso   1.00
H597   H     0.53213   0.70728   0.35996   0.00000  Uiso   1.00
H598   H     0.56242   0.75964   0.35460   0.00000  Uiso   1.00
H599   H     0.58773   0.70568   0.36345   0.00000  Uiso   1.00
H600   H     0.46573   0.96005   0.15284   0.00000  Uiso   1.00
H601   H     0.39633   0.96076   0.15351   0.00000  Uiso   1.00
H602   H     0.39872   0.95934   0.21346   0.00000  Uiso   1.00
H603   H     0.40435   0.90685   0.18113   0.00000  Uiso   1.00
H604   H     0.49228   0.71599   0.45889   0.00000  Uiso   1.00
H605   H     0.49558   0.95071   0.04025   0.00000  Uiso   1.00
H606   H     0.37074   0.75857   0.25796   0.00000  Uiso   1.00
H607   H     0.62975   0.90830   0.25320   0.00000  Uiso   1.00
H608   H     0.62975   0.75837   0.25320   0.00000  Uiso   1.00
H609   H     0.37074   0.90809   0.25796   0.00000  Uiso   1.00
H610   H     0.49038   0.90786   0.38907   0.00000  Uiso   1.00
N611   N     0.50000   0.95069   0.25000   0.00000  Uiso   1.00
N612   N     0.50000   0.71598   0.25000   0.00000  Uiso   1.00
N613   N     0.45570   0.71597   0.18339   0.00000  Uiso   1.00
N614   N     0.56094   0.95064   0.29903   0.00000  Uiso   1.00
N615   N     0.56094   0.71603   0.29903   0.00000  Uiso   1.00
N616   N     0.45570   0.95069   0.18339   0.00000  Uiso   1.00
O617   O     0.43988   0.87291   0.25000   0.00000  Uiso   1.00
O618   O     0.56012   0.79375   0.25001   0.00000  Uiso   1.00
O619   O     0.56012   0.87291   0.25001   0.00000  Uiso   1.00
O620   O     0.43988   0.79375   0.25000   0.00000  Uiso   1.00
O621   O     0.49999   0.87293   0.18513   0.00000  Uiso   1.00
O622   O     0.50001   0.79373   0.31487   0.00000  Uiso   1.00
O623   O     0.50001   0.87293   0.31487   0.00000  Uiso   1.00
O624   O     0.49999   0.79373   0.18513   0.00000  Uiso   1.00
C625   C     0.75421   0.83333   0.25171   0.00000  Uiso   1.00
C626   C     0.70967   0.83333   0.25455   0.00000  Uiso   1.00
C627   C     0.80876   0.69158   0.21965   0.00000  Uiso   1.00
C628   C     0.86099   0.97508   0.27712   0.00000  Uiso   1.00
C629   C     0.86099   0.69159   0.27712   0.00000  Uiso   1.00
C630   C     0.80876   0.97509   0.21965   0.00000  Uiso   1.00
C631   C     0.83330   0.83333   0.16433   0.00000  Uiso   1.00
C632   C     0.83136   0.83333   0.33549   0.00000  Uiso   1.00
C633   C     0.82539   0.87539   0.40687   0.00000  Uiso   1.00
C634   C     0.83188   0.79119   0.09241   0.00000  Uiso   1.00
C635   C     0.82737   0.83333   0.38371   0.00000  Uiso   1.00
C636   C     0.91259   0.83333   0.25059   0.00000  Uiso   1.00
C637   C     0.83257   0.83333   0.11573   0.00000  Uiso   1.00
C638   C     0.82539   0.79128   0.40687   0.00000  Uiso   1.00
C639   C     0.83188   0.87547   0.09241   0.00000  Uiso   1.00
C640   C     0.82583   0.79089   0.45309   0.00000  Uiso   1.00
C641   C     0.82956   0.87580   0.04614   0.00000  Uiso   1.00
C642   C     0.82669   0.83333   0.47635   0.00000  Uiso   1.00
C643   C     0.82847   0.83333   0.02289   0.00000  Uiso   1.00
C644   C     0.82583   0.87578   0.45309   0.00000  Uiso   1.00
C645   C     0.82956   0.79086   0.04614   0.00000  Uiso   1.00
C646   C     0.82628   0.74882   0.47643   0.00000  Uiso   1.00
C647   C     0.82827   0.74881   0.02274   0.00000  Uiso   1.00
C648   C     0.82826   0.91786   0.02274   0.00000  Uiso   1.00
C649   C     0.74492   0.72231   0.18333   0.00000  Uiso   1.00
C650   C     0.89366   0.94448   0.34661   0.00000  Uiso   1.00
C651   C     0.89366   0.72218   0.34660   0.00000  Uiso   1.00
C652   C     0.74492   0.94436   0.18333   0.00000  Uiso   1.00
C653   C     0.82627   0.91785   0.47643   0.00000  Uiso   1.00
C654   C     0.68816   0.79136   0.25569   0.00000  Uiso   1.00
C655   C     0.97891   0.87537   0.25385   0.00000  Uiso   1.00
C656   C     0.97891   0.79130   0.25385   0.00000  Uiso   1.00
C657   C     0.68816   0.87531   0.25569   0.00000  Uiso   1.00
C658   C     0.95733   0.83333   0.25241   0.00000  Uiso   1.00
Cu659  Cu    0.83333   0.88022   0.25000   0.00000  Uiso   1.00
Cu660  Cu    0.83333   0.78645   0.25000   0.00000  Uiso   1.00
H661   H     0.82371   0.75881   0.38907   0.00000  Uiso   1.00
H662   H     0.83325   0.75859   0.11013   0.00000  Uiso   1.00
H663   H     0.82892   0.71596   0.04025   0.00000  Uiso   1.00
H664   H     0.82561   0.95068   0.45889   0.00000  Uiso   1.00
H665   H     0.79906   0.70662   0.15284   0.00000  Uiso   1.00
H666   H     0.72966   0.70591   0.15351   0.00000  Uiso   1.00
H667   H     0.73769   0.75981   0.18113   0.00000  Uiso   1.00
H668   H     0.73206   0.70733   0.21346   0.00000  Uiso   1.00
H669   H     0.92276   0.96000   0.28871   0.00000  Uiso   1.00
H670   H     0.92106   0.96099   0.36345   0.00000  Uiso   1.00
H671   H     0.89575   0.90703   0.35460   0.00000  Uiso   1.00
H672   H     0.83324   0.90808   0.11013   0.00000  Uiso   1.00
H673   H     0.86546   0.95939   0.35996   0.00000  Uiso   1.00
H674   H     0.92276   0.70666   0.28871   0.00000  Uiso   1.00
H675   H     0.86546   0.70728   0.35996   0.00000  Uiso   1.00
H676   H     0.89576   0.75964   0.35460   0.00000  Uiso   1.00
H677   H     0.92106   0.70568   0.36345   0.00000  Uiso   1.00
H678   H     0.79906   0.96005   0.15284   0.00000  Uiso   1.00
H679   H     0.72966   0.96076   0.15351   0.00000  Uiso   1.00
H680   H     0.73206   0.95934   0.21346   0.00000  Uiso   1.00
H681   H     0.73769   0.90685   0.18113   0.00000  Uiso   1.00
H682   H     0.82562   0.71599   0.45889   0.00000  Uiso   1.00
H683   H     0.82892   0.95071   0.04025   0.00000  Uiso   1.00
H684   H     0.70408   0.75857   0.25796   0.00000  Uiso   1.00
H685   H     0.96308   0.90830   0.25320   0.00000  Uiso   1.00
H686   H     0.96308   0.75837   0.25320   0.00000  Uiso   1.00
H687   H     0.70408   0.90809   0.25796   0.00000  Uiso   1.00
H688   H     0.82371   0.90786   0.38907   0.00000  Uiso   1.00
N689   N     0.83333   0.95069   0.25000   0.00000  Uiso   1.00
N690   N     0.83333   0.71598   0.25000   0.00000  Uiso   1.00
N691   N     0.78903   0.71597   0.18339   0.00000  Uiso   1.00
N692   N     0.89427   0.95064   0.29903   0.00000  Uiso   1.00
N693   N     0.89427   0.71603   0.29903   0.00000  Uiso   1.00
N694   N     0.78903   0.95069   0.18339   0.00000  Uiso   1.00
O695   O     0.77321   0.87291   0.25000   0.00000  Uiso   1.00
O696   O     0.89345   0.79375   0.25001   0.00000  Uiso   1.00
O697   O     0.89345   0.87291   0.25001   0.00000  Uiso   1.00
O698   O     0.77321   0.79375   0.25000   0.00000  Uiso   1.00
O699   O     0.83332   0.87293   0.18513   0.00000  Uiso   1.00
O700   O     0.83334   0.79373   0.31487   0.00000  Uiso   1.00
O701   O     0.83334   0.87293   0.31487   0.00000  Uiso   1.00
O702   O     0.83332   0.79373   0.18513   0.00000  Uiso   1.00
C703   C     0.08754   0.16667   0.75171   0.00000  Uiso   1.00
C704   C     0.04301   0.16667   0.75455   0.00000  Uiso   1.00
C705   C     0.14210   0.02491   0.71965   0.00000  Uiso   1.00
C706   C     0.19432   0.30841   0.77712   0.00000  Uiso   1.00
C707   C     0.19432   0.02492   0.77712   0.00000  Uiso   1.00
C708   C     0.14210   0.30842   0.71965   0.00000  Uiso   1.00
C709   C     0.16664   0.16667   0.66433   0.00000  Uiso   1.00
C710   C     0.16469   0.16667   0.83549   0.00000  Uiso   1.00
C711   C     0.15873   0.20872   0.90687   0.00000  Uiso   1.00
C712   C     0.16522   0.12453   0.59241   0.00000  Uiso   1.00
C713   C     0.16070   0.16667   0.88371   0.00000  Uiso   1.00
C714   C     0.24592   0.16667   0.75059   0.00000  Uiso   1.00
C715   C     0.16590   0.16667   0.61573   0.00000  Uiso   1.00
C716   C     0.15873   0.12461   0.90687   0.00000  Uiso   1.00
C717   C     0.16521   0.20881   0.59241   0.00000  Uiso   1.00
C718   C     0.15917   0.12422   0.95309   0.00000  Uiso   1.00
C719   C     0.16290   0.20914   0.54614   0.00000  Uiso   1.00
C720   C     0.16002   0.16667   0.97635   0.00000  Uiso   1.00
C721   C     0.16180   0.16667   0.52289   0.00000  Uiso   1.00
C722   C     0.15916   0.20911   0.95309   0.00000  Uiso   1.00
C723   C     0.16290   0.12420   0.54614   0.00000  Uiso   1.00
C724   C     0.15961   0.08215   0.97643   0.00000  Uiso   1.00
C725   C     0.16160   0.08214   0.52274   0.00000  Uiso   1.00
C726   C     0.16160   0.25119   0.52274   0.00000  Uiso   1.00
C727   C     0.07825   0.05564   0.68333   0.00000  Uiso   1.00
C728   C     0.22699   0.27782   0.84661   0.00000  Uiso   1.00
C729   C     0.22700   0.05552   0.84660   0.00000  Uiso   1.00
C730   C     0.07825   0.27769   0.68333   0.00000  Uiso   1.00
C731   C     0.15961   0.25118   0.97643   0.00000  Uiso   1.00
C732   C     0.02150   0.12469   0.75569   0.00000  Uiso   1.00
C733   C     0.31225   0.20870   0.75385   0.00000  Uiso   1.00
C734   C     0.31225   0.12463   0.75385   0.00000  Uiso   1.00
C735   C     0.02150   0.20864   0.75569   0.00000  Uiso   1.00
C736   C     0.29067   0.16667   0.75241   0.00000  Uiso   1.00
Cu737  Cu    0.16667   0.21355   0.75000   0.00000  Uiso   1.00
Cu738  Cu    0.16667   0.11978   0.75000   0.00000  Uiso   1.00
H739   H     0.15705   0.09214   0.88907   0.00000  Uiso   1.00
H740   H     0.16658   0.09192   0.61013   0.00000  Uiso   1.00
H741   H     0.16225   0.04929   0.54025   0.00000  Uiso   1.00
H742   H     0.15895   0.28401   0.95889   0.00000  Uiso   1.00
H743   H     0.13239   0.03995   0.65284   0.00000  Uiso   1.00
H744   H     0.06299   0.03924   0.65351   0.00000  Uiso   1.00
H745   H     0.07102   0.09315   0.68113   0.00000  Uiso   1.00
H746   H     0.06539   0.04066   0.71346   0.00000  Uiso   1.00
H747   H     0.25610   0.29334   0.78871   0.00000  Uiso   1.00
H748   H     0.25439   0.29432   0.86345   0.00000  Uiso   1.00
H749   H     0.22909   0.24036   0.85460   0.00000  Uiso   1.00
H750   H     0.16658   0.24141   0.61013   0.00000  Uiso   1.00
H751   H     0.19879   0.29272   0.85996   0.00000  Uiso   1.00
H752   H     0.25610   0.04000   0.78871   0.00000  Uiso   1.00
H753   H     0.19880   0.04061   0.85996   0.00000  Uiso   1.00
H754   H     0.22909   0.09297   0.85460   0.00000  Uiso   1.00
H755   H     0.25440   0.03902   0.86345   0.00000  Uiso   1.00
H756   H     0.13239   0.29338   0.65284   0.00000  Uiso   1.00
H757   H     0.06299   0.29409   0.65351   0.00000  Uiso   1.00
H758   H     0.06539   0.29267   0.71346   0.00000  Uiso   1.00
H759   H     0.07102   0.24019   0.68113   0.00000  Uiso   1.00
H760   H     0.15895   0.04932   0.95889   0.00000  Uiso   1.00
H761   H     0.16225   0.28404   0.54025   0.00000  Uiso   1.00
H762   H     0.03741   0.09191   0.75796   0.00000  Uiso   1.00
H763   H     0.29642   0.24163   0.75320   0.00000  Uiso   1.00
H764   H     0.29642   0.09170   0.75320   0.00000  Uiso   1.00
H765   H     0.03741   0.24143   0.75796   0.00000  Uiso   1.00
H766   H     0.15704   0.24119   0.88907   0.00000  Uiso   1.00
N767   N     0.16667   0.28402   0.75000   0.00000  Uiso   1.00
N768   N     0.16667   0.04931   0.75000   0.00000  Uiso   1.00
N769   N     0.12237   0.04931   0.68339   0.00000  Uiso   1.00
N770   N     0.22760   0.28397   0.79903   0.00000  Uiso   1.00
N771   N     0.22760   0.04936   0.79903   0.00000  Uiso   1.00
N772   N     0.12237   0.28403   0.68339   0.00000  Uiso   1.00
O773   O     0.10655   0.20625   0.75000   0.00000  Uiso   1.00
O774   O     0.22679   0.12709   0.75001   0.00000  Uiso   1.00
O775   O     0.22679   0.20625   0.75001   0.00000  Uiso   1.00
O776   O     0.10655   0.12709   0.75000   0.00000  Uiso   1.00
O777   O     0.16666   0.20627   0.68513   0.00000  Uiso   1.00
O778   O     0.16668   0.12707   0.81487   0.00000  Uiso   1.00
O779   O     0.16668   0.20627   0.81487   0.00000  Uiso   1.00
O780   O     0.16666   0.12707   0.68513   0.00000  Uiso   1.00
C781   C     0.42087   0.16667   0.75171   0.00000  Uiso   1.00
C782   C     0.37634   0.16667   0.75455   0.00000  Uiso   1.00
C783   C     0.47543   0.02491   0.71965   0.00000  Uiso   1.00
C784   C     0.52766   0.30841   0.77712   0.00000  Uiso   1.00
C785   C     0.52766   0.02492   0.77712   0.00000  Uiso   1.00
C786   C     0.47543   0.30842   0.71965   0.00000  Uiso   1.00
C787   C     0.49997   0.16667   0.66433   0.00000  Uiso   1.00
C788   C     0.49802   0.16667   0.83549   0.00000  Uiso   1.00
C789   C     0.49206   0.20872   0.90687   0.00000  Uiso   1.00
C790   C     0.49855   0.12453   0.59241   0.00000  Uiso   1.00
C791   C     0.49404   0.16667   0.88371   0.00000  Uiso   1.00
C792   C     0.57926   0.16667   0.75059   0.00000  Uiso   1.00
C793   C     0.49924   0.16667   0.61573   0.00000  Uiso   1.00
C794   C     0.49206   0.12461   0.90687   0.00000  Uiso   1.00
C795   C     0.49855   0.20881   0.59241   0.00000  Uiso   1.00
C796   C     0.49250   0.12422   0.95309   0.00000  Uiso   1.00
C797   C     0.49623   0.20914   0.54614   0.00000  Uiso   1.00
C798   C     0.49335   0.16667   0.97635   0.00000  Uiso   1.00
C799   C     0.49514   0.16667   0.52289   0.00000  Uiso   1.00
C800   C     0.49250   0.20911   0.95309   0.00000  Uiso   1.00
C801   C     0.49623   0.12420   0.54614   0.00000  Uiso   1.00
C802   C     0.49294   0.08215   0.97643   0.00000  Uiso   1.00
C803   C     0.49493   0.08214   0.52274   0.00000  Uiso   1.00
C804   C     0.49493   0.25119   0.52274   0.00000  Uiso   1.00
C805   C     0.41159   0.05564   0.68333   0.00000  Uiso   1.00
C806   C     0.56033   0.27782   0.84661   0.00000  Uiso   1.00
C807   C     0.56033   0.05552   0.84660   0.00000  Uiso   1.00
C808   C     0.41159   0.27769   0.68333   0.00000  Uiso   1.00
C809   C     0.49294   0.25118   0.97643   0.00000  Uiso   1.00
C810   C     0.35483   0.12469   0.75569   0.00000  Uiso   1.00
C811   C     0.64558   0.20870   0.75385   0.00000  Uiso   1.00
C812   C     0.64558   0.12463   0.75385   0.00000  Uiso   1.00
C813   C     0.35483   0.20864   0.75569   0.00000  Uiso   1.00
C814   C     0.62400   0.16667   0.75241   0.00000  Uiso   1.00
Cu815  Cu    0.50000   0.21355   0.75000   0.00000  Uiso   1.00
Cu816  Cu    0.50000   0.11978   0.75000   0.00000  Uiso   1.00
H817   H     0.49038   0.09214   0.88907   0.00000  Uiso   1.00
H818   H     0.49991   0.09192   0.61013   0.00000  Uiso   1.00
H819   H     0.49559   0.04929   0.54025   0.00000  Uiso   1.00
H820   H     0.49228   0.28401   0.95889   0.00000  Uiso   1.00
H821   H     0.46573   0.03995   0.65284   0.00000  Uiso   1.00
H822   H     0.39633   0.03924   0.65351   0.00000  Uiso   1.00
H823   H     0.40435   0.09315   0.68113   0.00000  Uiso   1.00
H824   H     0.39872   0.04066   0.71346   0.00000  Uiso   1.00
H825   H     0.58943   0.29334   0.78871   0.00000  Uiso   1.00
H826   H     0.58773   0.29432   0.86345   0.00000  Uiso   1.00
H827   H     0.56242   0.24036   0.85460   0.00000  Uiso   1.00
H828   H     0.49991   0.24141   0.61013   0.00000  Uiso   1.00
H829   H     0.53213   0.29272   0.85996   0.00000  Uiso   1.00
H830   H     0.58943   0.04000   0.78871   0.00000  Uiso   1.00
H831   H     0.53213   0.04061   0.85996   0.00000  Uiso   1.00
H832   H     0.56242   0.09297   0.85460   0.00000  Uiso   1.00
H833   H     0.58773   0.03902   0.86345   0.00000  Uiso   1.00
H834   H     0.46573   0.29338   0.65284   0.00000  Uiso   1.00
H835   H     0.39633   0.29409   0.65351   0.00000  Uiso   1.00
H836   H     0.39872   0.29267   0.71346   0.00000  Uiso   1.00
H837   H     0.40435   0.24019   0.68113   0.00000  Uiso   1.00
H838   H     0.49228   0.04932   0.95889   0.00000  Uiso   1.00
H839   H     0.49558   0.28404   0.54025   0.00000  Uiso   1.00
H840   H     0.37074   0.09191   0.75796   0.00000  Uiso   1.00
H841   H     0.62975   0.24163   0.75320   0.00000  Uiso   1.00
H842   H     0.62975   0.09170   0.75320   0.00000  Uiso   1.00
H843   H     0.37074   0.24143   0.75796   0.00000  Uiso   1.00
H844   H     0.49038   0.24119   0.88907   0.00000  Uiso   1.00
N845   N     0.50000   0.28402   0.75000   0.00000  Uiso   1.00
N846   N     0.50000   0.04931   0.75000   0.00000  Uiso   1.00
N847   N     0.45570   0.04931   0.68339   0.00000  Uiso   1.00
N848   N     0.56094   0.28397   0.79903   0.00000  Uiso   1.00
N849   N     0.56094   0.04936   0.79903   0.00000  Uiso   1.00
N850   N     0.45570   0.28403   0.68339   0.00000  Uiso   1.00
O851   O     0.43988   0.20625   0.75000   0.00000  Uiso   1.00
O852   O     0.56012   0.12709   0.75001   0.00000  Uiso   1.00
O853   O     0.56012   0.20625   0.75001   0.00000  Uiso   1.00
O854   O     0.43988   0.12709   0.75000   0.00000  Uiso   1.00
O855   O     0.49999   0.20627   0.68513   0.00000  Uiso   1.00
O856   O     0.50001   0.12707   0.81487   0.00000  Uiso   1.00
O857   O     0.50001   0.20627   0.81487   0.00000  Uiso   1.00
O858   O     0.49999   0.12707   0.68513   0.00000  Uiso   1.00
C859   C     0.75421   0.16667   0.75171   0.00000  Uiso   1.00
C860   C     0.70967   0.16667   0.75455   0.00000  Uiso   1.00
C861   C     0.80876   0.02491   0.71965   0.00000  Uiso   1.00
C862   C     0.86099   0.30841   0.77712   0.00000  Uiso   1.00
C863   C     0.86099   0.02492   0.77712   0.00000  Uiso   1.00
C864   C     0.80876   0.30842   0.71965   0.00000  Uiso   1.00
C865   C     0.83330   0.16667   0.66433   0.00000  Uiso   1.00
C866   C     0.83136   0.16667   0.83549   0.00000  Uiso   1.00
C867   C     0.82539   0.20872   0.90687   0.00000  Uiso   1.00
C868   C     0.83188   0.12453   0.59241   0.00000  Uiso   1.00
C869   C     0.82737   0.16667   0.88371   0.00000  Uiso   1.00
C870   C     0.91259   0.16667   0.75059   0.00000  Uiso   1.00
C871   C     0.83257   0.16667   0.61573   0.00000  Uiso   1.00
C872   C     0.82539   0.12461   0.90687   0.00000  Uiso   1.00
C873   C     0.83188   0.20881   0.59241   0.00000  Uiso   1.00
C874   C     0.82583   0.12422   0.95309   0.00000  Uiso   1.00
C875   C     0.82956   0.20914   0.54614   0.00000  Uiso   1.00
C876   C     0.82669   0.16667   0.97635   0.00000  Uiso   1.00
C877   C     0.82847   0.16667   0.52289   0.00000  Uiso   1.00
C878   C     0.82583   0.20911   0.95309   0.00000  Uiso   1.00
C879   C     0.82956   0.12420   0.54614   0.00000  Uiso   1.00
C880   C     0.82628   0.08215   0.97643   0.00000  Uiso   1.00
C881   C     0.82827   0.08214   0.52274   0.00000  Uiso   1.00
C882   C     0.82826   0.25119   0.52274   0.00000  Uiso   1.00
C883   C     0.74492   0.05564   0.68333   0.00000  Uiso   1.00
C884   C     0.89366   0.27782   0.84661   0.00000  Uiso   1.00
C885   C     0.89366   0.05552   0.84660   0.00000  Uiso   1.00
C886   C     0.74492   0.27769   0.68333   0.00000  Uiso   1.00
C887   C     0.82627   0.25118   0.97643   0.00000  Uiso   1.00
C888   C     0.68816   0.12469   0.75569   0.00000  Uiso   1.00
C889   C     0.97891   0.20870   0.75385   0.00000  Uiso   1.00
C890   C     0.97891   0.12463   0.75385   0.00000  Uiso   1.00
C891   C     0.68816   0.20864   0.75569   0.00000  Uiso   1.00
C892   C     0.95733   0.16667   0.75241   0.00000  Uiso   1.00
Cu893  Cu    0.83333   0.21355   0.75000   0.00000  Uiso   1.00
Cu894  Cu    0.83333   0.11978   0.75000   0.00000  Uiso   1.00
H895   H     0.82371   0.09214   0.88907   0.00000  Uiso   1.00
H896   H     0.83325   0.09192   0.61013   0.00000  Uiso   1.00
H897   H     0.82892   0.04929   0.54025   0.00000  Uiso   1.00
H898   H     0.82561   0.28401   0.95889   0.00000  Uiso   1.00
H899   H     0.79906   0.03995   0.65284   0.00000  Uiso   1.00
H900   H     0.72966   0.03924   0.65351   0.00000  Uiso   1.00
H901   H     0.73769   0.09315   0.68113   0.00000  Uiso   1.00
H902   H     0.73206   0.04066   0.71346   0.00000  Uiso   1.00
H903   H     0.92276   0.29334   0.78871   0.00000  Uiso   1.00
H904   H     0.92106   0.29432   0.86345   0.00000  Uiso   1.00
H905   H     0.89575   0.24036   0.85460   0.00000  Uiso   1.00
H906   H     0.83324   0.24141   0.61013   0.00000  Uiso   1.00
H907   H     0.86546   0.29272   0.85996   0.00000  Uiso   1.00
H908   H     0.92276   0.04000   0.78871   0.00000  Uiso   1.00
H909   H     0.86546   0.04061   0.85996   0.00000  Uiso   1.00
H910   H     0.89576   0.09297   0.85460   0.00000  Uiso   1.00
H911   H     0.92106   0.03902   0.86345   0.00000  Uiso   1.00
H912   H     0.79906   0.29338   0.65284   0.00000  Uiso   1.00
H913   H     0.72966   0.29409   0.65351   0.00000  Uiso   1.00
H914   H     0.73206   0.29267   0.71346   0.00000  Uiso   1.00
H915   H     0.73769   0.24019   0.68113   0.00000  Uiso   1.00
H916   H     0.82562   0.04932   0.95889   0.00000  Uiso   1.00
H917   H     0.82892   0.28404   0.54025   0.00000  Uiso   1.00
H918   H     0.70408   0.09191   0.75796   0.00000  Uiso   1.00
H919   H     0.96308   0.24163   0.75320   0.00000  Uiso   1.00
H920   H     0.96308   0.09170   0.75320   0.00000  Uiso   1.00
H921   H     0.70408   0.24143   0.75796   0.00000  Uiso   1.00
H922   H     0.82371   0.24119   0.88907   0.00000  Uiso   1.00
N923   N     0.83333   0.28402   0.75000   0.00000  Uiso   1.00
N924   N     0.83333   0.04931   0.75000   0.00000  Uiso   1.00
N925   N     0.78903   0.04931   0.68339   0.00000  Uiso   1.00
N926   N     0.89427   0.28397   0.79903   0.00000  Uiso   1.00
N927   N     0.89427   0.04936   0.79903   0.00000  Uiso   1.00
N928   N     0.78903   0.28403   0.68339   0.00000  Uiso   1.00
O929   O     0.77321   0.20625   0.75000   0.00000  Uiso   1.00
O930   O     0.89345   0.12709   0.75001   0.00000  Uiso   1.00
O931   O     0.89345   0.20625   0.75001   0.00000  Uiso   1.00
O932   O     0.77321   0.12709   0.75000   0.00000  Uiso   1.00
O933   O     0.83332   0.20627   0.68513   0.00000  Uiso   1.00
O934   O     0.83334   0.12707   0.81487   0.00000  Uiso   1.00
O935   O     0.83334   0.20627   0.81487   0.00000  Uiso   1.00
O936   O     0.83332   0.12707   0.68513   0.00000  Uiso   1.00
C937   C     0.08754   0.50000   0.75171   0.00000  Uiso   1.00
C938   C     0.04301   0.50000   0.75455   0.00000  Uiso   1.00
C939   C     0.14210   0.35824   0.71965   0.00000  Uiso   1.00
C940   C     0.19432   0.64174   0.77712   0.00000  Uiso   1.00
C941   C     0.19432   0.35826   0.77712   0.00000  Uiso   1.00
C942   C     0.14210   0.64176   0.71965   0.00000  Uiso   1.00
C943   C     0.16664   0.50000   0.66433   0.00000  Uiso   1.00
C944   C     0.16469   0.50000   0.83549   0.00000  Uiso   1.00
C945   C     0.15873   0.54205   0.90687   0.00000  Uiso   1.00
C946   C     0.16522   0.45786   0.59241   0.00000  Uiso   1.00
C947   C     0.16070   0.50000   0.88371   0.00000  Uiso   1.00
C948   C     0.24592   0.50000   0.75059   0.00000  Uiso   1.00
C949   C     0.16590   0.50000   0.61573   0.00000  Uiso   1.00
C950   C     0.15873   0.45795   0.90687   0.00000  Uiso   1.00
C951   C     0.16521   0.54214   0.59241   0.00000  Uiso   1.00
C952   C     0.15917   0.45756   0.95309   0.00000  Uiso   1.00
C953   C     0.16290   0.54247   0.54614   0.00000  Uiso   1.00
C954   C     0.16002   0.50000   0.97635   0.00000  Uiso   1.00
C955   C     0.16180   0.50000   0.52289   0.00000  Uiso   1.00
C956   C     0.15916   0.54244   0.95309   0.00000  Uiso   1.00
C957   C     0.16290   0.45753   0.54614   0.00000  Uiso   1.00
C958   C     0.15961   0.41549   0.97643   0.00000  Uiso   1.00
C959   C     0.16160   0.41547   0.52274   0.00000  Uiso   1.00
C960   C     0.16160   0.58453   0.52274   0.00000  Uiso   1.00
C961   C     0.07825   0.38897   0.68333   0.00000  Uiso   1.00
C962   C     0.22699   0.61115   0.84661   0.00000  Uiso   1.00
C963   C     0.22700   0.38885   0.84660   0.00000  Uiso   1.00
C964   C     0.07825   0.61103   0.68333   0.00000  Uiso   1.00
C965   C     0.15961   0.58451   0.97643   0.00000  Uiso   1.00
C966   C     0.02150   0.45802   0.75569   0.00000  Uiso   1.00
C967   C     0.31225   0.54203   0.75385   0.00000  Uiso   1.00
C968   C     0.31225   0.45797   0.75385   0.00000  Uiso   1.00
C969   C     0.02150   0.54198   0.75569   0.00000  Uiso   1.00
C970   C     0.29067   0.50000   0.75241   0.00000  Uiso   1.00
Cu971  Cu    0.16667   0.54689   0.75000   0.00000  Uiso   1.00
Cu972  Cu    0.16667   0.45311   0.75000   0.00000  Uiso   1.00
H973   H     0.15705   0.42547   0.88907   0.00000  Uiso   1.00
H974   H     0.16658   0.42525   0.61013   0.00000  Uiso   1.00
H975   H     0.16225   0.38263   0.54025   0.00000  Uiso   1.00
H976   H     0.15895   0.61734   0.95889   0.00000  Uiso   1.00
H977   H     0.13239   0.37329   0.65284   0.00000  Uiso   1.00
H978   H     0.06299   0.37257   0.65351   0.00000  Uiso   1.00
H979   H     0.07102   0.42648   0.68113   0.00000  Uiso   1.00
H980   H     0.06539   0.37400   0.71346   0.00000  Uiso   1.00
H981   H     0.25610   0.62667   0.78871   0.00000  Uiso   1.00
H982   H     0.25439   0.62765   0.86345   0.00000  Uiso   1.00
H983   H     0.22909   0.57370   0.85460   0.00000  Uiso   1.00
H984   H     0.16658   0.57475   0.61013   0.00000  Uiso   1.00
H985   H     0.19879   0.62606   0.85996   0.00000  Uiso   1.00
H986   H     0.25610   0.37333   0.78871   0.00000  Uiso   1.00
H987   H     0.19880   0.37395   0.85996   0.00000  Uiso   1.00
H988   H     0.22909   0.42631   0.85460   0.00000  Uiso   1.00
H989   H     0.25440   0.37235   0.86345   0.00000  Uiso   1.00
H990   H     0.13239   0.62671   0.65284   0.00000  Uiso   1.00
H991   H     0.06299   0.62743   0.65351   0.00000  Uiso   1.00
H992   H     0.06539   0.62600   0.71346   0.00000  Uiso   1.00
H993   H     0.07102   0.57352   0.68113   0.00000  Uiso   1.00
H994   H     0.15895   0.38266   0.95889   0.00000  Uiso   1.00
H995   H     0.16225   0.61737   0.54025   0.00000  Uiso   1.00
H996   H     0.03741   0.42524   0.75796   0.00000  Uiso   1.00
H997   H     0.29642   0.57497   0.75320   0.00000  Uiso   1.00
H998   H     0.29642   0.42503   0.75320   0.00000  Uiso   1.00
H999   H     0.03741   0.57476   0.75796   0.00000  Uiso   1.00
H1000  H     0.15704   0.57453   0.88907   0.00000  Uiso   1.00
N1001  N     0.16667   0.61736   0.75000   0.00000  Uiso   1.00
N1002  N     0.16667   0.38264   0.75000   0.00000  Uiso   1.00
N1003  N     0.12237   0.38264   0.68339   0.00000  Uiso   1.00
N1004  N     0.22760   0.61731   0.79903   0.00000  Uiso   1.00
N1005  N     0.22760   0.38269   0.79903   0.00000  Uiso   1.00
N1006  N     0.12237   0.61736   0.68339   0.00000  Uiso   1.00
O1007  O     0.10655   0.53958   0.75000   0.00000  Uiso   1.00
O1008  O     0.22679   0.46042   0.75001   0.00000  Uiso   1.00
O1009  O     0.22679   0.53958   0.75001   0.00000  Uiso   1.00
O1010  O     0.10655   0.46042   0.75000   0.00000  Uiso   1.00
O1011  O     0.16666   0.53960   0.68513   0.00000  Uiso   1.00
O1012  O     0.16668   0.46040   0.81487   0.00000  Uiso   1.00
O1013  O     0.16668   0.53960   0.81487   0.00000  Uiso   1.00
O1014  O     0.16666   0.46040   0.68513   0.00000  Uiso   1.00
C1015  C     0.42087   0.50000   0.75171   0.00000  Uiso   1.00
C1016  C     0.37634   0.50000   0.75455   0.00000  Uiso   1.00
C1017  C     0.47543   0.35824   0.71965   0.00000  Uiso   1.00
C1018  C     0.52766   0.64174   0.77712   0.00000  Uiso   1.00
C1019  C     0.52766   0.35826   0.77712   0.00000  Uiso   1.00
C1020  C     0.47543   0.64176   0.71965   0.00000  Uiso   1.00
C1021  C     0.49997   0.50000   0.66433   0.00000  Uiso   1.00
C1022  C     0.49802   0.50000   0.83549   0.00000  Uiso   1.00
C1023  C     0.49206   0.54205   0.90687   0.00000  Uiso   1.00
C1024  C     0.49855   0.45786   0.59241   0.00000  Uiso   1.00
C1025  C     0.49404   0.50000   0.88371   0.00000  Uiso   1.00
C1026  C     0.57926   0.50000   0.75059   0.00000  Uiso   1.00
C1027  C     0.49924   0.50000   0.61573   0.00000  Uiso   1.00
C1028  C     0.49206   0.45795   0.90687   0.00000  Uiso   1.00
C1029  C     0.49855   0.54214   0.59241   0.00000  Uiso   1.00
C1030  C     0.49250   0.45756   0.95309   0.00000  Uiso   1.00
C1031  C     0.49623   0.54247   0.54614   0.00000  Uiso   1.00
C1032  C     0.49335   0.50000   0.97635   0.00000  Uiso   1.00
C1033  C     0.49514   0.50000   0.52289   0.00000  Uiso   1.00
C1034  C     0.49250   0.54244   0.95309   0.00000  Uiso   1.00
C1035  C     0.49623   0.45753   0.54614   0.00000  Uiso   1.00
C1036  C     0.49294   0.41549   0.97643   0.00000  Uiso   1.00
C1037  C     0.49493   0.41547   0.52274   0.00000  Uiso   1.00
C1038  C     0.49493   0.58453   0.52274   0.00000  Uiso   1.00
C1039  C     0.41159   0.38897   0.68333   0.00000  Uiso   1.00
C1040  C     0.56033   0.61115   0.84661   0.00000  Uiso   1.00
C1041  C     0.56033   0.38885   0.84660   0.00000  Uiso   1.00
C1042  C     0.41159   0.61103   0.68333   0.00000  Uiso   1.00
C1043  C     0.49294   0.58451   0.97643   0.00000  Uiso   1.00
C1044  C     0.35483   0.45802   0.75569   0.00000  Uiso   1.00
C1045  C     0.64558   0.54203   0.75385   0.00000  Uiso   1.00
C1046  C     0.64558   0.45797   0.75385   0.00000  Uiso   1.00
C1047  C     0.35483   0.54198   0.75569   0.00000  Uiso   1.00
C1048  C     0.62400   0.50000   0.75241   0.00000  Uiso   1.00
Cu1049 Cu    0.50000   0.54689   0.75000   0.00000  Uiso   1.00
Cu1050 Cu    0.50000   0.45311   0.75000   0.00000  Uiso   1.00
H1051  H     0.49038   0.42547   0.88907   0.00000  Uiso   1.00
H1052  H     0.49991   0.42525   0.61013   0.00000  Uiso   1.00
H1053  H     0.49559   0.38263   0.54025   0.00000  Uiso   1.00
H1054  H     0.49228   0.61734   0.95889   0.00000  Uiso   1.00
H1055  H     0.46573   0.37329   0.65284   0.00000  Uiso   1.00
H1056  H     0.39633   0.37257   0.65351   0.00000  Uiso   1.00
H1057  H     0.40435   0.42648   0.68113   0.00000  Uiso   1.00
H1058  H     0.39872   0.37400   0.71346   0.00000  Uiso   1.00
H1059  H     0.58943   0.62667   0.78871   0.00000  Uiso   1.00
H1060  H     0.58773   0.62765   0.86345   0.00000  Uiso   1.00
H1061  H     0.56242   0.57370   0.85460   0.00000  Uiso   1.00
H1062  H     0.49991   0.57475   0.61013   0.00000  Uiso   1.00
H1063  H     0.53213   0.62606   0.85996   0.00000  Uiso   1.00
H1064  H     0.58943   0.37333   0.78871   0.00000  Uiso   1.00
H1065  H     0.53213   0.37395   0.85996   0.00000  Uiso   1.00
H1066  H     0.56242   0.42631   0.85460   0.00000  Uiso   1.00
H1067  H     0.58773   0.37235   0.86345   0.00000  Uiso   1.00
H1068  H     0.46573   0.62671   0.65284   0.00000  Uiso   1.00
H1069  H     0.39633   0.62743   0.65351   0.00000  Uiso   1.00
H1070  H     0.39872   0.62600   0.71346   0.00000  Uiso   1.00
H1071  H     0.40435   0.57352   0.68113   0.00000  Uiso   1.00
H1072  H     0.49228   0.38266   0.95889   0.00000  Uiso   1.00
H1073  H     0.49558   0.61737   0.54025   0.00000  Uiso   1.00
H1074  H     0.37074   0.42524   0.75796   0.00000  Uiso   1.00
H1075  H     0.62975   0.57497   0.75320   0.00000  Uiso   1.00
H1076  H     0.62975   0.42503   0.75320   0.00000  Uiso   1.00
H1077  H     0.37074   0.57476   0.75796   0.00000  Uiso   1.00
H1078  H     0.49038   0.57453   0.88907   0.00000  Uiso   1.00
N1079  N     0.50000   0.61736   0.75000   0.00000  Uiso   1.00
N1080  N     0.50000   0.38264   0.75000   0.00000  Uiso   1.00
N1081  N     0.45570   0.38264   0.68339   0.00000  Uiso   1.00
N1082  N     0.56094   0.61731   0.79903   0.00000  Uiso   1.00
N1083  N     0.56094   0.38269   0.79903   0.00000  Uiso   1.00
N1084  N     0.45570   0.61736   0.68339   0.00000  Uiso   1.00
O1085  O     0.43988   0.53958   0.75000   0.00000  Uiso   1.00
O1086  O     0.56012   0.46042   0.75001   0.00000  Uiso   1.00
O1087  O     0.56012   0.53958   0.75001   0.00000  Uiso   1.00
O1088  O     0.43988   0.46042   0.75000   0.00000  Uiso   1.00
O1089  O     0.49999   0.53960   0.68513   0.00000  Uiso   1.00
O1090  O     0.50001   0.46040   0.81487   0.00000  Uiso   1.00
O1091  O     0.50001   0.53960   0.81487   0.00000  Uiso   1.00
O1092  O     0.49999   0.46040   0.68513   0.00000  Uiso   1.00
C1093  C     0.75421   0.50000   0.75171   0.00000  Uiso   1.00
C1094  C     0.70967   0.50000   0.75455   0.00000  Uiso   1.00
C1095  C     0.80876   0.35824   0.71965   0.00000  Uiso   1.00
C1096  C     0.86099   0.64174   0.77712   0.00000  Uiso   1.00
C1097  C     0.86099   0.35826   0.77712   0.00000  Uiso   1.00
C1098  C     0.80876   0.64176   0.71965   0.00000  Uiso   1.00
C1099  C     0.83330   0.50000   0.66433   0.00000  Uiso   1.00
C1100  C     0.83136   0.50000   0.83549   0.00000  Uiso   1.00
C1101  C     0.82539   0.54205   0.90687   0.00000  Uiso   1.00
C1102  C     0.83188   0.45786   0.59241   0.00000  Uiso   1.00
C1103  C     0.82737   0.50000   0.88371   0.00000  Uiso   1.00
C1104  C     0.91259   0.50000   0.75059   0.00000  Uiso   1.00
C1105  C     0.83257   0.50000   0.61573   0.00000  Uiso   1.00
C1106  C     0.82539   0.45795   0.90687   0.00000  Uiso   1.00
C1107  C     0.83188   0.54214   0.59241   0.00000  Uiso   1.00
C1108  C     0.82583   0.45756   0.95309   0.00000  Uiso   1.00
C1109  C     0.82956   0.54247   0.54614   0.00000  Uiso   1.00
C1110  C     0.82669   0.50000   0.97635   0.00000  Uiso   1.00
C1111  C     0.82847   0.50000   0.52289   0.00000  Uiso   1.00
C1112  C     0.82583   0.54244   0.95309   0.00000  Uiso   1.00
C1113  C     0.82956   0.45753   0.54614   0.00000  Uiso   1.00
C1114  C     0.82628   0.41549   0.97643   0.00000  Uiso   1.00
C1115  C     0.82827   0.41547   0.52274   0.00000  Uiso   1.00
C1116  C     0.82826   0.58453   0.52274   0.00000  Uiso   1.00
C1117  C     0.74492   0.38897   0.68333   0.00000  Uiso   1.00
C1118  C     0.89366   0.61115   0.84661   0.00000  Uiso   1.00
C1119  C     0.89366   0.38885   0.84660   0.00000  Uiso   1.00
C1120  C     0.74492   0.61103   0.68333   0.00000  Uiso   1.00
C1121  C     0.82627   0.58451   0.97643   0.00000  Uiso   1.00
C1122  C     0.68816   0.45802   0.75569   0.00000  Uiso   1.00
C1123  C     0.97891   0.54203   0.75385   0.00000  Uiso   1.00
C1124  C     0.97891   0.45797   0.75385   0.00000  Uiso   1.00
C1125  C     0.68816   0.54198   0.75569   0.00000  Uiso   1.00
C1126  C     0.95733   0.50000   0.75241   0.00000  Uiso   1.00
Cu1127 Cu    0.83333   0.54689   0.75000   0.00000  Uiso   1.00
Cu1128 Cu    0.83333   0.45311   0.75000   0.00000  Uiso   1.00
H1129  H     0.82371   0.42547   0.88907   0.00000  Uiso   1.00
H1130  H     0.83325   0.42525   0.61013   0.00000  Uiso   1.00
H1131  H     0.82892   0.38263   0.54025   0.00000  Uiso   1.00
H1132  H     0.82561   0.61734   0.95889   0.00000  Uiso   1.00
H1133  H     0.79906   0.37329   0.65284   0.00000  Uiso   1.00
H1134  H     0.72966   0.37257   0.65351   0.00000  Uiso   1.00
H1135  H     0.73769   0.42648   0.68113   0.00000  Uiso   1.00
H1136  H     0.73206   0.37400   0.71346   0.00000  Uiso   1.00
H1137  H     0.92276   0.62667   0.78871   0.00000  Uiso   1.00
H1138  H     0.92106   0.62765   0.86345   0.00000  Uiso   1.00
H1139  H     0.89575   0.57370   0.85460   0.00000  Uiso   1.00
H1140  H     0.83324   0.57475   0.61013   0.00000  Uiso   1.00
H1141  H     0.86546   0.62606   0.85996   0.00000  Uiso   1.00
H1142  H     0.92276   0.37333   0.78871   0.00000  Uiso   1.00
H1143  H     0.86546   0.37395   0.85996   0.00000  Uiso   1.00
H1144  H     0.89576   0.42631   0.85460   0.00000  Uiso   1.00
H1145  H     0.92106   0.37235   0.86345   0.00000  Uiso   1.00
H1146  H     0.79906   0.62671   0.65284   0.00000  Uiso   1.00
H1147  H     0.72966   0.62743   0.65351   0.00000  Uiso   1.00
H1148  H     0.73206   0.62600   0.71346   0.00000  Uiso   1.00
H1149  H     0.73769   0.57352   0.68113   0.00000  Uiso   1.00
H1150  H     0.82562   0.38266   0.95889   0.00000  Uiso   1.00
H1151  H     0.82892   0.61737   0.54025   0.00000  Uiso   1.00
H1152  H     0.70408   0.42524   0.75796   0.00000  Uiso   1.00
H1153  H     0.96308   0.57497   0.75320   0.00000  Uiso   1.00
H1154  H     0.96308   0.42503   0.75320   0.00000  Uiso   1.00
H1155  H     0.70408   0.57476   0.75796   0.00000  Uiso   1.00
H1156  H     0.82371   0.57453   0.88907   0.00000  Uiso   1.00
N1157  N     0.83333   0.61736   0.75000   0.00000  Uiso   1.00
N1158  N     0.83333   0.38264   0.75000   0.00000  Uiso   1.00
N1159  N     0.78903   0.38264   0.68339   0.00000  Uiso   1.00
N1160  N     0.89427   0.61731   0.79903   0.00000  Uiso   1.00
N1161  N     0.89427   0.38269   0.79903   0.00000  Uiso   1.00
N1162  N     0.78903   0.61736   0.68339   0.00000  Uiso   1.00
O1163  O     0.77321   0.53958   0.75000   0.00000  Uiso   1.00
O1164  O     0.89345   0.46042   0.75001   0.00000  Uiso   1.00
O1165  O     0.89345   0.53958   0.75001   0.00000  Uiso   1.00
O1166  O     0.77321   0.46042   0.75000   0.00000  Uiso   1.00
O1167  O     0.83332   0.53960   0.68513   0.00000  Uiso   1.00
O1168  O     0.83334   0.46040   0.81487   0.00000  Uiso   1.00
O1169  O     0.83334   0.53960   0.81487   0.00000  Uiso   1.00
O1170  O     0.83332   0.46040   0.68513   0.00000  Uiso   1.00
C1171  C     0.08754   0.83333   0.75171   0.00000  Uiso   1.00
C1172  C     0.04301   0.83333   0.75455   0.00000  Uiso   1.00
C1173  C     0.14210   0.69158   0.71965   0.00000  Uiso   1.00
C1174  C     0.19432   0.97508   0.77712   0.00000  Uiso   1.00
C1175  C     0.19432   0.69159   0.77712   0.00000  Uiso   1.00
C1176  C     0.14210   0.97509   0.71965   0.00000  Uiso   1.00
C1177  C     0.16664   0.83333   0.66433   0.00000  Uiso   1.00
C1178  C     0.16469   0.83333   0.83549   0.00000  Uiso   1.00
C1179  C     0.15873   0.87539   0.90687   0.00000  Uiso   1.00
C1180  C     0.16522   0.79119   0.59241   0.00000  Uiso   1.00
C1181  C     0.16070   0.83333   0.88371   0.00000  Uiso   1.00
C1182  C     0.24592   0.83333   0.75059   0.00000  Uiso   1.00
C1183  C     0.16590   0.83333   0.61573   0.00000  Uiso   1.00
C1184  C     0.15873   0.79128   0.90687   0.00000  Uiso   1.00
C1185  C     0.16521   0.87547   0.59241   0.00000  Uiso   1.00
C1186  C     0.15917   0.79089   0.95309   0.00000  Uiso   1.00
C1187  C     0.16290   0.87580   0.54614   0.00000  Uiso   1.00
C1188  C     0.16002   0.83333   0.97635   0.00000  Uiso   1.00
C1189  C     0.16180   0.83333   0.52289   0.00000  Uiso   1.00
C1190  C     0.15916   0.87578   0.95309   0.00000  Uiso   1.00
C1191  C     0.16290   0.79086   0.54614   0.00000  Uiso   1.00
C1192  C     0.15961   0.74882   0.97643   0.00000  Uiso   1.00
C1193  C     0.16160   0.74881   0.52274   0.00000  Uiso   1.00
C1194  C     0.16160   0.91786   0.52274   0.00000  Uiso   1.00
C1195  C     0.07825   0.72231   0.68333   0.00000  Uiso   1.00
C1196  C     0.22699   0.94448   0.84661   0.00000  Uiso   1.00
C1197  C     0.22700   0.72218   0.84660   0.00000  Uiso   1.00
C1198  C     0.07825   0.94436   0.68333   0.00000  Uiso   1.00
C1199  C     0.15961   0.91785   0.97643   0.00000  Uiso   1.00
C1200  C     0.02150   0.79136   0.75569   0.00000  Uiso   1.00
C1201  C     0.31225   0.87537   0.75385   0.00000  Uiso   1.00
C1202  C     0.31225   0.79130   0.75385   0.00000  Uiso   1.00
C1203  C     0.02150   0.87531   0.75569   0.00000  Uiso   1.00
C1204  C     0.29067   0.83333   0.75241   0.00000  Uiso   1.00
Cu1205 Cu    0.16667   0.88022   0.75000   0.00000  Uiso   1.00
Cu1206 Cu    0.16667   0.78645   0.75000   0.00000  Uiso   1.00
H1207  H     0.15705   0.75881   0.88907   0.00000  Uiso   1.00
H1208  H     0.16658   0.75859   0.61013   0.00000  Uiso   1.00
H1209  H     0.16225   0.71596   0.54025   0.00000  Uiso   1.00
H1210  H     0.15895   0.95068   0.95889   0.00000  Uiso   1.00
H1211  H     0.13239   0.70662   0.65284   0.00000  Uiso   1.00
H1212  H     0.06299   0.70591   0.65351   0.00000  Uiso   1.00
H1213  H     0.07102   0.75981   0.68113   0.00000  Uiso   1.00
H1214  H     0.06539   0.70733   0.71346   0.00000  Uiso   1.00
H1215  H     0.25610   0.96000   0.78871   0.00000  Uiso   1.00
H1216  H     0.25439   0.96099   0.86345   0.00000  Uiso   1.00
H1217  H     0.22909   0.90703   0.85460   0.00000  Uiso   1.00
H1218  H     0.16658   0.90808   0.61013   0.00000  Uiso   1.00
H1219  H     0.19879   0.95939   0.85996   0.00000  Uiso   1.00
H1220  H     0.25610   0.70666   0.78871   0.00000  Uiso   1.00
H1221  H     0.19880   0.70728   0.85996   0.00000  Uiso   1.00
H1222  H     0.22909   0.75964   0.85460   0.00000  Uiso   1.00
H1223  H     0.25440   0.70568   0.86345   0.00000  Uiso   1.00
H1224  H     0.13239   0.96005   0.65284   0.00000  Uiso   1.00
H1225  H     0.06299   0.96076   0.65351   0.00000  Uiso   1.00
H1226  H     0.06539   0.95934   0.71346   0.00000  Uiso   1.00
H1227  H     0.07102   0.90685   0.68113   0.00000  Uiso   1.00
H1228  H     0.15895   0.71599   0.95889   0.00000  Uiso   1.00
H1229  H     0.16225   0.95071   0.54025   0.00000  Uiso   1.00
H1230  H     0.03741   0.75857   0.75796   0.00000  Uiso   1.00
H1231  H     0.29642   0.90830   0.75320   0.00000  Uiso   1.00
H1232  H     0.29642   0.75837   0.75320   0.00000  Uiso   1.00
H1233  H     0.03741   0.90809   0.75796   0.00000  Uiso   1.00
H1234  H     0.15704   0.90786   0.88907   0.00000  Uiso   1.00
N1235  N     0.16667   0.95069   0.75000   0.00000  Uiso   1.00
N1236  N     0.16667   0.71598   0.75000   0.00000  Uiso   1.00
N1237  N     0.12237   0.71597   0.68339   0.00000  Uiso   1.00
N1238  N     0.22760   0.95064   0.79903   0.00000  Uiso   1.00
N1239  N     0.22760   0.71603   0.79903   0.00000  Uiso   1.00
N1240  N     0.12237   0.95069   0.68339   0.00000  Uiso   1.00
O1241  O     0.10655   0.87291   0.75000   0.00000  Uiso   1.00
O1242  O     0.22679   0.79375   0.75001   0.00000  Uiso   1.00
O1243  O     0.22679   0.87291   0.75001   0.00000  Uiso   1.00
O1244  O     0.10655   0.79375   0.75000   0.00000  Uiso   1.00
O1245  O     0.16666   0.87293   0.68513   0.00000  Uiso   1.00
O1246  O     0.16668   0.79373   0.81487   0.00000  Uiso   1.00
O1247  O     0.16668   0.87293   0.81487   0.00000  Uiso   1.00
O1248  O     0.16666   0.79373   0.68513   0.00000  Uiso   1.00
C1249  C     0.42087   0.83333   0.75171   0.00000  Uiso   1.00
C1250  C     0.37634   0.83333   0.75455   0.00000  Uiso   1.00
C1251  C     0.47543   0.69158   0.71965   0.00000  Uiso   1.00
C1252  C     0.52766   0.97508   0.77712   0.00000  Uiso   1.00
C1253  C     0.52766   0.69159   0.77712   0.00000  Uiso   1.00
C1254  C     0.47543   0.97509   0.71965   0.00000  Uiso   1.00
C1255  C     0.49997   0.83333   0.66433   0.00000  Uiso   1.00
C1256  C     0.49802   0.83333   0.83549   0.00000  Uiso   1.00
C1257  C     0.49206   0.87539   0.90687   0.00000  Uiso   1.00
C1258  C     0.49855   0.79119   0.59241   0.00000  Uiso   1.00
C1259  C     0.49404   0.83333   0.88371   0.00000  Uiso   1.00
C1260  C     0.57926   0.83333   0.75059   0.00000  Uiso   1.00
C1261  C     0.49924   0.83333   0.61573   0.00000  Uiso   1.00
C1262  C     0.49206   0.79128   0.90687   0.00000  Uiso   1.00
C1263  C     0.49855   0.87547   0.59241   0.00000  Uiso   1.00
C1264  C     0.49250   0.79089   0.95309   0.00000  Uiso   1.00
C1265  C     0.49623   0.87580   0.54614   0.00000  Uiso   1.00
C1266  C     0.49335   0.83333   0.97635   0.00000  Uiso   1.00
C1267  C     0.49514   0.83333   0.52289   0.00000  Uiso   1.00
C1268  C     0.49250   0.87578   0.95309   0.00000  Uiso   1.00
C1269  C     0.49623   0.79086   0.54614   0.00000  Uiso   1.00
C1270  C     0.49294   0.74882   0.97643   0.00000  Uiso   1.00
C1271  C     0.49493   0.74881   0.52274   0.00000  Uiso   1.00
C1272  C     0.49493   0.91786   0.52274   0.00000  Uiso   1.00
C1273  C     0.41159   0.72231   0.68333   0.00000  Uiso   1.00
C1274  C     0.56033   0.94448   0.84661   0.00000  Uiso   1.00
C1275  C     0.56033   0.72218   0.84660   0.00000  Uiso   1.00
C1276  C     0.41159   0.94436   0.68333   0.00000  Uiso   1.00
C1277  C     0.49294   0.91785   0.97643   0.00000  Uiso   1.00
C1278  C     0.35483   0.79136   0.75569   0.00000  Uiso   1.00
C1279  C     0.64558   0.87537   0.75385   0.00000  Uiso   1.00
C1280  C     0.64558   0.79130   0.75385   0.00000  Uiso   1.00
C1281  C     0.35483   0.87531   0.75569   0.00000  Uiso   1.00
C1282  C     0.62400   0.83333   0.75241   0.00000  Uiso   1.00
Cu1283 Cu    0.50000   0.88022   0.75000   0.00000  Uiso   1.00
Cu1284 Cu    0.50000   0.78645   0.75000   0.00000  Uiso   1.00
H1285  H     0.49038   0.75881   0.88907   0.00000  Uiso   1.00
H1286  H     0.49991   0.75859   0.61013   0.00000  Uiso   1.00
H1287  H     0.49559   0.71596   0.54025   0.00000  Uiso   1.00
H1288  H     0.49228   0.95068   0.95889   0.00000  Uiso   1.00
H1289  H     0.46573   0.70662   0.65284   0.00000  Uiso   1.00
H1290  H     0.39633   0.70591   0.65351   0.00000  Uiso   1.00
H1291  H     0.40435   0.75981   0.68113   0.00000  Uiso   1.00
H1292  H     0.39872   0.70733   0.71346   0.00000  Uiso   1.00
H1293  H     0.58943   0.96000   0.78871   0.00000  Uiso   1.00
H1294  H     0.58773   0.96099   0.86345   0.00000  Uiso   1.00
H1295  H     0.56242   0.90703   0.85460   0.00000  Uiso   1.00
H1296  H     0.49991   0.90808   0.61013   0.00000  Uiso   1.00
H1297  H     0.53213   0.95939   0.85996   0.00000  Uiso   1.00
H1298  H     0.58943   0.70666   0.78871   0.00000  Uiso   1.00
H1299  H     0.53213   0.70728   0.85996   0.00000  Uiso   1.00
H1300  H     0.56242   0.75964   0.85460   0.00000  Uiso   1.00
H1301  H     0.58773   0.70568   0.86345   0.00000  Uiso   1.00
H1302  H     0.46573   0.96005   0.65284   0.00000  Uiso   1.00
H1303  H     0.39633   0.96076   0.65351   0.00000  Uiso   1.00
H1304  H     0.39872   0.95934   0.71346   0.00000  Uiso   1.00
H1305  H     0.40435   0.90685   0.68113   0.00000  Uiso   1.00
H1306  H     0.49228   0.71599   0.95889   0.00000  Uiso   1.00
H1307  H     0.49558   0.95071   0.54025   0.00000  Uiso   1.00
H1308  H     0.37074   0.75857   0.75796   0.00000  Uiso   1.00
H1309  H     0.62975   0.90830   0.75320   0.00000  Uiso   1.00
H1310  H     0.62975   0.75837   0.75320   0.00000  Uiso   1.00
H1311  H     0.37074   0.90809   0.75796   0.00000  Uiso   1.00
H1312  H     0.49038   0.90786   0.88907   0.00000  Uiso   1.00
N1313  N     0.50000   0.95069   0.75000   0.00000  Uiso   1.00
N1314  N     0.50000   0.71598   0.75000   0.00000  Uiso   1.00
N1315  N     0.45570   0.71597   0.68339   0.00000  Uiso   1.00
N1316  N     0.56094   0.95064   0.79903   0.00000  Uiso   1.00
N1317  N     0.56094   0.71603   0.79903   0.00000  Uiso   1.00
N1318  N     0.45570   0.95069   0.68339   0.00000  Uiso   1.00
O1319  O     0.43988   0.87291   0.75000   0.00000  Uiso   1.00
O1320  O     0.56012   0.79375   0.75001   0.00000  Uiso   1.00
O1321  O     0.56012   0.87291   0.75001   0.00000  Uiso   1.00
O1322  O     0.43988   0.79375   0.75000   0.00000  Uiso   1.00
O1323  O     0.49999   0.87293   0.68513   0.00000  Uiso   1.00
O1324  O     0.50001   0.79373   0.81487   0.00000  Uiso   1.00
O1325  O     0.50001   0.87293   0.81487   0.00000  Uiso   1.00
O1326  O     0.49999   0.79373   0.68513   0.00000  Uiso   1.00
C1327  C     0.75421   0.83333   0.75171   0.00000  Uiso   1.00
C1328  C     0.70967   0.83333   0.75455   0.00000  Uiso   1.00
C1329  C     0.80876   0.69158   0.71965   0.00000  Uiso   1.00
C1330  C     0.86099   0.97508   0.77712   0.00000  Uiso   1.00
C1331  C     0.86099   0.69159   0.77712   0.00000  Uiso   1.00
C1332  C     0.80876   0.97509   0.71965   0.00000  Uiso   1.00
C1333  C     0.83330   0.83333   0.66433   0.00000  Uiso   1.00
C1334  C     0.83136   0.83333   0.83549   0.00000  Uiso   1.00
C1335  C     0.82539   0.87539   0.90687   0.00000  Uiso   1.00
C1336  C     0.83188   0.79119   0.59241   0.00000  Uiso   1.00
C1337  C     0.82737   0.83333   0.88371   0.00000  Uiso   1.00
C1338  C     0.91259   0.83333   0.75059   0.00000  Uiso   1.00
C1339  C     0.83257   0.83333   0.61573   0.00000  Uiso   1.00
C1340  C     0.82539   0.79128   0.90687   0.00000  Uiso   1.00
C1341  C     0.83188   0.87547   0.59241   0.00000  Uiso   1.00
C1342  C     0.82583   0.79089   0.95309   0.00000  Uiso   1.00
C1343  C     0.82956   0.87580   0.54614   0.00000  Uiso   1.00
C1344  C     0.82669   0.83333   0.97635   0.00000  Uiso   1.00
C1345  C     0.82847   0.83333   0.52289   0.00000  Uiso   1.00
C1346  C     0.82583   0.87578   0.95309   0.00000  Uiso   1.00
C1347  C     0.82956   0.79086   0.54614   0.00000  Uiso   1.00
C1348  C     0.82628   0.74882   0.97643   0.00000  Uiso   1.00
C1349  C     0.82827   0.74881   0.52274   0.00000  Uiso   1.00
C1350  C     0.82826   0.91786   0.52274   0.00000  Uiso   1.00
C1351  C     0.74492   0.72231   0.68333   0.00000  Uiso   1.00
C1352  C     0.89366   0.94448   0.84661   0.00000  Uiso   1.00
C1353  C     0.89366   0.72218   0.84660   0.00000  Uiso   1.00
C1354  C     0.74492   0.94436   0.68333   0.00000  Uiso   1.00
C1355  C     0.82627   0.91785   0.97643   0.00000  Uiso   1.00
C1356  C     0.68816   0.79136   0.75569   0.00000  Uiso   1.00
C1357  C     0.97891   0.87537   0.75385   0.00000  Uiso   1.00
C1358  C     0.97891   0.79130   0.75385   0.00000  Uiso   1.00
C1359  C     0.68816   0.87531   0.75569   0.00000  Uiso   1.00
C1360  C     0.95733   0.83333   0.75241   0.00000  Uiso   1.00
Cu1361 Cu    0.83333   0.88022   0.75000   0.00000  Uiso   1.00
Cu1362 Cu    0.83333   0.78645   0.75000   0.00000  Uiso   1.00
H1363  H     0.82371   0.75881   0.88907   0.00000  Uiso   1.00
H1364  H     0.83325   0.75859   0.61013   0.00000  Uiso   1.00
H1365  H     0.82892   0.71596   0.54025   0.00000  Uiso   1.00
H1366  H     0.82561   0.95068   0.95889   0.00000  Uiso   1.00
H1367  H     0.79906   0.70662   0.65284   0.00000  Uiso   1.00
H1368  H     0.72966   0.70591   0.65351   0.00000  Uiso   1.00
H1369  H     0.73769   0.75981   0.68113   0.00000  Uiso   1.00
H1370  H     0.73206   0.70733   0.71346   0.00000  Uiso   1.00
H1371  H     0.92276   0.96000   0.78871   0.00000  Uiso   1.00
H1372  H     0.92106   0.96099   0.86345   0.00000  Uiso   1.00
H1373  H     0.89575   0.90703   0.85460   0.00000  Uiso   1.00
H1374  H     0.83324   0.90808   0.61013   0.00000  Uiso   1.00
H1375  H     0.86546   0.95939   0.85996   0.00000  Uiso   1.00
H1376  H     0.92276   0.70666   0.78871   0.00000  Uiso   1.00
H1377  H     0.86546   0.70728   0.85996   0.00000  Uiso   1.00
H1378  H     0.89576   0.75964   0.85460   0.00000  Uiso   1.00
H1379  H     0.92106   0.70568   0.86345   0.00000  Uiso   1.00
H1380  H     0.79906   0.96005   0.65284   0.00000  Uiso   1.00
H1381  H     0.72966   0.96076   0.65351   0.00000  Uiso   1.00
H1382  H     0.73206   0.95934   0.71346   0.00000  Uiso   1.00
H1383  H     0.73769   0.90685   0.68113   0.00000  Uiso   1.00
H1384  H     0.82562   0.71599   0.95889   0.00000  Uiso   1.00
H1385  H     0.82892   0.95071   0.54025   0.00000  Uiso   1.00
H1386  H     0.70408   0.75857   0.75796   0.00000  Uiso   1.00
H1387  H     0.96308   0.90830   0.75320   0.00000  Uiso   1.00
H1388  H     0.96308   0.75837   0.75320   0.00000  Uiso   1.00
H1389  H     0.70408   0.90809   0.75796   0.00000  Uiso   1.00
H1390  H     0.82371   0.90786   0.88907   0.00000  Uiso   1.00
N1391  N     0.83333   0.95069   0.75000   0.00000  Uiso   1.00
N1392  N     0.83333   0.71598   0.75000   0.00000  Uiso   1.00
N1393  N     0.78903   0.71597   0.68339   0.00000  Uiso   1.00
N1394  N     0.89427   0.95064   0.79903   0.00000  Uiso   1.00
N1395  N     0.89427   0.71603   0.79903   0.00000  Uiso   1.00
N1396  N     0.78903   0.95069   0.68339   0.00000  Uiso   1.00
O1397  O     0.77321   0.87291   0.75000   0.00000  Uiso   1.00
O1398  O     0.89345   0.79375   0.75001   0.00000  Uiso   1.00
O1399  O     0.89345   0.87291   0.75001   0.00000  Uiso   1.00
O1400  O     0.77321   0.79375   0.75000   0.00000  Uiso   1.00
O1401  O     0.83332   0.87293   0.68513   0.00000  Uiso   1.00
O1402  O     0.83334   0.79373   0.81487   0.00000  Uiso   1.00
O1403  O     0.83334   0.87293   0.81487   0.00000  Uiso   1.00
O1404  O     0.83332   0.79373   0.68513   0.00000  Uiso   1.00
loop_
_geom_bond_atom_site_label_1
_geom_bond_atom_site_label_2
_geom_bond_distance
_geom_bond_site_symmetry_2
_ccdc_geom_bond_type
C1     O71     1.300   .     A
C1     O74     1.300   .     A
C1     C2      1.456   .     S
C2     C33     1.399   .     A
C2     C30     1.399   .     A
C3     N66     1.375   .     A
C3     N67     1.423   .     S
C3     C474    1.436   1_545 S
C4     N65     1.375   .     A
C4     N68     1.424   .     S
C4     C239    1.437   .     S
C5     N69     1.424   .     S
C5     N66     1.375   .     A
C5     C472    1.437   1_545 S
C6     N70     1.423   .     S
C6     N65     1.375   .     A
C6     C237    1.436   .     S
C7     O75     1.303   .     A
C7     O78     1.303   .     A
C7     C13     1.465   .     S
C8     C11     1.467   .     S
C8     O76     1.303   .     A
C8     O77     1.303   .     A
C9     H64     1.079   .     S
C9     C20     1.393   .     A
C9     C11     1.402   .     A
C10    C21     1.393   .     A
C10    C13     1.403   .     A
C10    H38     1.081   .     S
C11    C14     1.402   .     A
C12    O72     1.300   .     A
C12    O73     1.300   .     A
C12    C34     1.454   .     S
C13    C15     1.403   .     A
C14    C16     1.393   .     A
C14    H37     1.079   .     S
C15    H48     1.081   .     S
C15    C17     1.393   .     A
C16    C22     1.402   .     A
C16    C18     1.410   .     A
C17    C24     1.402   .     A
C17    C19     1.410   .     A
C18    C20     1.410   .     A
C18    C721    1.402   .     S
C19    C21     1.410   .     A
C19    C720    1.402   1_554 S
C20    C29     1.402   .     A
C21    C23     1.402   .     A
C22    H58     1.084   .     S
C22    C725    1.395   .     S
C23    H39     1.084   .     S
C23    C724    1.395   1_554 S
C24    H59     1.084   .     S
C24    C731    1.395   1_554 S
C25    N67     1.447   .     S
C25    H43     1.108   .     S
C25    H44     1.108   .     S
C25    H42     1.109   .     S
C26    H49     1.109   .     S
C26    H47     1.108   .     S
C26    N68     1.447   .     S
C26    H46     1.109   .     S
C27    N69     1.447   .     S
C27    H51     1.109   .     S
C27    H52     1.108   .     S
C27    H53     1.109   .     S
C28    H56     1.108   .     S
C28    H57     1.108   .     S
C28    H55     1.109   .     S
C28    N70     1.447   .     S
C29    H40     1.084   .     S
C29    C726    1.395   .     S
C30    H60     1.078   .     S
C30    C188    1.383   1_455 S
C31    H61     1.080   .     S
C31    C34     1.400   .     A
C31    C111    1.383   .     S
C32    C34     1.400   .     A
C32    H62     1.080   .     S
C32    C108    1.383   .     S
C33    H63     1.078   .     S
C33    C187    1.383   1_455 S
Cu35   Cu36    2.704   .     S
Cu35   O75     1.968   .     S
Cu35   N65     2.032   .     S
Cu35   O71     1.967   .     S
Cu35   O77     1.968   .     S
Cu35   O73     1.967   .     S
Cu36   N66     2.032   .     S
Cu36   O76     1.968   .     S
Cu36   O74     1.967   .     S
Cu36   O78     1.968   .     S
Cu36   O72     1.967   .     S
H41    N67     1.030   .     S
H45    N68     1.030   .     S
H50    N69     1.030   .     S
H54    N70     1.030   .     S
C79    O149    1.300   .     A
C79    O152    1.300   .     A
C79    C80     1.456   .     S
C80    C111    1.399   .     A
C80    C108    1.399   .     A
C81    N144    1.375   .     A
C81    N145    1.423   .     S
C81    C552    1.436   1_545 S
C82    N143    1.375   .     A
C82    N146    1.424   .     S
C82    C317    1.437   .     S
C83    N147    1.424   .     S
C83    N144    1.375   .     A
C83    C550    1.437   1_545 S
C84    N148    1.423   .     S
C84    N143    1.375   .     A
C84    C315    1.436   .     S
C85    O153    1.303   .     A
C85    O156    1.303   .     A
C85    C91     1.465   .     S
C86    C89     1.467   .     S
C86    O154    1.303   .     A
C86    O155    1.303   .     A
C87    H142    1.079   .     S
C87    C98     1.393   .     A
C87    C89     1.402   .     A
C88    C99     1.393   .     A
C88    C91     1.403   .     A
C88    H116    1.081   .     S
C89    C92     1.402   .     A
C90    O150    1.300   .     A
C90    O151    1.300   .     A
C90    C112    1.454   .     S
C91    C93     1.403   .     A
C92    C94     1.393   .     A
C92    H115    1.079   .     S
C93    H126    1.081   .     S
C93    C95     1.393   .     A
C94    C100    1.402   .     A
C94    C96     1.410   .     A
C95    C102    1.402   .     A
C95    C97     1.410   .     A
C96    C98     1.410   .     A
C96    C799    1.402   .     S
C97    C99     1.410   .     A
C97    C798    1.402   1_554 S
C98    C107    1.402   .     A
C99    C101    1.402   .     A
C100   H136    1.084   .     S
C100   C803    1.395   .     S
C101   H117    1.084   .     S
C101   C802    1.395   1_554 S
C102   H137    1.084   .     S
C102   C809    1.395   1_554 S
C103   N145    1.447   .     S
C103   H121    1.108   .     S
C103   H122    1.108   .     S
C103   H120    1.109   .     S
C104   H127    1.109   .     S
C104   H125    1.108   .     S
C104   N146    1.447   .     S
C104   H124    1.109   .     S
C105   N147    1.447   .     S
C105   H129    1.109   .     S
C105   H130    1.108   .     S
C105   H131    1.109   .     S
C106   H134    1.108   .     S
C106   H135    1.108   .     S
C106   H133    1.109   .     S
C106   N148    1.447   .     S
C107   H118    1.084   .     S
C107   C804    1.395   .     S
C108   H138    1.078   .     S
C109   H139    1.080   .     S
C109   C112    1.400   .     A
C109   C189    1.383   .     S
C110   C112    1.400   .     A
C110   H140    1.080   .     S
C110   C186    1.383   .     S
C111   H141    1.078   .     S
Cu113  Cu114   2.704   .     S
Cu113  O153    1.968   .     S
Cu113  N143    2.032   .     S
Cu113  O149    1.967   .     S
Cu113  O155    1.968   .     S
Cu113  O151    1.967   .     S
Cu114  N144    2.032   .     S
Cu114  O154    1.968   .     S
Cu114  O152    1.967   .     S
Cu114  O156    1.968   .     S
Cu114  O150    1.967   .     S
H119   N145    1.030   .     S
H123   N146    1.030   .     S
H128   N147    1.030   .     S
H132   N148    1.030   .     S
C157   O227    1.300   .     A
C157   O230    1.300   .     A
C157   C158    1.456   .     S
C158   C189    1.399   .     A
C158   C186    1.399   .     A
C159   N222    1.375   .     A
C159   N223    1.423   .     S
C159   C630    1.436   1_545 S
C160   N221    1.375   .     A
C160   N224    1.424   .     S
C160   C395    1.437   .     S
C161   N225    1.424   .     S
C161   N222    1.375   .     A
C161   C628    1.437   1_545 S
C162   N226    1.423   .     S
C162   N221    1.375   .     A
C162   C393    1.436   .     S
C163   O231    1.303   .     A
C163   O234    1.303   .     A
C163   C169    1.465   .     S
C164   C167    1.467   .     S
C164   O232    1.303   .     A
C164   O233    1.303   .     A
C165   H220    1.079   .     S
C165   C176    1.393   .     A
C165   C167    1.402   .     A
C166   C177    1.393   .     A
C166   C169    1.403   .     A
C166   H194    1.081   .     S
C167   C170    1.402   .     A
C168   O228    1.300   .     A
C168   O229    1.300   .     A
C168   C190    1.454   .     S
C169   C171    1.403   .     A
C170   C172    1.393   .     A
C170   H193    1.079   .     S
C171   H204    1.081   .     S
C171   C173    1.393   .     A
C172   C178    1.402   .     A
C172   C174    1.410   .     A
C173   C180    1.402   .     A
C173   C175    1.410   .     A
C174   C176    1.410   .     A
C174   C877    1.402   .     S
C175   C177    1.410   .     A
C175   C876    1.402   1_554 S
C176   C185    1.402   .     A
C177   C179    1.402   .     A
C178   H214    1.084   .     S
C178   C881    1.395   .     S
C179   H195    1.084   .     S
C179   C880    1.395   1_554 S
C180   H215    1.084   .     S
C180   C887    1.395   1_554 S
C181   N223    1.447   .     S
C181   H199    1.108   .     S
C181   H200    1.108   .     S
C181   H198    1.109   .     S
C182   H205    1.109   .     S
C182   H203    1.108   .     S
C182   N224    1.447   .     S
C182   H202    1.109   .     S
C183   N225    1.447   .     S
C183   H207    1.109   .     S
C183   H208    1.108   .     S
C183   H209    1.109   .     S
C184   H212    1.108   .     S
C184   H213    1.108   .     S
C184   H211    1.109   .     S
C184   N226    1.447   .     S
C185   H196    1.084   .     S
C185   C882    1.395   .     S
C186   H216    1.078   .     S
C187   H217    1.080   .     S
C187   C190    1.400   .     A
C187   C33     1.383   1_655 S
C188   C190    1.400   .     A
C188   H218    1.080   .     S
C188   C30     1.383   1_655 S
C189   H219    1.078   .     S
Cu191  Cu192   2.704   .     S
Cu191  O231    1.968   .     S
Cu191  N221    2.032   .     S
Cu191  O227    1.967   .     S
Cu191  O233    1.968   .     S
Cu191  O229    1.967   .     S
Cu192  N222    2.032   .     S
Cu192  O232    1.968   .     S
Cu192  O230    1.967   .     S
Cu192  O234    1.968   .     S
Cu192  O228    1.967   .     S
H197   N223    1.030   .     S
H201   N224    1.030   .     S
H206   N225    1.030   .     S
H210   N226    1.030   .     S
C235   O305    1.300   .     A
C235   O308    1.300   .     A
C235   C236    1.456   .     S
C236   C267    1.399   .     A
C236   C264    1.399   .     A
C237   N300    1.375   .     A
C237   N301    1.423   .     S
C238   N299    1.375   .     A
C238   N302    1.424   .     S
C238   C473    1.437   .     S
C239   N303    1.424   .     S
C239   N300    1.375   .     A
C240   N304    1.423   .     S
C240   N299    1.375   .     A
C240   C471    1.436   .     S
C241   O309    1.303   .     A
C241   O312    1.303   .     A
C241   C247    1.465   .     S
C242   C245    1.467   .     S
C242   O310    1.303   .     A
C242   O311    1.303   .     A
C243   H298    1.079   .     S
C243   C254    1.393   .     A
C243   C245    1.402   .     A
C244   C255    1.393   .     A
C244   C247    1.403   .     A
C244   H272    1.081   .     S
C245   C248    1.402   .     A
C246   O306    1.300   .     A
C246   O307    1.300   .     A
C246   C268    1.454   .     S
C247   C249    1.403   .     A
C248   C250    1.393   .     A
C248   H271    1.079   .     S
C249   H282    1.081   .     S
C249   C251    1.393   .     A
C250   C256    1.402   .     A
C250   C252    1.410   .     A
C251   C258    1.402   .     A
C251   C253    1.410   .     A
C252   C254    1.410   .     A
C252   C955    1.402   .     S
C253   C255    1.410   .     A
C253   C954    1.402   1_554 S
C254   C263    1.402   .     A
C255   C257    1.402   .     A
C256   H292    1.084   .     S
C256   C959    1.395   .     S
C257   H273    1.084   .     S
C257   C958    1.395   1_554 S
C258   H293    1.084   .     S
C258   C965    1.395   1_554 S
C259   N301    1.447   .     S
C259   H277    1.108   .     S
C259   H278    1.108   .     S
C259   H276    1.109   .     S
C260   H283    1.109   .     S
C260   H281    1.108   .     S
C260   N302    1.447   .     S
C260   H280    1.109   .     S
C261   N303    1.447   .     S
C261   H285    1.109   .     S
C261   H286    1.108   .     S
C261   H287    1.109   .     S
C262   H290    1.108   .     S
C262   H291    1.108   .     S
C262   H289    1.109   .     S
C262   N304    1.447   .     S
C263   H274    1.084   .     S
C263   C960    1.395   .     S
C264   H294    1.078   .     S
C264   C422    1.383   1_455 S
C265   H295    1.080   .     S
C265   C268    1.400   .     A
C265   C345    1.383   .     S
C266   C268    1.400   .     A
C266   H296    1.080   .     S
C266   C342    1.383   .     S
C267   H297    1.078   .     S
C267   C421    1.383   1_455 S
Cu269  Cu270   2.704   .     S
Cu269  O309    1.968   .     S
Cu269  N299    2.032   .     S
Cu269  O305    1.967   .     S
Cu269  O311    1.968   .     S
Cu269  O307    1.967   .     S
Cu270  N300    2.032   .     S
Cu270  O310    1.968   .     S
Cu270  O308    1.967   .     S
Cu270  O312    1.968   .     S
Cu270  O306    1.967   .     S
H275   N301    1.030   .     S
H279   N302    1.030   .     S
H284   N303    1.030   .     S
H288   N304    1.030   .     S
C313   O383    1.300   .     A
C313   O386    1.300   .     A
C313   C314    1.456   .     S
C314   C345    1.399   .     A
C314   C342    1.399   .     A
C315   N378    1.375   .     A
C315   N379    1.423   .     S
C316   N377    1.375   .     A
C316   N380    1.424   .     S
C316   C551    1.437   .     S
C317   N381    1.424   .     S
C317   N378    1.375   .     A
C318   N382    1.423   .     S
C318   N377    1.375   .     A
C318   C549    1.436   .     S
C319   O387    1.303   .     A
C319   O390    1.303   .     A
C319   C325    1.465   .     S
C320   C323    1.467   .     S
C320   O388    1.303   .     A
C320   O389    1.303   .     A
C321   H376    1.079   .     S
C321   C332    1.393   .     A
C321   C323    1.402   .     A
C322   C333    1.393   .     A
C322   C325    1.403   .     A
C322   H350    1.081   .     S
C323   C326    1.402   .     A
C324   O384    1.300   .     A
C324   O385    1.300   .     A
C324   C346    1.454   .     S
C325   C327    1.403   .     A
C326   C328    1.393   .     A
C326   H349    1.079   .     S
C327   H360    1.081   .     S
C327   C329    1.393   .     A
C328   C334    1.402   .     A
C328   C330    1.410   .     A
C329   C336    1.402   .     A
C329   C331    1.410   .     A
C330   C332    1.410   .     A
C330   C1033   1.402   .     S
C331   C333    1.410   .     A
C331   C1032   1.402   1_554 S
C332   C341    1.402   .     A
C333   C335    1.402   .     A
C334   H370    1.084   .     S
C334   C1037   1.395   .     S
C335   H351    1.084   .     S
C335   C1036   1.395   1_554 S
C336   H371    1.084   .     S
C336   C1043   1.395   1_554 S
C337   N379    1.447   .     S
C337   H355    1.108   .     S
C337   H356    1.108   .     S
C337   H354    1.109   .     S
C338   H361    1.109   .     S
C338   H359    1.108   .     S
C338   N380    1.447   .     S
C338   H358    1.109   .     S
C339   N381    1.447   .     S
C339   H363    1.109   .     S
C339   H364    1.108   .     S
C339   H365    1.109   .     S
C340   H368    1.108   .     S
C340   H369    1.108   .     S
C340   H367    1.109   .     S
C340   N382    1.447   .     S
C341   H352    1.084   .     S
C341   C1038   1.395   .     S
C342   H372    1.078   .     S
C343   H373    1.080   .     S
C343   C346    1.400   .     A
C343   C423    1.383   .     S
C344   C346    1.400   .     A
C344   H374    1.080   .     S
C344   C420    1.383   .     S
C345   H375    1.078   .     S
Cu347  Cu348   2.704   .     S
Cu347  O387    1.968   .     S
Cu347  N377    2.032   .     S
Cu347  O383    1.967   .     S
Cu347  O389    1.968   .     S
Cu347  O385    1.967   .     S
Cu348  N378    2.032   .     S
Cu348  O388    1.968   .     S
Cu348  O386    1.967   .     S
Cu348  O390    1.968   .     S
Cu348  O384    1.967   .     S
H353   N379    1.030   .     S
H357   N380    1.030   .     S
H362   N381    1.030   .     S
H366   N382    1.030   .     S
C391   O461    1.300   .     A
C391   O464    1.300   .     A
C391   C392    1.456   .     S
C392   C423    1.399   .     A
C392   C420    1.399   .     A
C393   N456    1.375   .     A
C393   N457    1.423   .     S
C394   N455    1.375   .     A
C394   N458    1.424   .     S
C394   C629    1.437   .     S
C395   N459    1.424   .     S
C395   N456    1.375   .     A
C396   N460    1.423   .     S
C396   N455    1.375   .     A
C396   C627    1.436   .     S
C397   O465    1.303   .     A
C397   O468    1.303   .     A
C397   C403    1.465   .     S
C398   C401    1.467   .     S
C398   O466    1.303   .     A
C398   O467    1.303   .     A
C399   H454    1.079   .     S
C399   C410    1.393   .     A
C399   C401    1.402   .     A
C400   C411    1.393   .     A
C400   C403    1.403   .     A
C400   H428    1.081   .     S
C401   C404    1.402   .     A
C402   O462    1.300   .     A
C402   O463    1.300   .     A
C402   C424    1.454   .     S
C403   C405    1.403   .     A
C404   C406    1.393   .     A
C404   H427    1.079   .     S
C405   H438    1.081   .     S
C405   C407    1.393   .     A
C406   C412    1.402   .     A
C406   C408    1.410   .     A
C407   C414    1.402   .     A
C407   C409    1.410   .     A
C408   C410    1.410   .     A
C408   C1111   1.402   .     S
C409   C411    1.410   .     A
C409   C1110   1.402   1_554 S
C410   C419    1.402   .     A
C411   C413    1.402   .     A
C412   H448    1.084   .     S
C412   C1115   1.395   .     S
C413   H429    1.084   .     S
C413   C1114   1.395   1_554 S
C414   H449    1.084   .     S
C414   C1121   1.395   1_554 S
C415   N457    1.447   .     S
C415   H433    1.108   .     S
C415   H434    1.108   .     S
C415   H432    1.109   .     S
C416   H439    1.109   .     S
C416   H437    1.108   .     S
C416   N458    1.447   .     S
C416   H436    1.109   .     S
C417   N459    1.447   .     S
C417   H441    1.109   .     S
C417   H442    1.108   .     S
C417   H443    1.109   .     S
C418   H446    1.108   .     S
C418   H447    1.108   .     S
C418   H445    1.109   .     S
C418   N460    1.447   .     S
C419   H430    1.084   .     S
C419   C1116   1.395   .     S
C420   H450    1.078   .     S
C421   H451    1.080   .     S
C421   C424    1.400   .     A
C421   C267    1.383   1_655 S
C422   C424    1.400   .     A
C422   H452    1.080   .     S
C422   C264    1.383   1_655 S
C423   H453    1.078   .     S
Cu425  Cu426   2.704   .     S
Cu425  O465    1.968   .     S
Cu425  N455    2.032   .     S
Cu425  O461    1.967   .     S
Cu425  O467    1.968   .     S
Cu425  O463    1.967   .     S
Cu426  N456    2.032   .     S
Cu426  O466    1.968   .     S
Cu426  O464    1.967   .     S
Cu426  O468    1.968   .     S
Cu426  O462    1.967   .     S
H431   N457    1.030   .     S
H435   N458    1.030   .     S
H440   N459    1.030   .     S
H444   N460    1.030   .     S
C469   O539    1.300   .     A
C469   O542    1.300   .     A
C469   C470    1.456   .     S
C470   C501    1.399   .     A
C470   C498    1.399   .     A
C471   N534    1.375   .     A
C471   N535    1.423   .     S
C472   N533    1.375   .     A
C472   N536    1.424   .     S
C472   C5      1.437   1_565 S
C473   N537    1.424   .     S
C473   N534    1.375   .     A
C474   N538    1.423   .     S
C474   N533    1.375   .     A
C474   C3      1.436   1_565 S
C475   O543    1.303   .     A
C475   O546    1.303   .     A
C475   C481    1.465   .     S
C476   C479    1.467   .     S
C476   O544    1.303   .     A
C476   O545    1.303   .     A
C477   H532    1.079   .     S
C477   C488    1.393   .     A
C477   C479    1.402   .     A
C478   C489    1.393   .     A
C478   C481    1.403   .     A
C478   H506    1.081   .     S
C479   C482    1.402   .     A
C480   O540    1.300   .     A
C480   O541    1.300   .     A
C480   C502    1.454   .     S
C481   C483    1.403   .     A
C482   C484    1.393   .     A
C482   H505    1.079   .     S
C483   H516    1.081   .     S
C483   C485    1.393   .     A
C484   C490    1.402   .     A
C484   C486    1.410   .     A
C485   C492    1.402   .     A
C485   C487    1.410   .     A
C486   C488    1.410   .     A
C486   C1189   1.402   .     S
C487   C489    1.410   .     A
C487   C1188   1.402   1_554 S
C488   C497    1.402   .     A
C489   C491    1.402   .     A
C490   H526    1.084   .     S
C490   C1193   1.395   .     S
C491   H507    1.084   .     S
C491   C1192   1.395   1_554 S
C492   H527    1.084   .     S
C492   C1199   1.395   1_554 S
C493   N535    1.447   .     S
C493   H511    1.108   .     S
C493   H512    1.108   .     S
C493   H510    1.109   .     S
C494   H517    1.109   .     S
C494   H515    1.108   .     S
C494   N536    1.447   .     S
C494   H514    1.109   .     S
C495   N537    1.447   .     S
C495   H519    1.109   .     S
C495   H520    1.108   .     S
C495   H521    1.109   .     S
C496   H524    1.108   .     S
C496   H525    1.108   .     S
C496   H523    1.109   .     S
C496   N538    1.447   .     S
C497   H508    1.084   .     S
C497   C1194   1.395   .     S
C498   H528    1.078   .     S
C498   C656    1.383   1_455 S
C499   H529    1.080   .     S
C499   C502    1.400   .     A
C499   C579    1.383   .     S
C500   C502    1.400   .     A
C500   H530    1.080   .     S
C500   C576    1.383   .     S
C501   H531    1.078   .     S
C501   C655    1.383   1_455 S
Cu503  Cu504   2.704   .     S
Cu503  O543    1.968   .     S
Cu503  N533    2.032   .     S
Cu503  O539    1.967   .     S
Cu503  O545    1.968   .     S
Cu503  O541    1.967   .     S
Cu504  N534    2.032   .     S
Cu504  O544    1.968   .     S
Cu504  O542    1.967   .     S
Cu504  O546    1.968   .     S
Cu504  O540    1.967   .     S
H509   N535    1.030   .     S
H513   N536    1.030   .     S
H518   N537    1.030   .     S
H522   N538    1.030   .     S
C547   O617    1.300   .     A
C547   O620    1.300   .     A
C547   C548    1.456   .     S
C548   C579    1.399   .     A
C548   C576    1.399   .     A
C549   N612    1.375   .     A
C549   N613    1.423   .     S
C550   N611    1.375   .     A
C550   N614    1.424   .     S
C550   C83     1.437   1_565 S
C551   N615    1.424   .     S
C551   N612    1.375   .     A
C552   N616    1.423   .     S
C552   N611    1.375   .     A
C552   C81     1.436   1_565 S
C553   O621    1.303   .     A
C553   O624    1.303   .     A
C553   C559    1.465   .     S
C554   C557    1.467   .     S
C554   O622    1.303   .     A
C554   O623    1.303   .     A
C555   H610    1.079   .     S
C555   C566    1.393   .     A
C555   C557    1.402   .     A
C556   C567    1.393   .     A
C556   C559    1.403   .     A
C556   H584    1.081   .     S
C557   C560    1.402   .     A
C558   O618    1.300   .     A
C558   O619    1.300   .     A
C558   C580    1.454   .     S
C559   C561    1.403   .     A
C560   C562    1.393   .     A
C560   H583    1.079   .     S
C561   H594    1.081   .     S
C561   C563    1.393   .     A
C562   C568    1.402   .     A
C562   C564    1.410   .     A
C563   C570    1.402   .     A
C563   C565    1.410   .     A
C564   C566    1.410   .     A
C564   C1267   1.402   .     S
C565   C567    1.410   .     A
C565   C1266   1.402   1_554 S
C566   C575    1.402   .     A
C567   C569    1.402   .     A
C568   H604    1.084   .     S
C568   C1271   1.395   .     S
C569   H585    1.084   .     S
C569   C1270   1.395   1_554 S
C570   H605    1.084   .     S
C570   C1277   1.395   1_554 S
C571   N613    1.447   .     S
C571   H589    1.108   .     S
C571   H590    1.108   .     S
C571   H588    1.109   .     S
C572   H595    1.109   .     S
C572   H593    1.108   .     S
C572   N614    1.447   .     S
C572   H592    1.109   .     S
C573   N615    1.447   .     S
C573   H597    1.109   .     S
C573   H598    1.108   .     S
C573   H599    1.109   .     S
C574   H602    1.108   .     S
C574   H603    1.108   .     S
C574   H601    1.109   .     S
C574   N616    1.447   .     S
C575   H586    1.084   .     S
C575   C1272   1.395   .     S
C576   H606    1.078   .     S
C577   H607    1.080   .     S
C577   C580    1.400   .     A
C577   C657    1.383   .     S
C578   C580    1.400   .     A
C578   H608    1.080   .     S
C578   C654    1.383   .     S
C579   H609    1.078   .     S
Cu581  Cu582   2.704   .     S
Cu581  O621    1.968   .     S
Cu581  N611    2.032   .     S
Cu581  O617    1.967   .     S
Cu581  O623    1.968   .     S
Cu581  O619    1.967   .     S
Cu582  N612    2.032   .     S
Cu582  O622    1.968   .     S
Cu582  O620    1.967   .     S
Cu582  O624    1.968   .     S
Cu582  O618    1.967   .     S
H587   N613    1.030   .     S
H591   N614    1.030   .     S
H596   N615    1.030   .     S
H600   N616    1.030   .     S
C625   O695    1.300   .     A
C625   O698    1.300   .     A
C625   C626    1.456   .     S
C626   C657    1.399   .     A
C626   C654    1.399   .     A
C627   N690    1.375   .     A
C627   N691    1.423   .     S
C628   N689    1.375   .     A
C628   N692    1.424   .     S
C628   C161    1.437   1_565 S
C629   N693    1.424   .     S
C629   N690    1.375   .     A
C630   N694    1.423   .     S
C630   N689    1.375   .     A
C630   C159    1.436   1_565 S
C631   O699    1.303   .     A
C631   O702    1.303   .     A
C631   C637    1.465   .     S
C632   C635    1.467   .     S
C632   O700    1.303   .     A
C632   O701    1.303   .     A
C633   H688    1.079   .     S
C633   C644    1.393   .     A
C633   C635    1.402   .     A
C634   C645    1.393   .     A
C634   C637    1.403   .     A
C634   H662    1.081   .     S
C635   C638    1.402   .     A
C636   O696    1.300   .     A
C636   O697    1.300   .     A
C636   C658    1.454   .     S
C637   C639    1.403   .     A
C638   C640    1.393   .     A
C638   H661    1.079   .     S
C639   H672    1.081   .     S
C639   C641    1.393   .     A
C640   C646    1.402   .     A
C640   C642    1.410   .     A
C641   C648    1.402   .     A
C641   C643    1.410   .     A
C642   C644    1.410   .     A
C642   C1345   1.402   .     S
C643   C645    1.410   .     A
C643   C1344   1.402   1_554 S
C644   C653    1.402   .     A
C645   C647    1.402   .     A
C646   H682    1.084   .     S
C646   C1349   1.395   .     S
C647   H663    1.084   .     S
C647   C1348   1.395   1_554 S
C648   H683    1.084   .     S
C648   C1355   1.395   1_554 S
C649   N691    1.447   .     S
C649   H667    1.108   .     S
C649   H668    1.108   .     S
C649   H666    1.109   .     S
C650   H673    1.109   .     S
C650   H671    1.108   .     S
C650   N692    1.447   .     S
C650   H670    1.109   .     S
C651   N693    1.447   .     S
C651   H675    1.109   .     S
C651   H676    1.108   .     S
C651   H677    1.109   .     S
C652   H680    1.108   .     S
C652   H681    1.108   .     S
C652   H679    1.109   .     S
C652   N694    1.447   .     S
C653   H664    1.084   .     S
C653   C1350   1.395   .     S
C654   H684    1.078   .     S
C655   H685    1.080   .     S
C655   C658    1.400   .     A
C655   C501    1.383   1_655 S
C656   C658    1.400   .     A
C656   H686    1.080   .     S
C656   C498    1.383   1_655 S
C657   H687    1.078   .     S
Cu659  Cu660   2.704   .     S
Cu659  O699    1.968   .     S
Cu659  N689    2.032   .     S
Cu659  O695    1.967   .     S
Cu659  O701    1.968   .     S
Cu659  O697    1.967   .     S
Cu660  N690    2.032   .     S
Cu660  O700    1.968   .     S
Cu660  O698    1.967   .     S
Cu660  O702    1.968   .     S
Cu660  O696    1.967   .     S
H665   N691    1.030   .     S
H669   N692    1.030   .     S
H674   N693    1.030   .     S
H678   N694    1.030   .     S
C703   O773    1.300   .     A
C703   O776    1.300   .     A
C703   C704    1.456   .     S
C704   C735    1.399   .     A
C704   C732    1.399   .     A
C705   N768    1.375   .     A
C705   N769    1.423   .     S
C705   C1176   1.436   1_545 S
C706   N767    1.375   .     A
C706   N770    1.424   .     S
C706   C941    1.437   .     S
C707   N771    1.424   .     S
C707   N768    1.375   .     A
C707   C1174   1.437   1_545 S
C708   N772    1.423   .     S
C708   N767    1.375   .     A
C708   C939    1.436   .     S
C709   O777    1.303   .     A
C709   O780    1.303   .     A
C709   C715    1.465   .     S
C710   C713    1.467   .     S
C710   O778    1.303   .     A
C710   O779    1.303   .     A
C711   H766    1.079   .     S
C711   C722    1.393   .     A
C711   C713    1.402   .     A
C712   C723    1.393   .     A
C712   C715    1.403   .     A
C712   H740    1.081   .     S
C713   C716    1.402   .     A
C714   O774    1.300   .     A
C714   O775    1.300   .     A
C714   C736    1.454   .     S
C715   C717    1.403   .     A
C716   C718    1.393   .     A
C716   H739    1.079   .     S
C717   H750    1.081   .     S
C717   C719    1.393   .     A
C718   C724    1.402   .     A
C718   C720    1.410   .     A
C719   C726    1.402   .     A
C719   C721    1.410   .     A
C720   C722    1.410   .     A
C720   C19     1.402   1_556 S
C721   C723    1.410   .     A
C722   C731    1.402   .     A
C723   C725    1.402   .     A
C724   H760    1.084   .     S
C724   C23     1.395   1_556 S
C725   H741    1.084   .     S
C726   H761    1.084   .     S
C727   N769    1.447   .     S
C727   H745    1.108   .     S
C727   H746    1.108   .     S
C727   H744    1.109   .     S
C728   H751    1.109   .     S
C728   H749    1.108   .     S
C728   N770    1.447   .     S
C728   H748    1.109   .     S
C729   N771    1.447   .     S
C729   H753    1.109   .     S
C729   H754    1.108   .     S
C729   H755    1.109   .     S
C730   H758    1.108   .     S
C730   H759    1.108   .     S
C730   H757    1.109   .     S
C730   N772    1.447   .     S
C731   H742    1.084   .     S
C731   C24     1.395   1_556 S
C732   H762    1.078   .     S
C732   C890    1.383   1_455 S
C733   H763    1.080   .     S
C733   C736    1.400   .     A
C733   C813    1.383   .     S
C734   C736    1.400   .     A
C734   H764    1.080   .     S
C734   C810    1.383   .     S
C735   H765    1.078   .     S
C735   C889    1.383   1_455 S
Cu737  Cu738   2.704   .     S
Cu737  O777    1.968   .     S
Cu737  N767    2.032   .     S
Cu737  O773    1.967   .     S
Cu737  O779    1.968   .     S
Cu737  O775    1.967   .     S
Cu738  N768    2.032   .     S
Cu738  O778    1.968   .     S
Cu738  O776    1.967   .     S
Cu738  O780    1.968   .     S
Cu738  O774    1.967   .     S
H743   N769    1.030   .     S
H747   N770    1.030   .     S
H752   N771    1.030   .     S
H756   N772    1.030   .     S
C781   O851    1.300   .     A
C781   O854    1.300   .     A
C781   C782    1.456   .     S
C782   C813    1.399   .     A
C782   C810    1.399   .     A
C783   N846    1.375   .     A
C783   N847    1.423   .     S
C783   C1254   1.436   1_545 S
C784   N845    1.375   .     A
C784   N848    1.424   .     S
C784   C1019   1.437   .     S
C785   N849    1.424   .     S
C785   N846    1.375   .     A
C785   C1252   1.437   1_545 S
C786   N850    1.423   .     S
C786   N845    1.375   .     A
C786   C1017   1.436   .     S
C787   O855    1.303   .     A
C787   O858    1.303   .     A
C787   C793    1.465   .     S
C788   C791    1.467   .     S
C788   O856    1.303   .     A
C788   O857    1.303   .     A
C789   H844    1.079   .     S
C789   C800    1.393   .     A
C789   C791    1.402   .     A
C790   C801    1.393   .     A
C790   C793    1.403   .     A
C790   H818    1.081   .     S
C791   C794    1.402   .     A
C792   O852    1.300   .     A
C792   O853    1.300   .     A
C792   C814    1.454   .     S
C793   C795    1.403   .     A
C794   C796    1.393   .     A
C794   H817    1.079   .     S
C795   H828    1.081   .     S
C795   C797    1.393   .     A
C796   C802    1.402   .     A
C796   C798    1.410   .     A
C797   C804    1.402   .     A
C797   C799    1.410   .     A
C798   C800    1.410   .     A
C798   C97     1.402   1_556 S
C799   C801    1.410   .     A
C800   C809    1.402   .     A
C801   C803    1.402   .     A
C802   H838    1.084   .     S
C802   C101    1.395   1_556 S
C803   H819    1.084   .     S
C804   H839    1.084   .     S
C805   N847    1.447   .     S
C805   H823    1.108   .     S
C805   H824    1.108   .     S
C805   H822    1.109   .     S
C806   H829    1.109   .     S
C806   H827    1.108   .     S
C806   N848    1.447   .     S
C806   H826    1.109   .     S
C807   N849    1.447   .     S
C807   H831    1.109   .     S
C807   H832    1.108   .     S
C807   H833    1.109   .     S
C808   H836    1.108   .     S
C808   H837    1.108   .     S
C808   H835    1.109   .     S
C808   N850    1.447   .     S
C809   H820    1.084   .     S
C809   C102    1.395   1_556 S
C810   H840    1.078   .     S
C811   H841    1.080   .     S
C811   C814    1.400   .     A
C811   C891    1.383   .     S
C812   C814    1.400   .     A
C812   H842    1.080   .     S
C812   C888    1.383   .     S
C813   H843    1.078   .     S
Cu815  Cu816   2.704   .     S
Cu815  O855    1.968   .     S
Cu815  N845    2.032   .     S
Cu815  O851    1.967   .     S
Cu815  O857    1.968   .     S
Cu815  O853    1.967   .     S
Cu816  N846    2.032   .     S
Cu816  O856    1.968   .     S
Cu816  O854    1.967   .     S
Cu816  O858    1.968   .     S
Cu816  O852    1.967   .     S
H821   N847    1.030   .     S
H825   N848    1.030   .     S
H830   N849    1.030   .     S
H834   N850    1.030   .     S
C859   O929    1.300   .     A
C859   O932    1.300   .     A
C859   C860    1.456   .     S
C860   C891    1.399   .     A
C860   C888    1.399   .     A
C861   N924    1.375   .     A
C861   N925    1.423   .     S
C861   C1332   1.436   1_545 S
C862   N923    1.375   .     A
C862   N926    1.424   .     S
C862   C1097   1.437   .     S
C863   N927    1.424   .     S
C863   N924    1.375   .     A
C863   C1330   1.437   1_545 S
C864   N928    1.423   .     S
C864   N923    1.375   .     A
C864   C1095   1.436   .     S
C865   O933    1.303   .     A
C865   O936    1.303   .     A
C865   C871    1.465   .     S
C866   C869    1.467   .     S
C866   O934    1.303   .     A
C866   O935    1.303   .     A
C867   H922    1.079   .     S
C867   C878    1.393   .     A
C867   C869    1.402   .     A
C868   C879    1.393   .     A
C868   C871    1.403   .     A
C868   H896    1.081   .     S
C869   C872    1.402   .     A
C870   O930    1.300   .     A
C870   O931    1.300   .     A
C870   C892    1.454   .     S
C871   C873    1.403   .     A
C872   C874    1.393   .     A
C872   H895    1.079   .     S
C873   H906    1.081   .     S
C873   C875    1.393   .     A
C874   C880    1.402   .     A
C874   C876    1.410   .     A
C875   C882    1.402   .     A
C875   C877    1.410   .     A
C876   C878    1.410   .     A
C876   C175    1.402   1_556 S
C877   C879    1.410   .     A
C878   C887    1.402   .     A
C879   C881    1.402   .     A
C880   H916    1.084   .     S
C880   C179    1.395   1_556 S
C881   H897    1.084   .     S
C882   H917    1.084   .     S
C883   N925    1.447   .     S
C883   H901    1.108   .     S
C883   H902    1.108   .     S
C883   H900    1.109   .     S
C884   H907    1.109   .     S
C884   H905    1.108   .     S
C884   N926    1.447   .     S
C884   H904    1.109   .     S
C885   N927    1.447   .     S
C885   H909    1.109   .     S
C885   H910    1.108   .     S
C885   H911    1.109   .     S
C886   H914    1.108   .     S
C886   H915    1.108   .     S
C886   H913    1.109   .     S
C886   N928    1.447   .     S
C887   H898    1.084   .     S
C887   C180    1.395   1_556 S
C888   H918    1.078   .     S
C889   H919    1.080   .     S
C889   C892    1.400   .     A
C889   C735    1.383   1_655 S
C890   C892    1.400   .     A
C890   H920    1.080   .     S
C890   C732    1.383   1_655 S
C891   H921    1.078   .     S
Cu893  Cu894   2.704   .     S
Cu893  O933    1.968   .     S
Cu893  N923    2.032   .     S
Cu893  O929    1.967   .     S
Cu893  O935    1.968   .     S
Cu893  O931    1.967   .     S
Cu894  N924    2.032   .     S
Cu894  O934    1.968   .     S
Cu894  O932    1.967   .     S
Cu894  O936    1.968   .     S
Cu894  O930    1.967   .     S
H899   N925    1.030   .     S
H903   N926    1.030   .     S
H908   N927    1.030   .     S
H912   N928    1.030   .     S
C937   O1007   1.300   .     A
C937   O1010   1.300   .     A
C937   C938    1.456   .     S
C938   C969    1.399   .     A
C938   C966    1.399   .     A
C939   N1002   1.375   .     A
C939   N1003   1.423   .     S
C940   N1001   1.375   .     A
C940   N1004   1.424   .     S
C940   C1175   1.437   .     S
C941   N1005   1.424   .     S
C941   N1002   1.375   .     A
C942   N1006   1.423   .     S
C942   N1001   1.375   .     A
C942   C1173   1.436   .     S
C943   O1011   1.303   .     A
C943   O1014   1.303   .     A
C943   C949    1.465   .     S
C944   C947    1.467   .     S
C944   O1012   1.303   .     A
C944   O1013   1.303   .     A
C945   H1000   1.079   .     S
C945   C956    1.393   .     A
C945   C947    1.402   .     A
C946   C957    1.393   .     A
C946   C949    1.403   .     A
C946   H974    1.081   .     S
C947   C950    1.402   .     A
C948   O1008   1.300   .     A
C948   O1009   1.300   .     A
C948   C970    1.454   .     S
C949   C951    1.403   .     A
C950   C952    1.393   .     A
C950   H973    1.079   .     S
C951   H984    1.081   .     S
C951   C953    1.393   .     A
C952   C958    1.402   .     A
C952   C954    1.410   .     A
C953   C960    1.402   .     A
C953   C955    1.410   .     A
C954   C956    1.410   .     A
C954   C253    1.402   1_556 S
C955   C957    1.410   .     A
C956   C965    1.402   .     A
C957   C959    1.402   .     A
C958   H994    1.084   .     S
C958   C257    1.395   1_556 S
C959   H975    1.084   .     S
C960   H995    1.084   .     S
C961   N1003   1.447   .     S
C961   H979    1.108   .     S
C961   H980    1.108   .     S
C961   H978    1.109   .     S
C962   H985    1.109   .     S
C962   H983    1.108   .     S
C962   N1004   1.447   .     S
C962   H982    1.109   .     S
C963   N1005   1.447   .     S
C963   H987    1.109   .     S
C963   H988    1.108   .     S
C963   H989    1.109   .     S
C964   H992    1.108   .     S
C964   H993    1.108   .     S
C964   H991    1.109   .     S
C964   N1006   1.447   .     S
C965   H976    1.084   .     S
C965   C258    1.395   1_556 S
C966   H996    1.078   .     S
C966   C1124   1.383   1_455 S
C967   H997    1.080   .     S
C967   C970    1.400   .     A
C967   C1047   1.383   .     S
C968   C970    1.400   .     A
C968   H998    1.080   .     S
C968   C1044   1.383   .     S
C969   H999    1.078   .     S
C969   C1123   1.383   1_455 S
Cu971  Cu972   2.704   .     S
Cu971  O1011   1.968   .     S
Cu971  N1001   2.032   .     S
Cu971  O1007   1.967   .     S
Cu971  O1013   1.968   .     S
Cu971  O1009   1.967   .     S
Cu972  N1002   2.032   .     S
Cu972  O1012   1.968   .     S
Cu972  O1010   1.967   .     S
Cu972  O1014   1.968   .     S
Cu972  O1008   1.967   .     S
H977   N1003   1.030   .     S
H981   N1004   1.030   .     S
H986   N1005   1.030   .     S
H990   N1006   1.030   .     S
C1015  O1085   1.300   .     A
C1015  O1088   1.300   .     A
C1015  C1016   1.456   .     S
C1016  C1047   1.399   .     A
C1016  C1044   1.399   .     A
C1017  N1080   1.375   .     A
C1017  N1081   1.423   .     S
C1018  N1079   1.375   .     A
C1018  N1082   1.424   .     S
C1018  C1253   1.437   .     S
C1019  N1083   1.424   .     S
C1019  N1080   1.375   .     A
C1020  N1084   1.423   .     S
C1020  N1079   1.375   .     A
C1020  C1251   1.436   .     S
C1021  O1089   1.303   .     A
C1021  O1092   1.303   .     A
C1021  C1027   1.465   .     S
C1022  C1025   1.467   .     S
C1022  O1090   1.303   .     A
C1022  O1091   1.303   .     A
C1023  H1078   1.079   .     S
C1023  C1034   1.393   .     A
C1023  C1025   1.402   .     A
C1024  C1035   1.393   .     A
C1024  C1027   1.403   .     A
C1024  H1052   1.081   .     S
C1025  C1028   1.402   .     A
C1026  O1086   1.300   .     A
C1026  O1087   1.300   .     A
C1026  C1048   1.454   .     S
C1027  C1029   1.403   .     A
C1028  C1030   1.393   .     A
C1028  H1051   1.079   .     S
C1029  H1062   1.081   .     S
C1029  C1031   1.393   .     A
C1030  C1036   1.402   .     A
C1030  C1032   1.410   .     A
C1031  C1038   1.402   .     A
C1031  C1033   1.410   .     A
C1032  C1034   1.410   .     A
C1032  C331    1.402   1_556 S
C1033  C1035   1.410   .     A
C1034  C1043   1.402   .     A
C1035  C1037   1.402   .     A
C1036  H1072   1.084   .     S
C1036  C335    1.395   1_556 S
C1037  H1053   1.084   .     S
C1038  H1073   1.084   .     S
C1039  N1081   1.447   .     S
C1039  H1057   1.108   .     S
C1039  H1058   1.108   .     S
C1039  H1056   1.109   .     S
C1040  H1063   1.109   .     S
C1040  H1061   1.108   .     S
C1040  N1082   1.447   .     S
C1040  H1060   1.109   .     S
C1041  N1083   1.447   .     S
C1041  H1065   1.109   .     S
C1041  H1066   1.108   .     S
C1041  H1067   1.109   .     S
C1042  H1070   1.108   .     S
C1042  H1071   1.108   .     S
C1042  H1069   1.109   .     S
C1042  N1084   1.447   .     S
C1043  H1054   1.084   .     S
C1043  C336    1.395   1_556 S
C1044  H1074   1.078   .     S
C1045  H1075   1.080   .     S
C1045  C1048   1.400   .     A
C1045  C1125   1.383   .     S
C1046  C1048   1.400   .     A
C1046  H1076   1.080   .     S
C1046  C1122   1.383   .     S
C1047  H1077   1.078   .     S
Cu1049 Cu1050  2.704   .     S
Cu1049 O1089   1.968   .     S
Cu1049 N1079   2.032   .     S
Cu1049 O1085   1.967   .     S
Cu1049 O1091   1.968   .     S
Cu1049 O1087   1.967   .     S
Cu1050 N1080   2.032   .     S
Cu1050 O1090   1.968   .     S
Cu1050 O1088   1.967   .     S
Cu1050 O1092   1.968   .     S
Cu1050 O1086   1.967   .     S
H1055  N1081   1.030   .     S
H1059  N1082   1.030   .     S
H1064  N1083   1.030   .     S
H1068  N1084   1.030   .     S
C1093  O1163   1.300   .     A
C1093  O1166   1.300   .     A
C1093  C1094   1.456   .     S
C1094  C1125   1.399   .     A
C1094  C1122   1.399   .     A
C1095  N1158   1.375   .     A
C1095  N1159   1.423   .     S
C1096  N1157   1.375   .     A
C1096  N1160   1.424   .     S
C1096  C1331   1.437   .     S
C1097  N1161   1.424   .     S
C1097  N1158   1.375   .     A
C1098  N1162   1.423   .     S
C1098  N1157   1.375   .     A
C1098  C1329   1.436   .     S
C1099  O1167   1.303   .     A
C1099  O1170   1.303   .     A
C1099  C1105   1.465   .     S
C1100  C1103   1.467   .     S
C1100  O1168   1.303   .     A
C1100  O1169   1.303   .     A
C1101  H1156   1.079   .     S
C1101  C1112   1.393   .     A
C1101  C1103   1.402   .     A
C1102  C1113   1.393   .     A
C1102  C1105   1.403   .     A
C1102  H1130   1.081   .     S
C1103  C1106   1.402   .     A
C1104  O1164   1.300   .     A
C1104  O1165   1.300   .     A
C1104  C1126   1.454   .     S
C1105  C1107   1.403   .     A
C1106  C1108   1.393   .     A
C1106  H1129   1.079   .     S
C1107  H1140   1.081   .     S
C1107  C1109   1.393   .     A
C1108  C1114   1.402   .     A
C1108  C1110   1.410   .     A
C1109  C1116   1.402   .     A
C1109  C1111   1.410   .     A
C1110  C1112   1.410   .     A
C1110  C409    1.402   1_556 S
C1111  C1113   1.410   .     A
C1112  C1121   1.402   .     A
C1113  C1115   1.402   .     A
C1114  H1150   1.084   .     S
C1114  C413    1.395   1_556 S
C1115  H1131   1.084   .     S
C1116  H1151   1.084   .     S
C1117  N1159   1.447   .     S
C1117  H1135   1.108   .     S
C1117  H1136   1.108   .     S
C1117  H1134   1.109   .     S
C1118  H1141   1.109   .     S
C1118  H1139   1.108   .     S
C1118  N1160   1.447   .     S
C1118  H1138   1.109   .     S
C1119  N1161   1.447   .     S
C1119  H1143   1.109   .     S
C1119  H1144   1.108   .     S
C1119  H1145   1.109   .     S
C1120  H1148   1.108   .     S
C1120  H1149   1.108   .     S
C1120  H1147   1.109   .     S
C1120  N1162   1.447   .     S
C1121  H1132   1.084   .     S
C1121  C414    1.395   1_556 S
C1122  H1152   1.078   .     S
C1123  H1153   1.080   .     S
C1123  C1126   1.400   .     A
C1123  C969    1.383   1_655 S
C1124  C1126   1.400   .     A
C1124  H1154   1.080   .     S
C1124  C966    1.383   1_655 S
C1125  H1155   1.078   .     S
Cu1127 Cu1128  2.704   .     S
Cu1127 O1167   1.968   .     S
Cu1127 N1157   2.032   .     S
Cu1127 O1163   1.967   .     S
Cu1127 O1169   1.968   .     S
Cu1127 O1165   1.967   .     S
Cu1128 N1158   2.032   .     S
Cu1128 O1168   1.968   .     S
Cu1128 O1166   1.967   .     S
Cu1128 O1170   1.968   .     S
Cu1128 O1164   1.967   .     S
H1133  N1159   1.030   .     S
H1137  N1160   1.030   .     S
H1142  N1161   1.030   .     S
H1146  N1162   1.030   .     S
C1171  O1241   1.300   .     A
C1171  O1244   1.300   .     A
C1171  C1172   1.456   .     S
C1172  C1203   1.399   .     A
C1172  C1200   1.399   .     A
C1173  N1236   1.375   .     A
C1173  N1237   1.423   .     S
C1174  N1235   1.375   .     A
C1174  N1238   1.424   .     S
C1174  C707    1.437   1_565 S
C1175  N1239   1.424   .     S
C1175  N1236   1.375   .     A
C1176  N1240   1.423   .     S
C1176  N1235   1.375   .     A
C1176  C705    1.436   1_565 S
C1177  O1245   1.303   .     A
C1177  O1248   1.303   .     A
C1177  C1183   1.465   .     S
C1178  C1181   1.467   .     S
C1178  O1246   1.303   .     A
C1178  O1247   1.303   .     A
C1179  H1234   1.079   .     S
C1179  C1190   1.393   .     A
C1179  C1181   1.402   .     A
C1180  C1191   1.393   .     A
C1180  C1183   1.403   .     A
C1180  H1208   1.081   .     S
C1181  C1184   1.402   .     A
C1182  O1242   1.300   .     A
C1182  O1243   1.300   .     A
C1182  C1204   1.454   .     S
C1183  C1185   1.403   .     A
C1184  C1186   1.393   .     A
C1184  H1207   1.079   .     S
C1185  H1218   1.081   .     S
C1185  C1187   1.393   .     A
C1186  C1192   1.402   .     A
C1186  C1188   1.410   .     A
C1187  C1194   1.402   .     A
C1187  C1189   1.410   .     A
C1188  C1190   1.410   .     A
C1188  C487    1.402   1_556 S
C1189  C1191   1.410   .     A
C1190  C1199   1.402   .     A
C1191  C1193   1.402   .     A
C1192  H1228   1.084   .     S
C1192  C491    1.395   1_556 S
C1193  H1209   1.084   .     S
C1194  H1229   1.084   .     S
C1195  N1237   1.447   .     S
C1195  H1213   1.108   .     S
C1195  H1214   1.108   .     S
C1195  H1212   1.109   .     S
C1196  H1219   1.109   .     S
C1196  H1217   1.108   .     S
C1196  N1238   1.447   .     S
C1196  H1216   1.109   .     S
C1197  N1239   1.447   .     S
C1197  H1221   1.109   .     S
C1197  H1222   1.108   .     S
C1197  H1223   1.109   .     S
C1198  H1226   1.108   .     S
C1198  H1227   1.108   .     S
C1198  H1225   1.109   .     S
C1198  N1240   1.447   .     S
C1199  H1210   1.084   .     S
C1199  C492    1.395   1_556 S
C1200  H1230   1.078   .     S
C1200  C1358   1.383   1_455 S
C1201  H1231   1.080   .     S
C1201  C1204   1.400   .     A
C1201  C1281   1.383   .     S
C1202  C1204   1.400   .     A
C1202  H1232   1.080   .     S
C1202  C1278   1.383   .     S
C1203  H1233   1.078   .     S
C1203  C1357   1.383   1_455 S
Cu1205 Cu1206  2.704   .     S
Cu1205 O1245   1.968   .     S
Cu1205 N1235   2.032   .     S
Cu1205 O1241   1.967   .     S
Cu1205 O1247   1.968   .     S
Cu1205 O1243   1.967   .     S
Cu1206 N1236   2.032   .     S
Cu1206 O1246   1.968   .     S
Cu1206 O1244   1.967   .     S
Cu1206 O1248   1.968   .     S
Cu1206 O1242   1.967   .     S
H1211  N1237   1.030   .     S
H1215  N1238   1.030   .     S
H1220  N1239   1.030   .     S
H1224  N1240   1.030   .     S
C1249  O1319   1.300   .     A
C1249  O1322   1.300   .     A
C1249  C1250   1.456   .     S
C1250  C1281   1.399   .     A
C1250  C1278   1.399   .     A
C1251  N1314   1.375   .     A
C1251  N1315   1.423   .     S
C1252  N1313   1.375   .     A
C1252  N1316   1.424   .     S
C1252  C785    1.437   1_565 S
C1253  N1317   1.424   .     S
C1253  N1314   1.375   .     A
C1254  N1318   1.423   .     S
C1254  N1313   1.375   .     A
C1254  C783    1.436   1_565 S
C1255  O1323   1.303   .     A
C1255  O1326   1.303   .     A
C1255  C1261   1.465   .     S
C1256  C1259   1.467   .     S
C1256  O1324   1.303   .     A
C1256  O1325   1.303   .     A
C1257  H1312   1.079   .     S
C1257  C1268   1.393   .     A
C1257  C1259   1.402   .     A
C1258  C1269   1.393   .     A
C1258  C1261   1.403   .     A
C1258  H1286   1.081   .     S
C1259  C1262   1.402   .     A
C1260  O1320   1.300   .     A
C1260  O1321   1.300   .     A
C1260  C1282   1.454   .     S
C1261  C1263   1.403   .     A
C1262  C1264   1.393   .     A
C1262  H1285   1.079   .     S
C1263  H1296   1.081   .     S
C1263  C1265   1.393   .     A
C1264  C1270   1.402   .     A
C1264  C1266   1.410   .     A
C1265  C1272   1.402   .     A
C1265  C1267   1.410   .     A
C1266  C1268   1.410   .     A
C1266  C565    1.402   1_556 S
C1267  C1269   1.410   .     A
C1268  C1277   1.402   .     A
C1269  C1271   1.402   .     A
C1270  H1306   1.084   .     S
C1270  C569    1.395   1_556 S
C1271  H1287   1.084   .     S
C1272  H1307   1.084   .     S
C1273  N1315   1.447   .     S
C1273  H1291   1.108   .     S
C1273  H1292   1.108   .     S
C1273  H1290   1.109   .     S
C1274  H1297   1.109   .     S
C1274  H1295   1.108   .     S
C1274  N1316   1.447   .     S
C1274  H1294   1.109   .     S
C1275  N1317   1.447   .     S
C1275  H1299   1.109   .     S
C1275  H1300   1.108   .     S
C1275  H1301   1.109   .     S
C1276  H1304   1.108   .     S
C1276  H1305   1.108   .     S
C1276  H1303   1.109   .     S
C1276  N1318   1.447   .     S
C1277  H1288   1.084   .     S
C1277  C570    1.395   1_556 S
C1278  H1308   1.078   .     S
C1279  H1309   1.080   .     S
C1279  C1282   1.400   .     A
C1279  C1359   1.383   .     S
C1280  C1282   1.400   .     A
C1280  H1310   1.080   .     S
C1280  C1356   1.383   .     S
C1281  H1311   1.078   .     S
Cu1283 Cu1284  2.704   .     S
Cu1283 O1323   1.968   .     S
Cu1283 N1313   2.032   .     S
Cu1283 O1319   1.967   .     S
Cu1283 O1325   1.968   .     S
Cu1283 O1321   1.967   .     S
Cu1284 N1314   2.032   .     S
Cu1284 O1324   1.968   .     S
Cu1284 O1322   1.967   .     S
Cu1284 O1326   1.968   .     S
Cu1284 O1320   1.967   .     S
H1289  N1315   1.030   .     S
H1293  N1316   1.030   .     S
H1298  N1317   1.030   .     S
H1302  N1318   1.030   .     S
C1327  O1397   1.300   .     A
C1327  O1400   1.300   .     A
C1327  C1328   1.456   .     S
C1328  C1359   1.399   .     A
C1328  C1356   1.399   .     A
C1329  N1392   1.375   .     A
C1329  N1393   1.423   .     S
C1330  N1391   1.375   .     A
C1330  N1394   1.424   .     S
C1330  C863    1.437   1_565 S
C1331  N1395   1.424   .     S
C1331  N1392   1.375   .     A
C1332  N1396   1.423   .     S
C1332  N1391   1.375   .     A
C1332  C861    1.436   1_565 S
C1333  O1401   1.303   .     A
C1333  O1404   1.303   .     A
C1333  C1339   1.465   .     S
C1334  C1337   1.467   .     S
C1334  O1402   1.303   .     A
C1334  O1403   1.303   .     A
C1335  H1390   1.079   .     S
C1335  C1346   1.393   .     A
C1335  C1337   1.402   .     A
C1336  C1347   1.393   .     A
C1336  C1339   1.403   .     A
C1336  H1364   1.081   .     S
C1337  C1340   1.402   .     A
C1338  O1398   1.300   .     A
C1338  O1399   1.300   .     A
C1338  C1360   1.454   .     S
C1339  C1341   1.403   .     A
C1340  C1342   1.393   .     A
C1340  H1363   1.079   .     S
C1341  H1374   1.081   .     S
C1341  C1343   1.393   .     A
C1342  C1348   1.402   .     A
C1342  C1344   1.410   .     A
C1343  C1350   1.402   .     A
C1343  C1345   1.410   .     A
C1344  C1346   1.410   .     A
C1344  C643    1.402   1_556 S
C1345  C1347   1.410   .     A
C1346  C1355   1.402   .     A
C1347  C1349   1.402   .     A
C1348  H1384   1.084   .     S
C1348  C647    1.395   1_556 S
C1349  H1365   1.084   .     S
C1350  H1385   1.084   .     S
C1351  N1393   1.447   .     S
C1351  H1369   1.108   .     S
C1351  H1370   1.108   .     S
C1351  H1368   1.109   .     S
C1352  H1375   1.109   .     S
C1352  H1373   1.108   .     S
C1352  N1394   1.447   .     S
C1352  H1372   1.109   .     S
C1353  N1395   1.447   .     S
C1353  H1377   1.109   .     S
C1353  H1378   1.108   .     S
C1353  H1379   1.109   .     S
C1354  H1382   1.108   .     S
C1354  H1383   1.108   .     S
C1354  H1381   1.109   .     S
C1354  N1396   1.447   .     S
C1355  H1366   1.084   .     S
C1355  C648    1.395   1_556 S
C1356  H1386   1.078   .     S
C1357  H1387   1.080   .     S
C1357  C1360   1.400   .     A
C1357  C1203   1.383   1_655 S
C1358  C1360   1.400   .     A
C1358  H1388   1.080   .     S
C1358  C1200   1.383   1_655 S
C1359  H1389   1.078   .     S
Cu1361 Cu1362  2.704   .     S
Cu1361 O1401   1.968   .     S
Cu1361 N1391   2.032   .     S
Cu1361 O1397   1.967   .     S
Cu1361 O1403   1.968   .     S
Cu1361 O1399   1.967   .     S
Cu1362 N1392   2.032   .     S
Cu1362 O1402   1.968   .     S
Cu1362 O1400   1.967   .     S
Cu1362 O1404   1.968   .     S
Cu1362 O1398   1.967   .     S
H1367  N1393   1.030   .     S
H1371  N1394   1.030   .     S
H1376  N1395   1.030   .     S
H1380  N1396   1.030   .     S
