data_str_m2_o2_o10_pcu_sym.122
_audit_creation_date              2020-01-03
_audit_creation_method            'Materials Studio'
_symmetry_space_group_name_H-M    'P1'
_symmetry_Int_Tables_number       1
_symmetry_cell_setting            triclinic
loop_
_symmetry_equiv_pos_as_xyz
  x,y,z
_cell_length_a                    26.0935
_cell_length_b                    30.2108
_cell_length_c                    27.8492
_cell_angle_alpha                 90.5239
_cell_angle_beta                  98.0348
_cell_angle_gamma                 91.0304
loop_
_atom_site_label
_atom_site_type_symbol
_atom_site_fract_x
_atom_site_fract_y
_atom_site_fract_z
_atom_site_U_iso_or_equiv
_atom_site_adp_type
_atom_site_occupancy
C1     C     0.16748   0.16524   0.24989   0.00000  Uiso   1.00
C2     C     0.18419   0.28767   0.44885   0.00000  Uiso   1.00
C3     C     0.16407   0.25112   0.02698   0.00000  Uiso   1.00
C4     C     0.16417   0.25144   0.47248   0.00000  Uiso   1.00
C5     C     0.06793   0.24984   0.23755   0.00000  Uiso   1.00
C6     C     0.26540   0.25035   0.26244   0.00000  Uiso   1.00
C7     C     0.01258   0.24926   0.23073   0.00000  Uiso   1.00
C8     C     0.32075   0.25131   0.26922   0.00000  Uiso   1.00
C9     C     0.12752   0.04789   0.26194   0.00000  Uiso   1.00
C10    C     0.17416   0.45285   0.20973   0.00000  Uiso   1.00
C11    C     0.12763   0.09367   0.26218   0.00000  Uiso   1.00
C12    C     0.16468   0.33515   0.25008   0.00000  Uiso   1.00
C13    C     0.17128   0.40698   0.20915   0.00000  Uiso   1.00
C14    C     0.17013   0.11738   0.24974   0.00000  Uiso   1.00
C15    C     0.16243   0.38384   0.25072   0.00000  Uiso   1.00
C16    C     0.21395   0.09510   0.23728   0.00000  Uiso   1.00
C17    C     0.15411   0.40794   0.29293   0.00000  Uiso   1.00
C18    C     0.21385   0.04835   0.23775   0.00000  Uiso   1.00
C19    C     0.16089   0.45391   0.29466   0.00000  Uiso   1.00
C20    C     0.17052   0.02516   0.25046   0.00000  Uiso   1.00
C21    C     0.16970   0.47663   0.25223   0.00000  Uiso   1.00
C22    C     0.25625   0.33451   0.12828   0.00000  Uiso   1.00
C23    C     0.20590   0.26945   0.05855   0.00000  Uiso   1.00
C24    C     0.31031   0.33991   0.11410   0.00000  Uiso   1.00
C25    C     0.06595   0.18009   0.36378   0.00000  Uiso   1.00
C26    C     0.04886   0.13706   0.38536   0.00000  Uiso   1.00
C27    C     0.09197   0.16152   0.11407   0.00000  Uiso   1.00
C28    C     0.05560   0.13837   0.14442   0.00000  Uiso   1.00
C29    C     0.26800   0.31182   0.38343   0.00000  Uiso   1.00
C30    C     0.29697   0.34370   0.42094   0.00000  Uiso   1.00
C31    C     0.04126   0.24886   0.01438   0.00000  Uiso   1.00
C32    C     0.32444   0.22923   0.48754   0.00000  Uiso   1.00
C33    C     0.15634   0.35436   0.47118   0.00000  Uiso   1.00
C34    C     0.14453   0.21525   0.44321   0.00000  Uiso   1.00
C35    C     0.17382   0.39918   0.49350   0.00000  Uiso   1.00
C36    C     0.20546   0.27109   0.10932   0.00000  Uiso   1.00
C37    C     0.14285   0.21617   0.39229   0.00000  Uiso   1.00
C38    C     0.12686   0.22913   0.09960   0.00000  Uiso   1.00
C39    C     0.18931   0.28458   0.39893   0.00000  Uiso   1.00
C40    C     0.12286   0.23240   0.04833   0.00000  Uiso   1.00
Cu41   Cu    0.16667   0.25000   0.29822   0.00000  Uiso   1.00
Cu42   Cu    0.16667   0.25001   0.20179   0.00000  Uiso   1.00
H43    H     0.32585   0.24680   0.19385   0.00000  Uiso   1.00
H44    H     0.11224   0.36541   0.32169   0.00000  Uiso   1.00
H45    H     0.28331   0.04449   0.21905   0.00000  Uiso   1.00
H46    H     0.17463   0.00480   0.33843   0.00000  Uiso   1.00
H47    H     0.25498   0.35468   0.16157   0.00000  Uiso   1.00
H48    H     0.22715   0.34855   0.09955   0.00000  Uiso   1.00
H49    H     0.31316   0.32136   0.08007   0.00000  Uiso   1.00
H50    H     0.31877   0.37547   0.10834   0.00000  Uiso   1.00
H51    H     0.00626   0.32736   0.14338   0.00000  Uiso   1.00
H52    H     0.04780   0.18077   0.32530   0.00000  Uiso   1.00
H53    H     0.05039   0.20870   0.38253   0.00000  Uiso   1.00
H54    H     0.00750   0.25396   0.30608   0.00000  Uiso   1.00
H55    H     0.06481   0.13536   0.42435   0.00000  Uiso   1.00
H56    H     0.00595   0.13535   0.38184   0.00000  Uiso   1.00
H57    H     0.06252   0.10832   0.36582   0.00000  Uiso   1.00
H58    H     0.13208   0.15021   0.12624   0.00000  Uiso   1.00
H59    H     0.08040   0.15124   0.07560   0.00000  Uiso   1.00
H60    H     0.06510   0.14869   0.18305   0.00000  Uiso   1.00
H61    H     0.01492   0.14713   0.13129   0.00000  Uiso   1.00
H62    H     0.05952   0.10193   0.14159   0.00000  Uiso   1.00
H63    H     0.28121   0.31932   0.34813   0.00000  Uiso   1.00
H64    H     0.27958   0.27712   0.39243   0.00000  Uiso   1.00
H65    H     0.09396   0.02999   0.27120   0.00000  Uiso   1.00
H66    H     0.29116   0.33402   0.45810   0.00000  Uiso   1.00
H67    H     0.00577   0.34281   0.41866   0.00000  Uiso   1.00
H68    H     0.28338   0.37799   0.41404   0.00000  Uiso   1.00
H69    H     0.05392   0.27697   0.49296   0.00000  Uiso   1.00
H70    H     0.03319   0.26138   0.05028   0.00000  Uiso   1.00
H71    H     0.31078   0.20124   0.00835   0.00000  Uiso   1.00
H72    H     0.29422   0.25479   0.48323   0.00000  Uiso   1.00
H73    H     0.33066   0.21707   0.45110   0.00000  Uiso   1.00
H74    H     0.12628   0.34013   0.49161   0.00000  Uiso   1.00
H75    H     0.13900   0.35976   0.43281   0.00000  Uiso   1.00
H76    H     0.17990   0.46996   0.17681   0.00000  Uiso   1.00
H77    H     0.20368   0.41422   0.47358   0.00000  Uiso   1.00
H78    H     0.14029   0.42155   0.49132   0.00000  Uiso   1.00
H79    H     0.19034   0.39533   0.03214   0.00000  Uiso   1.00
H80    H     0.09413   0.11075   0.27156   0.00000  Uiso   1.00
H81    H     0.17606   0.38965   0.17593   0.00000  Uiso   1.00
H82    H     0.23926   0.28246   0.04399   0.00000  Uiso   1.00
H83    H     0.13021   0.18603   0.45949   0.00000  Uiso   1.00
H84    H     0.25536   0.14941   0.23250   0.00000  Uiso   1.00
N85    N     0.16667   0.25001   0.12935   0.00000  Uiso   1.00
N86    N     0.16667   0.24999   0.37066   0.00000  Uiso   1.00
O87    O     0.16667   0.18573   0.29072   0.00000  Uiso   1.00
O88    O     0.13943   0.38787   0.33323   0.00000  Uiso   1.00
O89    O     0.25576   0.02430   0.22753   0.00000  Uiso   1.00
O90    O     0.15754   0.47528   0.33819   0.00000  Uiso   1.00
O91    O     0.24699   0.28973   0.13960   0.00000  Uiso   1.00
O92    O     0.12038   0.18090   0.36464   0.00000  Uiso   1.00
O93    O     0.08793   0.20779   0.11982   0.00000  Uiso   1.00
O94    O     0.21394   0.31886   0.37823   0.00000  Uiso   1.00
O95    O     0.07910   0.21580   0.01962   0.00000  Uiso   1.00
O96    O     0.19936   0.32637   0.47406   0.00000  Uiso   1.00
O97    O     0.16666   0.31428   0.20929   0.00000  Uiso   1.00
O98    O     0.16667   0.18573   0.20928   0.00000  Uiso   1.00
O99    O     0.16666   0.31427   0.29072   0.00000  Uiso   1.00
O100   O     0.09161   0.25000   0.28132   0.00000  Uiso   1.00
O101   O     0.24172   0.25001   0.21868   0.00000  Uiso   1.00
O102   O     0.09161   0.25000   0.19989   0.00000  Uiso   1.00
O103   O     0.24172   0.25000   0.30012   0.00000  Uiso   1.00
O104   O     0.25738   0.11737   0.22572   0.00000  Uiso   1.00
C105   C     0.50081   0.16524   0.24989   0.00000  Uiso   1.00
C106   C     0.51753   0.28767   0.44885   0.00000  Uiso   1.00
C107   C     0.49741   0.25112   0.02698   0.00000  Uiso   1.00
C108   C     0.49750   0.25144   0.47248   0.00000  Uiso   1.00
C109   C     0.40126   0.24984   0.23755   0.00000  Uiso   1.00
C110   C     0.59874   0.25035   0.26244   0.00000  Uiso   1.00
C111   C     0.34591   0.24926   0.23073   0.00000  Uiso   1.00
C112   C     0.65408   0.25131   0.26922   0.00000  Uiso   1.00
C113   C     0.46085   0.04789   0.26194   0.00000  Uiso   1.00
C114   C     0.50749   0.45285   0.20973   0.00000  Uiso   1.00
C115   C     0.46096   0.09367   0.26218   0.00000  Uiso   1.00
C116   C     0.49801   0.33515   0.25008   0.00000  Uiso   1.00
C117   C     0.50461   0.40698   0.20915   0.00000  Uiso   1.00
C118   C     0.50346   0.11738   0.24974   0.00000  Uiso   1.00
C119   C     0.49577   0.38384   0.25072   0.00000  Uiso   1.00
C120   C     0.54728   0.09510   0.23728   0.00000  Uiso   1.00
C121   C     0.48744   0.40794   0.29293   0.00000  Uiso   1.00
C122   C     0.54718   0.04835   0.23775   0.00000  Uiso   1.00
C123   C     0.49422   0.45391   0.29466   0.00000  Uiso   1.00
C124   C     0.50386   0.02516   0.25046   0.00000  Uiso   1.00
C125   C     0.50303   0.47663   0.25223   0.00000  Uiso   1.00
C126   C     0.58958   0.33451   0.12828   0.00000  Uiso   1.00
C127   C     0.53924   0.26945   0.05855   0.00000  Uiso   1.00
C128   C     0.64364   0.33991   0.11410   0.00000  Uiso   1.00
C129   C     0.39928   0.18009   0.36378   0.00000  Uiso   1.00
C130   C     0.38219   0.13706   0.38536   0.00000  Uiso   1.00
C131   C     0.42531   0.16152   0.11407   0.00000  Uiso   1.00
C132   C     0.38894   0.13837   0.14442   0.00000  Uiso   1.00
C133   C     0.60133   0.31182   0.38343   0.00000  Uiso   1.00
C134   C     0.63030   0.34370   0.42094   0.00000  Uiso   1.00
C135   C     0.37460   0.24886   0.01438   0.00000  Uiso   1.00
C136   C     0.65778   0.22923   0.48754   0.00000  Uiso   1.00
C137   C     0.48967   0.35436   0.47118   0.00000  Uiso   1.00
C138   C     0.47786   0.21525   0.44321   0.00000  Uiso   1.00
C139   C     0.50715   0.39918   0.49350   0.00000  Uiso   1.00
C140   C     0.53879   0.27109   0.10932   0.00000  Uiso   1.00
C141   C     0.47618   0.21617   0.39229   0.00000  Uiso   1.00
C142   C     0.46019   0.22913   0.09960   0.00000  Uiso   1.00
C143   C     0.52265   0.28458   0.39893   0.00000  Uiso   1.00
C144   C     0.45619   0.23240   0.04833   0.00000  Uiso   1.00
Cu145  Cu    0.50000   0.25000   0.29822   0.00000  Uiso   1.00
Cu146  Cu    0.50000   0.25001   0.20179   0.00000  Uiso   1.00
H147   H     0.65918   0.24680   0.19385   0.00000  Uiso   1.00
H148   H     0.44557   0.36541   0.32169   0.00000  Uiso   1.00
H149   H     0.61664   0.04449   0.21905   0.00000  Uiso   1.00
H150   H     0.50796   0.00480   0.33843   0.00000  Uiso   1.00
H151   H     0.58832   0.35468   0.16157   0.00000  Uiso   1.00
H152   H     0.56049   0.34855   0.09955   0.00000  Uiso   1.00
H153   H     0.64650   0.32136   0.08007   0.00000  Uiso   1.00
H154   H     0.65210   0.37547   0.10834   0.00000  Uiso   1.00
H155   H     0.33959   0.32736   0.14338   0.00000  Uiso   1.00
H156   H     0.38113   0.18077   0.32530   0.00000  Uiso   1.00
H157   H     0.38373   0.20870   0.38253   0.00000  Uiso   1.00
H158   H     0.34083   0.25396   0.30608   0.00000  Uiso   1.00
H159   H     0.39814   0.13536   0.42435   0.00000  Uiso   1.00
H160   H     0.33928   0.13535   0.38184   0.00000  Uiso   1.00
H161   H     0.39585   0.10832   0.36582   0.00000  Uiso   1.00
H162   H     0.46541   0.15021   0.12624   0.00000  Uiso   1.00
H163   H     0.41374   0.15124   0.07560   0.00000  Uiso   1.00
H164   H     0.39843   0.14869   0.18305   0.00000  Uiso   1.00
H165   H     0.34826   0.14713   0.13129   0.00000  Uiso   1.00
H166   H     0.39285   0.10193   0.14159   0.00000  Uiso   1.00
H167   H     0.61454   0.31932   0.34813   0.00000  Uiso   1.00
H168   H     0.61291   0.27712   0.39243   0.00000  Uiso   1.00
H169   H     0.42730   0.02999   0.27120   0.00000  Uiso   1.00
H170   H     0.62450   0.33402   0.45810   0.00000  Uiso   1.00
H171   H     0.33910   0.34281   0.41866   0.00000  Uiso   1.00
H172   H     0.61671   0.37799   0.41404   0.00000  Uiso   1.00
H173   H     0.38726   0.27697   0.49296   0.00000  Uiso   1.00
H174   H     0.36652   0.26138   0.05028   0.00000  Uiso   1.00
H175   H     0.64412   0.20124   0.00835   0.00000  Uiso   1.00
H176   H     0.62756   0.25479   0.48323   0.00000  Uiso   1.00
H177   H     0.66399   0.21707   0.45110   0.00000  Uiso   1.00
H178   H     0.45962   0.34013   0.49161   0.00000  Uiso   1.00
H179   H     0.47234   0.35976   0.43281   0.00000  Uiso   1.00
H180   H     0.51323   0.46996   0.17681   0.00000  Uiso   1.00
H181   H     0.53701   0.41422   0.47358   0.00000  Uiso   1.00
H182   H     0.47362   0.42155   0.49132   0.00000  Uiso   1.00
H183   H     0.52367   0.39533   0.03214   0.00000  Uiso   1.00
H184   H     0.42747   0.11075   0.27156   0.00000  Uiso   1.00
H185   H     0.50939   0.38965   0.17593   0.00000  Uiso   1.00
H186   H     0.57260   0.28246   0.04399   0.00000  Uiso   1.00
H187   H     0.46354   0.18603   0.45949   0.00000  Uiso   1.00
H188   H     0.58870   0.14941   0.23250   0.00000  Uiso   1.00
N189   N     0.50000   0.25001   0.12935   0.00000  Uiso   1.00
N190   N     0.50000   0.24999   0.37066   0.00000  Uiso   1.00
O191   O     0.50000   0.18573   0.29072   0.00000  Uiso   1.00
O192   O     0.47276   0.38787   0.33323   0.00000  Uiso   1.00
O193   O     0.58909   0.02430   0.22753   0.00000  Uiso   1.00
O194   O     0.49087   0.47528   0.33819   0.00000  Uiso   1.00
O195   O     0.58033   0.28973   0.13960   0.00000  Uiso   1.00
O196   O     0.45371   0.18090   0.36464   0.00000  Uiso   1.00
O197   O     0.42126   0.20779   0.11982   0.00000  Uiso   1.00
O198   O     0.54728   0.31886   0.37823   0.00000  Uiso   1.00
O199   O     0.41243   0.21580   0.01962   0.00000  Uiso   1.00
O200   O     0.53269   0.32637   0.47406   0.00000  Uiso   1.00
O201   O     0.50000   0.31428   0.20929   0.00000  Uiso   1.00
O202   O     0.50000   0.18573   0.20928   0.00000  Uiso   1.00
O203   O     0.50000   0.31427   0.29072   0.00000  Uiso   1.00
O204   O     0.42495   0.25000   0.28132   0.00000  Uiso   1.00
O205   O     0.57505   0.25001   0.21868   0.00000  Uiso   1.00
O206   O     0.42495   0.25000   0.19989   0.00000  Uiso   1.00
O207   O     0.57505   0.25000   0.30012   0.00000  Uiso   1.00
O208   O     0.59071   0.11737   0.22572   0.00000  Uiso   1.00
C209   C     0.83414   0.16524   0.24989   0.00000  Uiso   1.00
C210   C     0.85086   0.28767   0.44885   0.00000  Uiso   1.00
C211   C     0.83074   0.25112   0.02698   0.00000  Uiso   1.00
C212   C     0.83083   0.25144   0.47248   0.00000  Uiso   1.00
C213   C     0.73460   0.24984   0.23755   0.00000  Uiso   1.00
C214   C     0.93207   0.25035   0.26244   0.00000  Uiso   1.00
C215   C     0.67924   0.24926   0.23073   0.00000  Uiso   1.00
C216   C     0.98742   0.25131   0.26922   0.00000  Uiso   1.00
C217   C     0.79419   0.04789   0.26194   0.00000  Uiso   1.00
C218   C     0.84082   0.45285   0.20973   0.00000  Uiso   1.00
C219   C     0.79429   0.09367   0.26218   0.00000  Uiso   1.00
C220   C     0.83135   0.33515   0.25008   0.00000  Uiso   1.00
C221   C     0.83794   0.40698   0.20915   0.00000  Uiso   1.00
C222   C     0.83679   0.11738   0.24974   0.00000  Uiso   1.00
C223   C     0.82910   0.38384   0.25072   0.00000  Uiso   1.00
C224   C     0.88062   0.09510   0.23728   0.00000  Uiso   1.00
C225   C     0.82078   0.40794   0.29293   0.00000  Uiso   1.00
C226   C     0.88052   0.04835   0.23775   0.00000  Uiso   1.00
C227   C     0.82756   0.45391   0.29466   0.00000  Uiso   1.00
C228   C     0.83719   0.02516   0.25046   0.00000  Uiso   1.00
C229   C     0.83637   0.47663   0.25223   0.00000  Uiso   1.00
C230   C     0.92291   0.33451   0.12828   0.00000  Uiso   1.00
C231   C     0.87257   0.26945   0.05855   0.00000  Uiso   1.00
C232   C     0.97698   0.33991   0.11410   0.00000  Uiso   1.00
C233   C     0.73261   0.18009   0.36378   0.00000  Uiso   1.00
C234   C     0.71553   0.13706   0.38536   0.00000  Uiso   1.00
C235   C     0.75864   0.16152   0.11407   0.00000  Uiso   1.00
C236   C     0.72227   0.13837   0.14442   0.00000  Uiso   1.00
C237   C     0.93467   0.31182   0.38343   0.00000  Uiso   1.00
C238   C     0.96364   0.34370   0.42094   0.00000  Uiso   1.00
C239   C     0.70793   0.24886   0.01438   0.00000  Uiso   1.00
C240   C     0.99111   0.22923   0.48754   0.00000  Uiso   1.00
C241   C     0.82300   0.35436   0.47118   0.00000  Uiso   1.00
C242   C     0.81119   0.21525   0.44321   0.00000  Uiso   1.00
C243   C     0.84049   0.39918   0.49350   0.00000  Uiso   1.00
C244   C     0.87213   0.27109   0.10932   0.00000  Uiso   1.00
C245   C     0.80952   0.21617   0.39229   0.00000  Uiso   1.00
C246   C     0.79352   0.22913   0.09960   0.00000  Uiso   1.00
C247   C     0.85598   0.28458   0.39893   0.00000  Uiso   1.00
C248   C     0.78953   0.23240   0.04833   0.00000  Uiso   1.00
Cu249  Cu    0.83333   0.25000   0.29822   0.00000  Uiso   1.00
Cu250  Cu    0.83333   0.25001   0.20179   0.00000  Uiso   1.00
H251   H     0.99252   0.24680   0.19385   0.00000  Uiso   1.00
H252   H     0.77891   0.36541   0.32169   0.00000  Uiso   1.00
H253   H     0.94998   0.04449   0.21905   0.00000  Uiso   1.00
H254   H     0.84129   0.00480   0.33843   0.00000  Uiso   1.00
H255   H     0.92165   0.35468   0.16157   0.00000  Uiso   1.00
H256   H     0.89382   0.34855   0.09955   0.00000  Uiso   1.00
H257   H     0.97983   0.32136   0.08007   0.00000  Uiso   1.00
H258   H     0.98544   0.37547   0.10834   0.00000  Uiso   1.00
H259   H     0.67293   0.32736   0.14338   0.00000  Uiso   1.00
H260   H     0.71446   0.18077   0.32530   0.00000  Uiso   1.00
H261   H     0.71706   0.20870   0.38253   0.00000  Uiso   1.00
H262   H     0.67416   0.25396   0.30608   0.00000  Uiso   1.00
H263   H     0.73147   0.13536   0.42435   0.00000  Uiso   1.00
H264   H     0.67261   0.13535   0.38184   0.00000  Uiso   1.00
H265   H     0.72918   0.10832   0.36582   0.00000  Uiso   1.00
H266   H     0.79874   0.15021   0.12624   0.00000  Uiso   1.00
H267   H     0.74707   0.15124   0.07560   0.00000  Uiso   1.00
H268   H     0.73176   0.14869   0.18305   0.00000  Uiso   1.00
H269   H     0.68159   0.14713   0.13129   0.00000  Uiso   1.00
H270   H     0.72618   0.10193   0.14159   0.00000  Uiso   1.00
H271   H     0.94787   0.31932   0.34813   0.00000  Uiso   1.00
H272   H     0.94624   0.27712   0.39243   0.00000  Uiso   1.00
H273   H     0.76063   0.02999   0.27120   0.00000  Uiso   1.00
H274   H     0.95783   0.33402   0.45810   0.00000  Uiso   1.00
H275   H     0.67243   0.34281   0.41866   0.00000  Uiso   1.00
H276   H     0.95004   0.37799   0.41404   0.00000  Uiso   1.00
H277   H     0.72059   0.27697   0.49296   0.00000  Uiso   1.00
H278   H     0.69985   0.26138   0.05028   0.00000  Uiso   1.00
H279   H     0.97745   0.20124   0.00835   0.00000  Uiso   1.00
H280   H     0.96089   0.25479   0.48323   0.00000  Uiso   1.00
H281   H     0.99733   0.21707   0.45110   0.00000  Uiso   1.00
H282   H     0.79295   0.34013   0.49161   0.00000  Uiso   1.00
H283   H     0.80567   0.35976   0.43281   0.00000  Uiso   1.00
H284   H     0.84656   0.46996   0.17681   0.00000  Uiso   1.00
H285   H     0.87034   0.41422   0.47358   0.00000  Uiso   1.00
H286   H     0.80696   0.42155   0.49132   0.00000  Uiso   1.00
H287   H     0.85700   0.39533   0.03214   0.00000  Uiso   1.00
H288   H     0.76080   0.11075   0.27156   0.00000  Uiso   1.00
H289   H     0.84273   0.38965   0.17593   0.00000  Uiso   1.00
H290   H     0.90593   0.28246   0.04399   0.00000  Uiso   1.00
H291   H     0.79688   0.18603   0.45949   0.00000  Uiso   1.00
H292   H     0.92203   0.14941   0.23250   0.00000  Uiso   1.00
N293   N     0.83333   0.25001   0.12935   0.00000  Uiso   1.00
N294   N     0.83333   0.24999   0.37066   0.00000  Uiso   1.00
O295   O     0.83334   0.18573   0.29072   0.00000  Uiso   1.00
O296   O     0.80609   0.38787   0.33323   0.00000  Uiso   1.00
O297   O     0.92243   0.02430   0.22753   0.00000  Uiso   1.00
O298   O     0.82421   0.47528   0.33819   0.00000  Uiso   1.00
O299   O     0.91366   0.28973   0.13960   0.00000  Uiso   1.00
O300   O     0.78704   0.18090   0.36464   0.00000  Uiso   1.00
O301   O     0.75459   0.20779   0.11982   0.00000  Uiso   1.00
O302   O     0.88061   0.31886   0.37823   0.00000  Uiso   1.00
O303   O     0.74577   0.21580   0.01962   0.00000  Uiso   1.00
O304   O     0.86603   0.32637   0.47406   0.00000  Uiso   1.00
O305   O     0.83333   0.31428   0.20929   0.00000  Uiso   1.00
O306   O     0.83334   0.18573   0.20928   0.00000  Uiso   1.00
O307   O     0.83333   0.31427   0.29072   0.00000  Uiso   1.00
O308   O     0.75828   0.25000   0.28132   0.00000  Uiso   1.00
O309   O     0.90839   0.25001   0.21868   0.00000  Uiso   1.00
O310   O     0.75828   0.25000   0.19989   0.00000  Uiso   1.00
O311   O     0.90839   0.25000   0.30012   0.00000  Uiso   1.00
O312   O     0.92404   0.11737   0.22572   0.00000  Uiso   1.00
C313   C     0.16748   0.66524   0.24989   0.00000  Uiso   1.00
C314   C     0.18419   0.78767   0.44885   0.00000  Uiso   1.00
C315   C     0.16407   0.75112   0.02698   0.00000  Uiso   1.00
C316   C     0.16417   0.75144   0.47248   0.00000  Uiso   1.00
C317   C     0.06793   0.74984   0.23755   0.00000  Uiso   1.00
C318   C     0.26540   0.75035   0.26244   0.00000  Uiso   1.00
C319   C     0.01258   0.74926   0.23073   0.00000  Uiso   1.00
C320   C     0.32075   0.75131   0.26922   0.00000  Uiso   1.00
C321   C     0.12752   0.54789   0.26194   0.00000  Uiso   1.00
C322   C     0.17416   0.95285   0.20973   0.00000  Uiso   1.00
C323   C     0.12763   0.59367   0.26218   0.00000  Uiso   1.00
C324   C     0.16468   0.83515   0.25008   0.00000  Uiso   1.00
C325   C     0.17128   0.90698   0.20915   0.00000  Uiso   1.00
C326   C     0.17013   0.61738   0.24974   0.00000  Uiso   1.00
C327   C     0.16243   0.88384   0.25072   0.00000  Uiso   1.00
C328   C     0.21395   0.59510   0.23728   0.00000  Uiso   1.00
C329   C     0.15411   0.90794   0.29293   0.00000  Uiso   1.00
C330   C     0.21385   0.54835   0.23775   0.00000  Uiso   1.00
C331   C     0.16089   0.95391   0.29466   0.00000  Uiso   1.00
C332   C     0.17052   0.52516   0.25046   0.00000  Uiso   1.00
C333   C     0.16970   0.97663   0.25223   0.00000  Uiso   1.00
C334   C     0.25625   0.83451   0.12828   0.00000  Uiso   1.00
C335   C     0.20590   0.76945   0.05855   0.00000  Uiso   1.00
C336   C     0.31031   0.83991   0.11410   0.00000  Uiso   1.00
C337   C     0.06595   0.68009   0.36378   0.00000  Uiso   1.00
C338   C     0.04886   0.63706   0.38536   0.00000  Uiso   1.00
C339   C     0.09197   0.66152   0.11407   0.00000  Uiso   1.00
C340   C     0.05560   0.63837   0.14442   0.00000  Uiso   1.00
C341   C     0.26800   0.81182   0.38343   0.00000  Uiso   1.00
C342   C     0.29697   0.84370   0.42094   0.00000  Uiso   1.00
C343   C     0.04126   0.74886   0.01438   0.00000  Uiso   1.00
C344   C     0.32444   0.72923   0.48754   0.00000  Uiso   1.00
C345   C     0.15634   0.85436   0.47118   0.00000  Uiso   1.00
C346   C     0.14453   0.71525   0.44321   0.00000  Uiso   1.00
C347   C     0.17382   0.89918   0.49350   0.00000  Uiso   1.00
C348   C     0.20546   0.77109   0.10932   0.00000  Uiso   1.00
C349   C     0.14285   0.71617   0.39229   0.00000  Uiso   1.00
C350   C     0.12686   0.72913   0.09960   0.00000  Uiso   1.00
C351   C     0.18931   0.78458   0.39893   0.00000  Uiso   1.00
C352   C     0.12286   0.73240   0.04833   0.00000  Uiso   1.00
Cu353  Cu    0.16667   0.75000   0.29822   0.00000  Uiso   1.00
Cu354  Cu    0.16667   0.75001   0.20179   0.00000  Uiso   1.00
H355   H     0.32585   0.74680   0.19385   0.00000  Uiso   1.00
H356   H     0.11224   0.86541   0.32169   0.00000  Uiso   1.00
H357   H     0.28331   0.54449   0.21905   0.00000  Uiso   1.00
H358   H     0.17463   0.50480   0.33843   0.00000  Uiso   1.00
H359   H     0.25498   0.85468   0.16157   0.00000  Uiso   1.00
H360   H     0.22715   0.84855   0.09955   0.00000  Uiso   1.00
H361   H     0.31316   0.82136   0.08007   0.00000  Uiso   1.00
H362   H     0.31877   0.87547   0.10834   0.00000  Uiso   1.00
H363   H     0.00626   0.82736   0.14338   0.00000  Uiso   1.00
H364   H     0.04780   0.68077   0.32530   0.00000  Uiso   1.00
H365   H     0.05039   0.70870   0.38253   0.00000  Uiso   1.00
H366   H     0.00750   0.75396   0.30608   0.00000  Uiso   1.00
H367   H     0.06481   0.63536   0.42435   0.00000  Uiso   1.00
H368   H     0.00595   0.63535   0.38184   0.00000  Uiso   1.00
H369   H     0.06252   0.60832   0.36582   0.00000  Uiso   1.00
H370   H     0.13208   0.65021   0.12624   0.00000  Uiso   1.00
H371   H     0.08040   0.65124   0.07560   0.00000  Uiso   1.00
H372   H     0.06510   0.64869   0.18305   0.00000  Uiso   1.00
H373   H     0.01492   0.64713   0.13129   0.00000  Uiso   1.00
H374   H     0.05952   0.60193   0.14159   0.00000  Uiso   1.00
H375   H     0.28121   0.81932   0.34813   0.00000  Uiso   1.00
H376   H     0.27958   0.77712   0.39243   0.00000  Uiso   1.00
H377   H     0.09396   0.52999   0.27120   0.00000  Uiso   1.00
H378   H     0.29116   0.83402   0.45810   0.00000  Uiso   1.00
H379   H     0.00577   0.84281   0.41866   0.00000  Uiso   1.00
H380   H     0.28338   0.87799   0.41404   0.00000  Uiso   1.00
H381   H     0.05392   0.77697   0.49296   0.00000  Uiso   1.00
H382   H     0.03319   0.76138   0.05028   0.00000  Uiso   1.00
H383   H     0.31078   0.70124   0.00835   0.00000  Uiso   1.00
H384   H     0.29422   0.75479   0.48323   0.00000  Uiso   1.00
H385   H     0.33066   0.71707   0.45110   0.00000  Uiso   1.00
H386   H     0.12628   0.84013   0.49161   0.00000  Uiso   1.00
H387   H     0.13900   0.85976   0.43281   0.00000  Uiso   1.00
H388   H     0.17990   0.96996   0.17681   0.00000  Uiso   1.00
H389   H     0.20368   0.91422   0.47358   0.00000  Uiso   1.00
H390   H     0.14029   0.92155   0.49132   0.00000  Uiso   1.00
H391   H     0.19034   0.89533   0.03214   0.00000  Uiso   1.00
H392   H     0.09413   0.61075   0.27156   0.00000  Uiso   1.00
H393   H     0.17606   0.88965   0.17593   0.00000  Uiso   1.00
H394   H     0.23926   0.78246   0.04399   0.00000  Uiso   1.00
H395   H     0.13021   0.68603   0.45949   0.00000  Uiso   1.00
H396   H     0.25536   0.64941   0.23250   0.00000  Uiso   1.00
N397   N     0.16667   0.75001   0.12935   0.00000  Uiso   1.00
N398   N     0.16667   0.74999   0.37066   0.00000  Uiso   1.00
O399   O     0.16667   0.68573   0.29072   0.00000  Uiso   1.00
O400   O     0.13943   0.88787   0.33323   0.00000  Uiso   1.00
O401   O     0.25576   0.52430   0.22753   0.00000  Uiso   1.00
O402   O     0.15754   0.97528   0.33819   0.00000  Uiso   1.00
O403   O     0.24699   0.78973   0.13960   0.00000  Uiso   1.00
O404   O     0.12038   0.68090   0.36464   0.00000  Uiso   1.00
O405   O     0.08793   0.70779   0.11982   0.00000  Uiso   1.00
O406   O     0.21394   0.81886   0.37823   0.00000  Uiso   1.00
O407   O     0.07910   0.71580   0.01962   0.00000  Uiso   1.00
O408   O     0.19936   0.82637   0.47406   0.00000  Uiso   1.00
O409   O     0.16666   0.81428   0.20929   0.00000  Uiso   1.00
O410   O     0.16667   0.68573   0.20928   0.00000  Uiso   1.00
O411   O     0.16666   0.81427   0.29072   0.00000  Uiso   1.00
O412   O     0.09161   0.75000   0.28132   0.00000  Uiso   1.00
O413   O     0.24172   0.75001   0.21868   0.00000  Uiso   1.00
O414   O     0.09161   0.75000   0.19989   0.00000  Uiso   1.00
O415   O     0.24172   0.75000   0.30012   0.00000  Uiso   1.00
O416   O     0.25738   0.61737   0.22572   0.00000  Uiso   1.00
C417   C     0.50081   0.66524   0.24989   0.00000  Uiso   1.00
C418   C     0.51753   0.78767   0.44885   0.00000  Uiso   1.00
C419   C     0.49741   0.75112   0.02698   0.00000  Uiso   1.00
C420   C     0.49750   0.75144   0.47248   0.00000  Uiso   1.00
C421   C     0.40126   0.74984   0.23755   0.00000  Uiso   1.00
C422   C     0.59874   0.75035   0.26244   0.00000  Uiso   1.00
C423   C     0.34591   0.74926   0.23073   0.00000  Uiso   1.00
C424   C     0.65408   0.75131   0.26922   0.00000  Uiso   1.00
C425   C     0.46085   0.54789   0.26194   0.00000  Uiso   1.00
C426   C     0.50749   0.95285   0.20973   0.00000  Uiso   1.00
C427   C     0.46096   0.59367   0.26218   0.00000  Uiso   1.00
C428   C     0.49801   0.83515   0.25008   0.00000  Uiso   1.00
C429   C     0.50461   0.90698   0.20915   0.00000  Uiso   1.00
C430   C     0.50346   0.61738   0.24974   0.00000  Uiso   1.00
C431   C     0.49577   0.88384   0.25072   0.00000  Uiso   1.00
C432   C     0.54728   0.59510   0.23728   0.00000  Uiso   1.00
C433   C     0.48744   0.90794   0.29293   0.00000  Uiso   1.00
C434   C     0.54718   0.54835   0.23775   0.00000  Uiso   1.00
C435   C     0.49422   0.95391   0.29466   0.00000  Uiso   1.00
C436   C     0.50386   0.52516   0.25046   0.00000  Uiso   1.00
C437   C     0.50303   0.97663   0.25223   0.00000  Uiso   1.00
C438   C     0.58958   0.83451   0.12828   0.00000  Uiso   1.00
C439   C     0.53924   0.76945   0.05855   0.00000  Uiso   1.00
C440   C     0.64364   0.83991   0.11410   0.00000  Uiso   1.00
C441   C     0.39928   0.68009   0.36378   0.00000  Uiso   1.00
C442   C     0.38219   0.63706   0.38536   0.00000  Uiso   1.00
C443   C     0.42531   0.66152   0.11407   0.00000  Uiso   1.00
C444   C     0.38894   0.63837   0.14442   0.00000  Uiso   1.00
C445   C     0.60133   0.81182   0.38343   0.00000  Uiso   1.00
C446   C     0.63030   0.84370   0.42094   0.00000  Uiso   1.00
C447   C     0.37460   0.74886   0.01438   0.00000  Uiso   1.00
C448   C     0.65778   0.72923   0.48754   0.00000  Uiso   1.00
C449   C     0.48967   0.85436   0.47118   0.00000  Uiso   1.00
C450   C     0.47786   0.71525   0.44321   0.00000  Uiso   1.00
C451   C     0.50715   0.89918   0.49350   0.00000  Uiso   1.00
C452   C     0.53879   0.77109   0.10932   0.00000  Uiso   1.00
C453   C     0.47618   0.71617   0.39229   0.00000  Uiso   1.00
C454   C     0.46019   0.72913   0.09960   0.00000  Uiso   1.00
C455   C     0.52265   0.78458   0.39893   0.00000  Uiso   1.00
C456   C     0.45619   0.73240   0.04833   0.00000  Uiso   1.00
Cu457  Cu    0.50000   0.75000   0.29822   0.00000  Uiso   1.00
Cu458  Cu    0.50000   0.75001   0.20179   0.00000  Uiso   1.00
H459   H     0.65918   0.74680   0.19385   0.00000  Uiso   1.00
H460   H     0.44557   0.86541   0.32169   0.00000  Uiso   1.00
H461   H     0.61664   0.54449   0.21905   0.00000  Uiso   1.00
H462   H     0.50796   0.50480   0.33843   0.00000  Uiso   1.00
H463   H     0.58832   0.85468   0.16157   0.00000  Uiso   1.00
H464   H     0.56049   0.84855   0.09955   0.00000  Uiso   1.00
H465   H     0.64650   0.82136   0.08007   0.00000  Uiso   1.00
H466   H     0.65210   0.87547   0.10834   0.00000  Uiso   1.00
H467   H     0.33959   0.82736   0.14338   0.00000  Uiso   1.00
H468   H     0.38113   0.68077   0.32530   0.00000  Uiso   1.00
H469   H     0.38373   0.70870   0.38253   0.00000  Uiso   1.00
H470   H     0.34083   0.75396   0.30608   0.00000  Uiso   1.00
H471   H     0.39814   0.63536   0.42435   0.00000  Uiso   1.00
H472   H     0.33928   0.63535   0.38184   0.00000  Uiso   1.00
H473   H     0.39585   0.60832   0.36582   0.00000  Uiso   1.00
H474   H     0.46541   0.65021   0.12624   0.00000  Uiso   1.00
H475   H     0.41374   0.65124   0.07560   0.00000  Uiso   1.00
H476   H     0.39843   0.64869   0.18305   0.00000  Uiso   1.00
H477   H     0.34826   0.64713   0.13129   0.00000  Uiso   1.00
H478   H     0.39285   0.60193   0.14159   0.00000  Uiso   1.00
H479   H     0.61454   0.81932   0.34813   0.00000  Uiso   1.00
H480   H     0.61291   0.77712   0.39243   0.00000  Uiso   1.00
H481   H     0.42730   0.52999   0.27120   0.00000  Uiso   1.00
H482   H     0.62450   0.83402   0.45810   0.00000  Uiso   1.00
H483   H     0.33910   0.84281   0.41866   0.00000  Uiso   1.00
H484   H     0.61671   0.87799   0.41404   0.00000  Uiso   1.00
H485   H     0.38726   0.77697   0.49296   0.00000  Uiso   1.00
H486   H     0.36652   0.76138   0.05028   0.00000  Uiso   1.00
H487   H     0.64412   0.70124   0.00835   0.00000  Uiso   1.00
H488   H     0.62756   0.75479   0.48323   0.00000  Uiso   1.00
H489   H     0.66399   0.71707   0.45110   0.00000  Uiso   1.00
H490   H     0.45962   0.84013   0.49161   0.00000  Uiso   1.00
H491   H     0.47234   0.85976   0.43281   0.00000  Uiso   1.00
H492   H     0.51323   0.96996   0.17681   0.00000  Uiso   1.00
H493   H     0.53701   0.91422   0.47358   0.00000  Uiso   1.00
H494   H     0.47362   0.92155   0.49132   0.00000  Uiso   1.00
H495   H     0.52367   0.89533   0.03214   0.00000  Uiso   1.00
H496   H     0.42747   0.61075   0.27156   0.00000  Uiso   1.00
H497   H     0.50939   0.88965   0.17593   0.00000  Uiso   1.00
H498   H     0.57260   0.78246   0.04399   0.00000  Uiso   1.00
H499   H     0.46354   0.68603   0.45949   0.00000  Uiso   1.00
H500   H     0.58870   0.64941   0.23250   0.00000  Uiso   1.00
N501   N     0.50000   0.75001   0.12935   0.00000  Uiso   1.00
N502   N     0.50000   0.74999   0.37066   0.00000  Uiso   1.00
O503   O     0.50000   0.68573   0.29072   0.00000  Uiso   1.00
O504   O     0.47276   0.88787   0.33323   0.00000  Uiso   1.00
O505   O     0.58909   0.52430   0.22753   0.00000  Uiso   1.00
O506   O     0.49087   0.97528   0.33819   0.00000  Uiso   1.00
O507   O     0.58033   0.78973   0.13960   0.00000  Uiso   1.00
O508   O     0.45371   0.68090   0.36464   0.00000  Uiso   1.00
O509   O     0.42126   0.70779   0.11982   0.00000  Uiso   1.00
O510   O     0.54728   0.81886   0.37823   0.00000  Uiso   1.00
O511   O     0.41243   0.71580   0.01962   0.00000  Uiso   1.00
O512   O     0.53269   0.82637   0.47406   0.00000  Uiso   1.00
O513   O     0.50000   0.81428   0.20929   0.00000  Uiso   1.00
O514   O     0.50000   0.68573   0.20928   0.00000  Uiso   1.00
O515   O     0.50000   0.81427   0.29072   0.00000  Uiso   1.00
O516   O     0.42495   0.75000   0.28132   0.00000  Uiso   1.00
O517   O     0.57505   0.75001   0.21868   0.00000  Uiso   1.00
O518   O     0.42495   0.75000   0.19989   0.00000  Uiso   1.00
O519   O     0.57505   0.75000   0.30012   0.00000  Uiso   1.00
O520   O     0.59071   0.61737   0.22572   0.00000  Uiso   1.00
C521   C     0.83414   0.66524   0.24989   0.00000  Uiso   1.00
C522   C     0.85086   0.78767   0.44885   0.00000  Uiso   1.00
C523   C     0.83074   0.75112   0.02698   0.00000  Uiso   1.00
C524   C     0.83083   0.75144   0.47248   0.00000  Uiso   1.00
C525   C     0.73460   0.74984   0.23755   0.00000  Uiso   1.00
C526   C     0.93207   0.75035   0.26244   0.00000  Uiso   1.00
C527   C     0.67924   0.74926   0.23073   0.00000  Uiso   1.00
C528   C     0.98742   0.75131   0.26922   0.00000  Uiso   1.00
C529   C     0.79419   0.54789   0.26194   0.00000  Uiso   1.00
C530   C     0.84082   0.95285   0.20973   0.00000  Uiso   1.00
C531   C     0.79429   0.59367   0.26218   0.00000  Uiso   1.00
C532   C     0.83135   0.83515   0.25008   0.00000  Uiso   1.00
C533   C     0.83794   0.90698   0.20915   0.00000  Uiso   1.00
C534   C     0.83679   0.61738   0.24974   0.00000  Uiso   1.00
C535   C     0.82910   0.88384   0.25072   0.00000  Uiso   1.00
C536   C     0.88062   0.59510   0.23728   0.00000  Uiso   1.00
C537   C     0.82078   0.90794   0.29293   0.00000  Uiso   1.00
C538   C     0.88052   0.54835   0.23775   0.00000  Uiso   1.00
C539   C     0.82756   0.95391   0.29466   0.00000  Uiso   1.00
C540   C     0.83719   0.52516   0.25046   0.00000  Uiso   1.00
C541   C     0.83637   0.97663   0.25223   0.00000  Uiso   1.00
C542   C     0.92291   0.83451   0.12828   0.00000  Uiso   1.00
C543   C     0.87257   0.76945   0.05855   0.00000  Uiso   1.00
C544   C     0.97698   0.83991   0.11410   0.00000  Uiso   1.00
C545   C     0.73261   0.68009   0.36378   0.00000  Uiso   1.00
C546   C     0.71553   0.63706   0.38536   0.00000  Uiso   1.00
C547   C     0.75864   0.66152   0.11407   0.00000  Uiso   1.00
C548   C     0.72227   0.63837   0.14442   0.00000  Uiso   1.00
C549   C     0.93467   0.81182   0.38343   0.00000  Uiso   1.00
C550   C     0.96364   0.84370   0.42094   0.00000  Uiso   1.00
C551   C     0.70793   0.74886   0.01438   0.00000  Uiso   1.00
C552   C     0.99111   0.72923   0.48754   0.00000  Uiso   1.00
C553   C     0.82300   0.85436   0.47118   0.00000  Uiso   1.00
C554   C     0.81119   0.71525   0.44321   0.00000  Uiso   1.00
C555   C     0.84049   0.89918   0.49350   0.00000  Uiso   1.00
C556   C     0.87213   0.77109   0.10932   0.00000  Uiso   1.00
C557   C     0.80952   0.71617   0.39229   0.00000  Uiso   1.00
C558   C     0.79352   0.72913   0.09960   0.00000  Uiso   1.00
C559   C     0.85598   0.78458   0.39893   0.00000  Uiso   1.00
C560   C     0.78953   0.73240   0.04833   0.00000  Uiso   1.00
Cu561  Cu    0.83333   0.75000   0.29822   0.00000  Uiso   1.00
Cu562  Cu    0.83333   0.75001   0.20179   0.00000  Uiso   1.00
H563   H     0.99252   0.74680   0.19385   0.00000  Uiso   1.00
H564   H     0.77891   0.86541   0.32169   0.00000  Uiso   1.00
H565   H     0.94998   0.54449   0.21905   0.00000  Uiso   1.00
H566   H     0.84129   0.50480   0.33843   0.00000  Uiso   1.00
H567   H     0.92165   0.85468   0.16157   0.00000  Uiso   1.00
H568   H     0.89382   0.84855   0.09955   0.00000  Uiso   1.00
H569   H     0.97983   0.82136   0.08007   0.00000  Uiso   1.00
H570   H     0.98544   0.87547   0.10834   0.00000  Uiso   1.00
H571   H     0.67293   0.82736   0.14338   0.00000  Uiso   1.00
H572   H     0.71446   0.68077   0.32530   0.00000  Uiso   1.00
H573   H     0.71706   0.70870   0.38253   0.00000  Uiso   1.00
H574   H     0.67416   0.75396   0.30608   0.00000  Uiso   1.00
H575   H     0.73147   0.63536   0.42435   0.00000  Uiso   1.00
H576   H     0.67261   0.63535   0.38184   0.00000  Uiso   1.00
H577   H     0.72918   0.60832   0.36582   0.00000  Uiso   1.00
H578   H     0.79874   0.65021   0.12624   0.00000  Uiso   1.00
H579   H     0.74707   0.65124   0.07560   0.00000  Uiso   1.00
H580   H     0.73176   0.64869   0.18305   0.00000  Uiso   1.00
H581   H     0.68159   0.64713   0.13129   0.00000  Uiso   1.00
H582   H     0.72618   0.60193   0.14159   0.00000  Uiso   1.00
H583   H     0.94787   0.81932   0.34813   0.00000  Uiso   1.00
H584   H     0.94624   0.77712   0.39243   0.00000  Uiso   1.00
H585   H     0.76063   0.52999   0.27120   0.00000  Uiso   1.00
H586   H     0.95783   0.83402   0.45810   0.00000  Uiso   1.00
H587   H     0.67243   0.84281   0.41866   0.00000  Uiso   1.00
H588   H     0.95004   0.87799   0.41404   0.00000  Uiso   1.00
H589   H     0.72059   0.77697   0.49296   0.00000  Uiso   1.00
H590   H     0.69985   0.76138   0.05028   0.00000  Uiso   1.00
H591   H     0.97745   0.70124   0.00835   0.00000  Uiso   1.00
H592   H     0.96089   0.75479   0.48323   0.00000  Uiso   1.00
H593   H     0.99733   0.71707   0.45110   0.00000  Uiso   1.00
H594   H     0.79295   0.84013   0.49161   0.00000  Uiso   1.00
H595   H     0.80567   0.85976   0.43281   0.00000  Uiso   1.00
H596   H     0.84656   0.96996   0.17681   0.00000  Uiso   1.00
H597   H     0.87034   0.91422   0.47358   0.00000  Uiso   1.00
H598   H     0.80696   0.92155   0.49132   0.00000  Uiso   1.00
H599   H     0.85700   0.89533   0.03214   0.00000  Uiso   1.00
H600   H     0.76080   0.61075   0.27156   0.00000  Uiso   1.00
H601   H     0.84273   0.88965   0.17593   0.00000  Uiso   1.00
H602   H     0.90593   0.78246   0.04399   0.00000  Uiso   1.00
H603   H     0.79688   0.68603   0.45949   0.00000  Uiso   1.00
H604   H     0.92203   0.64941   0.23250   0.00000  Uiso   1.00
N605   N     0.83333   0.75001   0.12935   0.00000  Uiso   1.00
N606   N     0.83333   0.74999   0.37066   0.00000  Uiso   1.00
O607   O     0.83334   0.68573   0.29072   0.00000  Uiso   1.00
O608   O     0.80609   0.88787   0.33323   0.00000  Uiso   1.00
O609   O     0.92243   0.52430   0.22753   0.00000  Uiso   1.00
O610   O     0.82421   0.97528   0.33819   0.00000  Uiso   1.00
O611   O     0.91366   0.78973   0.13960   0.00000  Uiso   1.00
O612   O     0.78704   0.68090   0.36464   0.00000  Uiso   1.00
O613   O     0.75459   0.70779   0.11982   0.00000  Uiso   1.00
O614   O     0.88061   0.81886   0.37823   0.00000  Uiso   1.00
O615   O     0.74577   0.71580   0.01962   0.00000  Uiso   1.00
O616   O     0.86603   0.82637   0.47406   0.00000  Uiso   1.00
O617   O     0.83333   0.81428   0.20929   0.00000  Uiso   1.00
O618   O     0.83334   0.68573   0.20928   0.00000  Uiso   1.00
O619   O     0.83333   0.81427   0.29072   0.00000  Uiso   1.00
O620   O     0.75828   0.75000   0.28132   0.00000  Uiso   1.00
O621   O     0.90839   0.75001   0.21868   0.00000  Uiso   1.00
O622   O     0.75828   0.75000   0.19989   0.00000  Uiso   1.00
O623   O     0.90839   0.75000   0.30012   0.00000  Uiso   1.00
O624   O     0.92404   0.61737   0.22572   0.00000  Uiso   1.00
C625   C     0.16748   0.16524   0.74989   0.00000  Uiso   1.00
C626   C     0.18419   0.28767   0.94885   0.00000  Uiso   1.00
C627   C     0.16407   0.25112   0.52698   0.00000  Uiso   1.00
C628   C     0.16417   0.25144   0.97248   0.00000  Uiso   1.00
C629   C     0.06793   0.24984   0.73755   0.00000  Uiso   1.00
C630   C     0.26540   0.25035   0.76244   0.00000  Uiso   1.00
C631   C     0.01258   0.24926   0.73073   0.00000  Uiso   1.00
C632   C     0.32075   0.25131   0.76922   0.00000  Uiso   1.00
C633   C     0.12752   0.04789   0.76194   0.00000  Uiso   1.00
C634   C     0.17416   0.45285   0.70973   0.00000  Uiso   1.00
C635   C     0.12763   0.09367   0.76218   0.00000  Uiso   1.00
C636   C     0.16468   0.33515   0.75008   0.00000  Uiso   1.00
C637   C     0.17128   0.40698   0.70915   0.00000  Uiso   1.00
C638   C     0.17013   0.11738   0.74974   0.00000  Uiso   1.00
C639   C     0.16243   0.38384   0.75072   0.00000  Uiso   1.00
C640   C     0.21395   0.09510   0.73728   0.00000  Uiso   1.00
C641   C     0.15411   0.40794   0.79293   0.00000  Uiso   1.00
C642   C     0.21385   0.04835   0.73775   0.00000  Uiso   1.00
C643   C     0.16089   0.45391   0.79466   0.00000  Uiso   1.00
C644   C     0.17052   0.02516   0.75046   0.00000  Uiso   1.00
C645   C     0.16970   0.47663   0.75223   0.00000  Uiso   1.00
C646   C     0.25625   0.33451   0.62828   0.00000  Uiso   1.00
C647   C     0.20590   0.26945   0.55855   0.00000  Uiso   1.00
C648   C     0.31031   0.33991   0.61410   0.00000  Uiso   1.00
C649   C     0.06595   0.18009   0.86378   0.00000  Uiso   1.00
C650   C     0.04886   0.13706   0.88536   0.00000  Uiso   1.00
C651   C     0.09197   0.16152   0.61407   0.00000  Uiso   1.00
C652   C     0.05560   0.13837   0.64442   0.00000  Uiso   1.00
C653   C     0.26800   0.31182   0.88343   0.00000  Uiso   1.00
C654   C     0.29697   0.34370   0.92094   0.00000  Uiso   1.00
C655   C     0.04126   0.24886   0.51438   0.00000  Uiso   1.00
C656   C     0.32444   0.22923   0.98754   0.00000  Uiso   1.00
C657   C     0.15634   0.35436   0.97118   0.00000  Uiso   1.00
C658   C     0.14453   0.21525   0.94321   0.00000  Uiso   1.00
C659   C     0.17382   0.39918   0.99350   0.00000  Uiso   1.00
C660   C     0.20546   0.27109   0.60932   0.00000  Uiso   1.00
C661   C     0.14285   0.21617   0.89229   0.00000  Uiso   1.00
C662   C     0.12686   0.22913   0.59960   0.00000  Uiso   1.00
C663   C     0.18931   0.28458   0.89893   0.00000  Uiso   1.00
C664   C     0.12286   0.23240   0.54833   0.00000  Uiso   1.00
Cu665  Cu    0.16667   0.25000   0.79822   0.00000  Uiso   1.00
Cu666  Cu    0.16667   0.25001   0.70179   0.00000  Uiso   1.00
H667   H     0.32585   0.24680   0.69385   0.00000  Uiso   1.00
H668   H     0.11224   0.36541   0.82169   0.00000  Uiso   1.00
H669   H     0.28331   0.04449   0.71905   0.00000  Uiso   1.00
H670   H     0.17463   0.00480   0.83843   0.00000  Uiso   1.00
H671   H     0.25498   0.35468   0.66157   0.00000  Uiso   1.00
H672   H     0.22715   0.34855   0.59955   0.00000  Uiso   1.00
H673   H     0.31316   0.32136   0.58007   0.00000  Uiso   1.00
H674   H     0.31877   0.37547   0.60834   0.00000  Uiso   1.00
H675   H     0.00626   0.32736   0.64338   0.00000  Uiso   1.00
H676   H     0.04780   0.18077   0.82530   0.00000  Uiso   1.00
H677   H     0.05039   0.20870   0.88253   0.00000  Uiso   1.00
H678   H     0.00750   0.25396   0.80608   0.00000  Uiso   1.00
H679   H     0.06481   0.13536   0.92435   0.00000  Uiso   1.00
H680   H     0.00595   0.13535   0.88184   0.00000  Uiso   1.00
H681   H     0.06252   0.10832   0.86582   0.00000  Uiso   1.00
H682   H     0.13208   0.15021   0.62624   0.00000  Uiso   1.00
H683   H     0.08040   0.15124   0.57560   0.00000  Uiso   1.00
H684   H     0.06510   0.14869   0.68305   0.00000  Uiso   1.00
H685   H     0.01492   0.14713   0.63129   0.00000  Uiso   1.00
H686   H     0.05952   0.10193   0.64159   0.00000  Uiso   1.00
H687   H     0.28121   0.31932   0.84813   0.00000  Uiso   1.00
H688   H     0.27958   0.27712   0.89243   0.00000  Uiso   1.00
H689   H     0.09396   0.02999   0.77120   0.00000  Uiso   1.00
H690   H     0.29116   0.33402   0.95810   0.00000  Uiso   1.00
H691   H     0.00577   0.34281   0.91866   0.00000  Uiso   1.00
H692   H     0.28338   0.37799   0.91404   0.00000  Uiso   1.00
H693   H     0.05392   0.27697   0.99296   0.00000  Uiso   1.00
H694   H     0.03319   0.26138   0.55028   0.00000  Uiso   1.00
H695   H     0.31078   0.20124   0.50835   0.00000  Uiso   1.00
H696   H     0.29422   0.25479   0.98323   0.00000  Uiso   1.00
H697   H     0.33066   0.21707   0.95110   0.00000  Uiso   1.00
H698   H     0.12628   0.34013   0.99161   0.00000  Uiso   1.00
H699   H     0.13900   0.35976   0.93281   0.00000  Uiso   1.00
H700   H     0.17990   0.46996   0.67681   0.00000  Uiso   1.00
H701   H     0.20368   0.41422   0.97358   0.00000  Uiso   1.00
H702   H     0.14029   0.42155   0.99132   0.00000  Uiso   1.00
H703   H     0.19034   0.39533   0.53214   0.00000  Uiso   1.00
H704   H     0.09413   0.11075   0.77156   0.00000  Uiso   1.00
H705   H     0.17606   0.38965   0.67593   0.00000  Uiso   1.00
H706   H     0.23926   0.28246   0.54399   0.00000  Uiso   1.00
H707   H     0.13021   0.18603   0.95949   0.00000  Uiso   1.00
H708   H     0.25536   0.14941   0.73250   0.00000  Uiso   1.00
N709   N     0.16667   0.25001   0.62935   0.00000  Uiso   1.00
N710   N     0.16667   0.24999   0.87066   0.00000  Uiso   1.00
O711   O     0.16667   0.18573   0.79072   0.00000  Uiso   1.00
O712   O     0.13943   0.38787   0.83323   0.00000  Uiso   1.00
O713   O     0.25576   0.02430   0.72753   0.00000  Uiso   1.00
O714   O     0.15754   0.47528   0.83819   0.00000  Uiso   1.00
O715   O     0.24699   0.28973   0.63960   0.00000  Uiso   1.00
O716   O     0.12038   0.18090   0.86464   0.00000  Uiso   1.00
O717   O     0.08793   0.20779   0.61982   0.00000  Uiso   1.00
O718   O     0.21394   0.31886   0.87823   0.00000  Uiso   1.00
O719   O     0.07910   0.21580   0.51962   0.00000  Uiso   1.00
O720   O     0.19936   0.32637   0.97406   0.00000  Uiso   1.00
O721   O     0.16666   0.31428   0.70929   0.00000  Uiso   1.00
O722   O     0.16667   0.18573   0.70928   0.00000  Uiso   1.00
O723   O     0.16666   0.31427   0.79072   0.00000  Uiso   1.00
O724   O     0.09161   0.25000   0.78132   0.00000  Uiso   1.00
O725   O     0.24172   0.25001   0.71868   0.00000  Uiso   1.00
O726   O     0.09161   0.25000   0.69989   0.00000  Uiso   1.00
O727   O     0.24172   0.25000   0.80012   0.00000  Uiso   1.00
O728   O     0.25738   0.11737   0.72572   0.00000  Uiso   1.00
C729   C     0.50081   0.16524   0.74989   0.00000  Uiso   1.00
C730   C     0.51753   0.28767   0.94885   0.00000  Uiso   1.00
C731   C     0.49741   0.25112   0.52698   0.00000  Uiso   1.00
C732   C     0.49750   0.25144   0.97248   0.00000  Uiso   1.00
C733   C     0.40126   0.24984   0.73755   0.00000  Uiso   1.00
C734   C     0.59874   0.25035   0.76244   0.00000  Uiso   1.00
C735   C     0.34591   0.24926   0.73073   0.00000  Uiso   1.00
C736   C     0.65408   0.25131   0.76922   0.00000  Uiso   1.00
C737   C     0.46085   0.04789   0.76194   0.00000  Uiso   1.00
C738   C     0.50749   0.45285   0.70973   0.00000  Uiso   1.00
C739   C     0.46096   0.09367   0.76218   0.00000  Uiso   1.00
C740   C     0.49801   0.33515   0.75008   0.00000  Uiso   1.00
C741   C     0.50461   0.40698   0.70915   0.00000  Uiso   1.00
C742   C     0.50346   0.11738   0.74974   0.00000  Uiso   1.00
C743   C     0.49577   0.38384   0.75072   0.00000  Uiso   1.00
C744   C     0.54728   0.09510   0.73728   0.00000  Uiso   1.00
C745   C     0.48744   0.40794   0.79293   0.00000  Uiso   1.00
C746   C     0.54718   0.04835   0.73775   0.00000  Uiso   1.00
C747   C     0.49422   0.45391   0.79466   0.00000  Uiso   1.00
C748   C     0.50386   0.02516   0.75046   0.00000  Uiso   1.00
C749   C     0.50303   0.47663   0.75223   0.00000  Uiso   1.00
C750   C     0.58958   0.33451   0.62828   0.00000  Uiso   1.00
C751   C     0.53924   0.26945   0.55855   0.00000  Uiso   1.00
C752   C     0.64364   0.33991   0.61410   0.00000  Uiso   1.00
C753   C     0.39928   0.18009   0.86378   0.00000  Uiso   1.00
C754   C     0.38219   0.13706   0.88536   0.00000  Uiso   1.00
C755   C     0.42531   0.16152   0.61407   0.00000  Uiso   1.00
C756   C     0.38894   0.13837   0.64442   0.00000  Uiso   1.00
C757   C     0.60133   0.31182   0.88343   0.00000  Uiso   1.00
C758   C     0.63030   0.34370   0.92094   0.00000  Uiso   1.00
C759   C     0.37460   0.24886   0.51438   0.00000  Uiso   1.00
C760   C     0.65778   0.22923   0.98754   0.00000  Uiso   1.00
C761   C     0.48967   0.35436   0.97118   0.00000  Uiso   1.00
C762   C     0.47786   0.21525   0.94321   0.00000  Uiso   1.00
C763   C     0.50715   0.39918   0.99350   0.00000  Uiso   1.00
C764   C     0.53879   0.27109   0.60932   0.00000  Uiso   1.00
C765   C     0.47618   0.21617   0.89229   0.00000  Uiso   1.00
C766   C     0.46019   0.22913   0.59960   0.00000  Uiso   1.00
C767   C     0.52265   0.28458   0.89893   0.00000  Uiso   1.00
C768   C     0.45619   0.23240   0.54833   0.00000  Uiso   1.00
Cu769  Cu    0.50000   0.25000   0.79822   0.00000  Uiso   1.00
Cu770  Cu    0.50000   0.25001   0.70179   0.00000  Uiso   1.00
H771   H     0.65918   0.24680   0.69385   0.00000  Uiso   1.00
H772   H     0.44557   0.36541   0.82169   0.00000  Uiso   1.00
H773   H     0.61664   0.04449   0.71905   0.00000  Uiso   1.00
H774   H     0.50796   0.00480   0.83843   0.00000  Uiso   1.00
H775   H     0.58832   0.35468   0.66157   0.00000  Uiso   1.00
H776   H     0.56049   0.34855   0.59955   0.00000  Uiso   1.00
H777   H     0.64650   0.32136   0.58007   0.00000  Uiso   1.00
H778   H     0.65210   0.37547   0.60834   0.00000  Uiso   1.00
H779   H     0.33959   0.32736   0.64338   0.00000  Uiso   1.00
H780   H     0.38113   0.18077   0.82530   0.00000  Uiso   1.00
H781   H     0.38373   0.20870   0.88253   0.00000  Uiso   1.00
H782   H     0.34083   0.25396   0.80608   0.00000  Uiso   1.00
H783   H     0.39814   0.13536   0.92435   0.00000  Uiso   1.00
H784   H     0.33928   0.13535   0.88184   0.00000  Uiso   1.00
H785   H     0.39585   0.10832   0.86582   0.00000  Uiso   1.00
H786   H     0.46541   0.15021   0.62624   0.00000  Uiso   1.00
H787   H     0.41374   0.15124   0.57560   0.00000  Uiso   1.00
H788   H     0.39843   0.14869   0.68305   0.00000  Uiso   1.00
H789   H     0.34826   0.14713   0.63129   0.00000  Uiso   1.00
H790   H     0.39285   0.10193   0.64159   0.00000  Uiso   1.00
H791   H     0.61454   0.31932   0.84813   0.00000  Uiso   1.00
H792   H     0.61291   0.27712   0.89243   0.00000  Uiso   1.00
H793   H     0.42730   0.02999   0.77120   0.00000  Uiso   1.00
H794   H     0.62450   0.33402   0.95810   0.00000  Uiso   1.00
H795   H     0.33910   0.34281   0.91866   0.00000  Uiso   1.00
H796   H     0.61671   0.37799   0.91404   0.00000  Uiso   1.00
H797   H     0.38726   0.27697   0.99296   0.00000  Uiso   1.00
H798   H     0.36652   0.26138   0.55028   0.00000  Uiso   1.00
H799   H     0.64412   0.20124   0.50835   0.00000  Uiso   1.00
H800   H     0.62756   0.25479   0.98323   0.00000  Uiso   1.00
H801   H     0.66399   0.21707   0.95110   0.00000  Uiso   1.00
H802   H     0.45962   0.34013   0.99161   0.00000  Uiso   1.00
H803   H     0.47234   0.35976   0.93281   0.00000  Uiso   1.00
H804   H     0.51323   0.46996   0.67681   0.00000  Uiso   1.00
H805   H     0.53701   0.41422   0.97358   0.00000  Uiso   1.00
H806   H     0.47362   0.42155   0.99132   0.00000  Uiso   1.00
H807   H     0.52367   0.39533   0.53214   0.00000  Uiso   1.00
H808   H     0.42747   0.11075   0.77156   0.00000  Uiso   1.00
H809   H     0.50939   0.38965   0.67593   0.00000  Uiso   1.00
H810   H     0.57260   0.28246   0.54399   0.00000  Uiso   1.00
H811   H     0.46354   0.18603   0.95949   0.00000  Uiso   1.00
H812   H     0.58870   0.14941   0.73250   0.00000  Uiso   1.00
N813   N     0.50000   0.25001   0.62935   0.00000  Uiso   1.00
N814   N     0.50000   0.24999   0.87066   0.00000  Uiso   1.00
O815   O     0.50000   0.18573   0.79072   0.00000  Uiso   1.00
O816   O     0.47276   0.38787   0.83323   0.00000  Uiso   1.00
O817   O     0.58909   0.02430   0.72753   0.00000  Uiso   1.00
O818   O     0.49087   0.47528   0.83819   0.00000  Uiso   1.00
O819   O     0.58033   0.28973   0.63960   0.00000  Uiso   1.00
O820   O     0.45371   0.18090   0.86464   0.00000  Uiso   1.00
O821   O     0.42126   0.20779   0.61982   0.00000  Uiso   1.00
O822   O     0.54728   0.31886   0.87823   0.00000  Uiso   1.00
O823   O     0.41243   0.21580   0.51962   0.00000  Uiso   1.00
O824   O     0.53269   0.32637   0.97406   0.00000  Uiso   1.00
O825   O     0.50000   0.31428   0.70929   0.00000  Uiso   1.00
O826   O     0.50000   0.18573   0.70928   0.00000  Uiso   1.00
O827   O     0.50000   0.31427   0.79072   0.00000  Uiso   1.00
O828   O     0.42495   0.25000   0.78132   0.00000  Uiso   1.00
O829   O     0.57505   0.25001   0.71868   0.00000  Uiso   1.00
O830   O     0.42495   0.25000   0.69989   0.00000  Uiso   1.00
O831   O     0.57505   0.25000   0.80012   0.00000  Uiso   1.00
O832   O     0.59071   0.11737   0.72572   0.00000  Uiso   1.00
C833   C     0.83414   0.16524   0.74989   0.00000  Uiso   1.00
C834   C     0.85086   0.28767   0.94885   0.00000  Uiso   1.00
C835   C     0.83074   0.25112   0.52698   0.00000  Uiso   1.00
C836   C     0.83083   0.25144   0.97248   0.00000  Uiso   1.00
C837   C     0.73460   0.24984   0.73755   0.00000  Uiso   1.00
C838   C     0.93207   0.25035   0.76244   0.00000  Uiso   1.00
C839   C     0.67924   0.24926   0.73073   0.00000  Uiso   1.00
C840   C     0.98742   0.25131   0.76922   0.00000  Uiso   1.00
C841   C     0.79419   0.04789   0.76194   0.00000  Uiso   1.00
C842   C     0.84082   0.45285   0.70973   0.00000  Uiso   1.00
C843   C     0.79429   0.09367   0.76218   0.00000  Uiso   1.00
C844   C     0.83135   0.33515   0.75008   0.00000  Uiso   1.00
C845   C     0.83794   0.40698   0.70915   0.00000  Uiso   1.00
C846   C     0.83679   0.11738   0.74974   0.00000  Uiso   1.00
C847   C     0.82910   0.38384   0.75072   0.00000  Uiso   1.00
C848   C     0.88062   0.09510   0.73728   0.00000  Uiso   1.00
C849   C     0.82078   0.40794   0.79293   0.00000  Uiso   1.00
C850   C     0.88052   0.04835   0.73775   0.00000  Uiso   1.00
C851   C     0.82756   0.45391   0.79466   0.00000  Uiso   1.00
C852   C     0.83719   0.02516   0.75046   0.00000  Uiso   1.00
C853   C     0.83637   0.47663   0.75223   0.00000  Uiso   1.00
C854   C     0.92291   0.33451   0.62828   0.00000  Uiso   1.00
C855   C     0.87257   0.26945   0.55855   0.00000  Uiso   1.00
C856   C     0.97698   0.33991   0.61410   0.00000  Uiso   1.00
C857   C     0.73261   0.18009   0.86378   0.00000  Uiso   1.00
C858   C     0.71553   0.13706   0.88536   0.00000  Uiso   1.00
C859   C     0.75864   0.16152   0.61407   0.00000  Uiso   1.00
C860   C     0.72227   0.13837   0.64442   0.00000  Uiso   1.00
C861   C     0.93467   0.31182   0.88343   0.00000  Uiso   1.00
C862   C     0.96364   0.34370   0.92094   0.00000  Uiso   1.00
C863   C     0.70793   0.24886   0.51438   0.00000  Uiso   1.00
C864   C     0.99111   0.22923   0.98754   0.00000  Uiso   1.00
C865   C     0.82300   0.35436   0.97118   0.00000  Uiso   1.00
C866   C     0.81119   0.21525   0.94321   0.00000  Uiso   1.00
C867   C     0.84049   0.39918   0.99350   0.00000  Uiso   1.00
C868   C     0.87213   0.27109   0.60932   0.00000  Uiso   1.00
C869   C     0.80952   0.21617   0.89229   0.00000  Uiso   1.00
C870   C     0.79352   0.22913   0.59960   0.00000  Uiso   1.00
C871   C     0.85598   0.28458   0.89893   0.00000  Uiso   1.00
C872   C     0.78953   0.23240   0.54833   0.00000  Uiso   1.00
Cu873  Cu    0.83333   0.25000   0.79822   0.00000  Uiso   1.00
Cu874  Cu    0.83333   0.25001   0.70179   0.00000  Uiso   1.00
H875   H     0.99252   0.24680   0.69385   0.00000  Uiso   1.00
H876   H     0.77891   0.36541   0.82169   0.00000  Uiso   1.00
H877   H     0.94998   0.04449   0.71905   0.00000  Uiso   1.00
H878   H     0.84129   0.00480   0.83843   0.00000  Uiso   1.00
H879   H     0.92165   0.35468   0.66157   0.00000  Uiso   1.00
H880   H     0.89382   0.34855   0.59955   0.00000  Uiso   1.00
H881   H     0.97983   0.32136   0.58007   0.00000  Uiso   1.00
H882   H     0.98544   0.37547   0.60834   0.00000  Uiso   1.00
H883   H     0.67293   0.32736   0.64338   0.00000  Uiso   1.00
H884   H     0.71446   0.18077   0.82530   0.00000  Uiso   1.00
H885   H     0.71706   0.20870   0.88253   0.00000  Uiso   1.00
H886   H     0.67416   0.25396   0.80608   0.00000  Uiso   1.00
H887   H     0.73147   0.13536   0.92435   0.00000  Uiso   1.00
H888   H     0.67261   0.13535   0.88184   0.00000  Uiso   1.00
H889   H     0.72918   0.10832   0.86582   0.00000  Uiso   1.00
H890   H     0.79874   0.15021   0.62624   0.00000  Uiso   1.00
H891   H     0.74707   0.15124   0.57560   0.00000  Uiso   1.00
H892   H     0.73176   0.14869   0.68305   0.00000  Uiso   1.00
H893   H     0.68159   0.14713   0.63129   0.00000  Uiso   1.00
H894   H     0.72618   0.10193   0.64159   0.00000  Uiso   1.00
H895   H     0.94787   0.31932   0.84813   0.00000  Uiso   1.00
H896   H     0.94624   0.27712   0.89243   0.00000  Uiso   1.00
H897   H     0.76063   0.02999   0.77120   0.00000  Uiso   1.00
H898   H     0.95783   0.33402   0.95810   0.00000  Uiso   1.00
H899   H     0.67243   0.34281   0.91866   0.00000  Uiso   1.00
H900   H     0.95004   0.37799   0.91404   0.00000  Uiso   1.00
H901   H     0.72059   0.27697   0.99296   0.00000  Uiso   1.00
H902   H     0.69985   0.26138   0.55028   0.00000  Uiso   1.00
H903   H     0.97745   0.20124   0.50835   0.00000  Uiso   1.00
H904   H     0.96089   0.25479   0.98323   0.00000  Uiso   1.00
H905   H     0.99733   0.21707   0.95110   0.00000  Uiso   1.00
H906   H     0.79295   0.34013   0.99161   0.00000  Uiso   1.00
H907   H     0.80567   0.35976   0.93281   0.00000  Uiso   1.00
H908   H     0.84656   0.46996   0.67681   0.00000  Uiso   1.00
H909   H     0.87034   0.41422   0.97358   0.00000  Uiso   1.00
H910   H     0.80696   0.42155   0.99132   0.00000  Uiso   1.00
H911   H     0.85700   0.39533   0.53214   0.00000  Uiso   1.00
H912   H     0.76080   0.11075   0.77156   0.00000  Uiso   1.00
H913   H     0.84273   0.38965   0.67593   0.00000  Uiso   1.00
H914   H     0.90593   0.28246   0.54399   0.00000  Uiso   1.00
H915   H     0.79688   0.18603   0.95949   0.00000  Uiso   1.00
H916   H     0.92203   0.14941   0.73250   0.00000  Uiso   1.00
N917   N     0.83333   0.25001   0.62935   0.00000  Uiso   1.00
N918   N     0.83333   0.24999   0.87066   0.00000  Uiso   1.00
O919   O     0.83334   0.18573   0.79072   0.00000  Uiso   1.00
O920   O     0.80609   0.38787   0.83323   0.00000  Uiso   1.00
O921   O     0.92243   0.02430   0.72753   0.00000  Uiso   1.00
O922   O     0.82421   0.47528   0.83819   0.00000  Uiso   1.00
O923   O     0.91366   0.28973   0.63960   0.00000  Uiso   1.00
O924   O     0.78704   0.18090   0.86464   0.00000  Uiso   1.00
O925   O     0.75459   0.20779   0.61982   0.00000  Uiso   1.00
O926   O     0.88061   0.31886   0.87823   0.00000  Uiso   1.00
O927   O     0.74577   0.21580   0.51962   0.00000  Uiso   1.00
O928   O     0.86603   0.32637   0.97406   0.00000  Uiso   1.00
O929   O     0.83333   0.31428   0.70929   0.00000  Uiso   1.00
O930   O     0.83334   0.18573   0.70928   0.00000  Uiso   1.00
O931   O     0.83333   0.31427   0.79072   0.00000  Uiso   1.00
O932   O     0.75828   0.25000   0.78132   0.00000  Uiso   1.00
O933   O     0.90839   0.25001   0.71868   0.00000  Uiso   1.00
O934   O     0.75828   0.25000   0.69989   0.00000  Uiso   1.00
O935   O     0.90839   0.25000   0.80012   0.00000  Uiso   1.00
O936   O     0.92404   0.11737   0.72572   0.00000  Uiso   1.00
C937   C     0.16748   0.66524   0.74989   0.00000  Uiso   1.00
C938   C     0.18419   0.78767   0.94885   0.00000  Uiso   1.00
C939   C     0.16407   0.75112   0.52698   0.00000  Uiso   1.00
C940   C     0.16417   0.75144   0.97248   0.00000  Uiso   1.00
C941   C     0.06793   0.74984   0.73755   0.00000  Uiso   1.00
C942   C     0.26540   0.75035   0.76244   0.00000  Uiso   1.00
C943   C     0.01258   0.74926   0.73073   0.00000  Uiso   1.00
C944   C     0.32075   0.75131   0.76922   0.00000  Uiso   1.00
C945   C     0.12752   0.54789   0.76194   0.00000  Uiso   1.00
C946   C     0.17416   0.95285   0.70973   0.00000  Uiso   1.00
C947   C     0.12763   0.59367   0.76218   0.00000  Uiso   1.00
C948   C     0.16468   0.83515   0.75008   0.00000  Uiso   1.00
C949   C     0.17128   0.90698   0.70915   0.00000  Uiso   1.00
C950   C     0.17013   0.61738   0.74974   0.00000  Uiso   1.00
C951   C     0.16243   0.88384   0.75072   0.00000  Uiso   1.00
C952   C     0.21395   0.59510   0.73728   0.00000  Uiso   1.00
C953   C     0.15411   0.90794   0.79293   0.00000  Uiso   1.00
C954   C     0.21385   0.54835   0.73775   0.00000  Uiso   1.00
C955   C     0.16089   0.95391   0.79466   0.00000  Uiso   1.00
C956   C     0.17052   0.52516   0.75046   0.00000  Uiso   1.00
C957   C     0.16970   0.97663   0.75223   0.00000  Uiso   1.00
C958   C     0.25625   0.83451   0.62828   0.00000  Uiso   1.00
C959   C     0.20590   0.76945   0.55855   0.00000  Uiso   1.00
C960   C     0.31031   0.83991   0.61410   0.00000  Uiso   1.00
C961   C     0.06595   0.68009   0.86378   0.00000  Uiso   1.00
C962   C     0.04886   0.63706   0.88536   0.00000  Uiso   1.00
C963   C     0.09197   0.66152   0.61407   0.00000  Uiso   1.00
C964   C     0.05560   0.63837   0.64442   0.00000  Uiso   1.00
C965   C     0.26800   0.81182   0.88343   0.00000  Uiso   1.00
C966   C     0.29697   0.84370   0.92094   0.00000  Uiso   1.00
C967   C     0.04126   0.74886   0.51438   0.00000  Uiso   1.00
C968   C     0.32444   0.72923   0.98754   0.00000  Uiso   1.00
C969   C     0.15634   0.85436   0.97118   0.00000  Uiso   1.00
C970   C     0.14453   0.71525   0.94321   0.00000  Uiso   1.00
C971   C     0.17382   0.89918   0.99350   0.00000  Uiso   1.00
C972   C     0.20546   0.77109   0.60932   0.00000  Uiso   1.00
C973   C     0.14285   0.71617   0.89229   0.00000  Uiso   1.00
C974   C     0.12686   0.72913   0.59960   0.00000  Uiso   1.00
C975   C     0.18931   0.78458   0.89893   0.00000  Uiso   1.00
C976   C     0.12286   0.73240   0.54833   0.00000  Uiso   1.00
Cu977  Cu    0.16667   0.75000   0.79822   0.00000  Uiso   1.00
Cu978  Cu    0.16667   0.75001   0.70179   0.00000  Uiso   1.00
H979   H     0.32585   0.74680   0.69385   0.00000  Uiso   1.00
H980   H     0.11224   0.86541   0.82169   0.00000  Uiso   1.00
H981   H     0.28331   0.54449   0.71905   0.00000  Uiso   1.00
H982   H     0.17463   0.50480   0.83843   0.00000  Uiso   1.00
H983   H     0.25498   0.85468   0.66157   0.00000  Uiso   1.00
H984   H     0.22715   0.84855   0.59955   0.00000  Uiso   1.00
H985   H     0.31316   0.82136   0.58007   0.00000  Uiso   1.00
H986   H     0.31877   0.87547   0.60834   0.00000  Uiso   1.00
H987   H     0.00626   0.82736   0.64338   0.00000  Uiso   1.00
H988   H     0.04780   0.68077   0.82530   0.00000  Uiso   1.00
H989   H     0.05039   0.70870   0.88253   0.00000  Uiso   1.00
H990   H     0.00750   0.75396   0.80608   0.00000  Uiso   1.00
H991   H     0.06481   0.63536   0.92435   0.00000  Uiso   1.00
H992   H     0.00595   0.63535   0.88184   0.00000  Uiso   1.00
H993   H     0.06252   0.60832   0.86582   0.00000  Uiso   1.00
H994   H     0.13208   0.65021   0.62624   0.00000  Uiso   1.00
H995   H     0.08040   0.65124   0.57560   0.00000  Uiso   1.00
H996   H     0.06510   0.64869   0.68305   0.00000  Uiso   1.00
H997   H     0.01492   0.64713   0.63129   0.00000  Uiso   1.00
H998   H     0.05952   0.60193   0.64159   0.00000  Uiso   1.00
H999   H     0.28121   0.81932   0.84813   0.00000  Uiso   1.00
H1000  H     0.27958   0.77712   0.89243   0.00000  Uiso   1.00
H1001  H     0.09396   0.52999   0.77120   0.00000  Uiso   1.00
H1002  H     0.29116   0.83402   0.95810   0.00000  Uiso   1.00
H1003  H     0.00577   0.84281   0.91866   0.00000  Uiso   1.00
H1004  H     0.28338   0.87799   0.91404   0.00000  Uiso   1.00
H1005  H     0.05392   0.77697   0.99296   0.00000  Uiso   1.00
H1006  H     0.03319   0.76138   0.55028   0.00000  Uiso   1.00
H1007  H     0.31078   0.70124   0.50835   0.00000  Uiso   1.00
H1008  H     0.29422   0.75479   0.98323   0.00000  Uiso   1.00
H1009  H     0.33066   0.71707   0.95110   0.00000  Uiso   1.00
H1010  H     0.12628   0.84013   0.99161   0.00000  Uiso   1.00
H1011  H     0.13900   0.85976   0.93281   0.00000  Uiso   1.00
H1012  H     0.17990   0.96996   0.67681   0.00000  Uiso   1.00
H1013  H     0.20368   0.91422   0.97358   0.00000  Uiso   1.00
H1014  H     0.14029   0.92155   0.99132   0.00000  Uiso   1.00
H1015  H     0.19034   0.89533   0.53214   0.00000  Uiso   1.00
H1016  H     0.09413   0.61075   0.77156   0.00000  Uiso   1.00
H1017  H     0.17606   0.88965   0.67593   0.00000  Uiso   1.00
H1018  H     0.23926   0.78246   0.54399   0.00000  Uiso   1.00
H1019  H     0.13021   0.68603   0.95949   0.00000  Uiso   1.00
H1020  H     0.25536   0.64941   0.73250   0.00000  Uiso   1.00
N1021  N     0.16667   0.75001   0.62935   0.00000  Uiso   1.00
N1022  N     0.16667   0.74999   0.87066   0.00000  Uiso   1.00
O1023  O     0.16667   0.68573   0.79072   0.00000  Uiso   1.00
O1024  O     0.13943   0.88787   0.83323   0.00000  Uiso   1.00
O1025  O     0.25576   0.52430   0.72753   0.00000  Uiso   1.00
O1026  O     0.15754   0.97528   0.83819   0.00000  Uiso   1.00
O1027  O     0.24699   0.78973   0.63960   0.00000  Uiso   1.00
O1028  O     0.12038   0.68090   0.86464   0.00000  Uiso   1.00
O1029  O     0.08793   0.70779   0.61982   0.00000  Uiso   1.00
O1030  O     0.21394   0.81886   0.87823   0.00000  Uiso   1.00
O1031  O     0.07910   0.71580   0.51962   0.00000  Uiso   1.00
O1032  O     0.19936   0.82637   0.97406   0.00000  Uiso   1.00
O1033  O     0.16666   0.81428   0.70929   0.00000  Uiso   1.00
O1034  O     0.16667   0.68573   0.70928   0.00000  Uiso   1.00
O1035  O     0.16666   0.81427   0.79072   0.00000  Uiso   1.00
O1036  O     0.09161   0.75000   0.78132   0.00000  Uiso   1.00
O1037  O     0.24172   0.75001   0.71868   0.00000  Uiso   1.00
O1038  O     0.09161   0.75000   0.69989   0.00000  Uiso   1.00
O1039  O     0.24172   0.75000   0.80012   0.00000  Uiso   1.00
O1040  O     0.25738   0.61737   0.72572   0.00000  Uiso   1.00
C1041  C     0.50081   0.66524   0.74989   0.00000  Uiso   1.00
C1042  C     0.51753   0.78767   0.94885   0.00000  Uiso   1.00
C1043  C     0.49741   0.75112   0.52698   0.00000  Uiso   1.00
C1044  C     0.49750   0.75144   0.97248   0.00000  Uiso   1.00
C1045  C     0.40126   0.74984   0.73755   0.00000  Uiso   1.00
C1046  C     0.59874   0.75035   0.76244   0.00000  Uiso   1.00
C1047  C     0.34591   0.74926   0.73073   0.00000  Uiso   1.00
C1048  C     0.65408   0.75131   0.76922   0.00000  Uiso   1.00
C1049  C     0.46085   0.54789   0.76194   0.00000  Uiso   1.00
C1050  C     0.50749   0.95285   0.70973   0.00000  Uiso   1.00
C1051  C     0.46096   0.59367   0.76218   0.00000  Uiso   1.00
C1052  C     0.49801   0.83515   0.75008   0.00000  Uiso   1.00
C1053  C     0.50461   0.90698   0.70915   0.00000  Uiso   1.00
C1054  C     0.50346   0.61738   0.74974   0.00000  Uiso   1.00
C1055  C     0.49577   0.88384   0.75072   0.00000  Uiso   1.00
C1056  C     0.54728   0.59510   0.73728   0.00000  Uiso   1.00
C1057  C     0.48744   0.90794   0.79293   0.00000  Uiso   1.00
C1058  C     0.54718   0.54835   0.73775   0.00000  Uiso   1.00
C1059  C     0.49422   0.95391   0.79466   0.00000  Uiso   1.00
C1060  C     0.50386   0.52516   0.75046   0.00000  Uiso   1.00
C1061  C     0.50303   0.97663   0.75223   0.00000  Uiso   1.00
C1062  C     0.58958   0.83451   0.62828   0.00000  Uiso   1.00
C1063  C     0.53924   0.76945   0.55855   0.00000  Uiso   1.00
C1064  C     0.64364   0.83991   0.61410   0.00000  Uiso   1.00
C1065  C     0.39928   0.68009   0.86378   0.00000  Uiso   1.00
C1066  C     0.38219   0.63706   0.88536   0.00000  Uiso   1.00
C1067  C     0.42531   0.66152   0.61407   0.00000  Uiso   1.00
C1068  C     0.38894   0.63837   0.64442   0.00000  Uiso   1.00
C1069  C     0.60133   0.81182   0.88343   0.00000  Uiso   1.00
C1070  C     0.63030   0.84370   0.92094   0.00000  Uiso   1.00
C1071  C     0.37460   0.74886   0.51438   0.00000  Uiso   1.00
C1072  C     0.65778   0.72923   0.98754   0.00000  Uiso   1.00
C1073  C     0.48967   0.85436   0.97118   0.00000  Uiso   1.00
C1074  C     0.47786   0.71525   0.94321   0.00000  Uiso   1.00
C1075  C     0.50715   0.89918   0.99350   0.00000  Uiso   1.00
C1076  C     0.53879   0.77109   0.60932   0.00000  Uiso   1.00
C1077  C     0.47618   0.71617   0.89229   0.00000  Uiso   1.00
C1078  C     0.46019   0.72913   0.59960   0.00000  Uiso   1.00
C1079  C     0.52265   0.78458   0.89893   0.00000  Uiso   1.00
C1080  C     0.45619   0.73240   0.54833   0.00000  Uiso   1.00
Cu1081 Cu    0.50000   0.75000   0.79822   0.00000  Uiso   1.00
Cu1082 Cu    0.50000   0.75001   0.70179   0.00000  Uiso   1.00
H1083  H     0.65918   0.74680   0.69385   0.00000  Uiso   1.00
H1084  H     0.44557   0.86541   0.82169   0.00000  Uiso   1.00
H1085  H     0.61664   0.54449   0.71905   0.00000  Uiso   1.00
H1086  H     0.50796   0.50480   0.83843   0.00000  Uiso   1.00
H1087  H     0.58832   0.85468   0.66157   0.00000  Uiso   1.00
H1088  H     0.56049   0.84855   0.59955   0.00000  Uiso   1.00
H1089  H     0.64650   0.82136   0.58007   0.00000  Uiso   1.00
H1090  H     0.65210   0.87547   0.60834   0.00000  Uiso   1.00
H1091  H     0.33959   0.82736   0.64338   0.00000  Uiso   1.00
H1092  H     0.38113   0.68077   0.82530   0.00000  Uiso   1.00
H1093  H     0.38373   0.70870   0.88253   0.00000  Uiso   1.00
H1094  H     0.34083   0.75396   0.80608   0.00000  Uiso   1.00
H1095  H     0.39814   0.63536   0.92435   0.00000  Uiso   1.00
H1096  H     0.33928   0.63535   0.88184   0.00000  Uiso   1.00
H1097  H     0.39585   0.60832   0.86582   0.00000  Uiso   1.00
H1098  H     0.46541   0.65021   0.62624   0.00000  Uiso   1.00
H1099  H     0.41374   0.65124   0.57560   0.00000  Uiso   1.00
H1100  H     0.39843   0.64869   0.68305   0.00000  Uiso   1.00
H1101  H     0.34826   0.64713   0.63129   0.00000  Uiso   1.00
H1102  H     0.39285   0.60193   0.64159   0.00000  Uiso   1.00
H1103  H     0.61454   0.81932   0.84813   0.00000  Uiso   1.00
H1104  H     0.61291   0.77712   0.89243   0.00000  Uiso   1.00
H1105  H     0.42730   0.52999   0.77120   0.00000  Uiso   1.00
H1106  H     0.62450   0.83402   0.95810   0.00000  Uiso   1.00
H1107  H     0.33910   0.84281   0.91866   0.00000  Uiso   1.00
H1108  H     0.61671   0.87799   0.91404   0.00000  Uiso   1.00
H1109  H     0.38726   0.77697   0.99296   0.00000  Uiso   1.00
H1110  H     0.36652   0.76138   0.55028   0.00000  Uiso   1.00
H1111  H     0.64412   0.70124   0.50835   0.00000  Uiso   1.00
H1112  H     0.62756   0.75479   0.98323   0.00000  Uiso   1.00
H1113  H     0.66399   0.71707   0.95110   0.00000  Uiso   1.00
H1114  H     0.45962   0.84013   0.99161   0.00000  Uiso   1.00
H1115  H     0.47234   0.85976   0.93281   0.00000  Uiso   1.00
H1116  H     0.51323   0.96996   0.67681   0.00000  Uiso   1.00
H1117  H     0.53701   0.91422   0.97358   0.00000  Uiso   1.00
H1118  H     0.47362   0.92155   0.99132   0.00000  Uiso   1.00
H1119  H     0.52367   0.89533   0.53214   0.00000  Uiso   1.00
H1120  H     0.42747   0.61075   0.77156   0.00000  Uiso   1.00
H1121  H     0.50939   0.88965   0.67593   0.00000  Uiso   1.00
H1122  H     0.57260   0.78246   0.54399   0.00000  Uiso   1.00
H1123  H     0.46354   0.68603   0.95949   0.00000  Uiso   1.00
H1124  H     0.58870   0.64941   0.73250   0.00000  Uiso   1.00
N1125  N     0.50000   0.75001   0.62935   0.00000  Uiso   1.00
N1126  N     0.50000   0.74999   0.87066   0.00000  Uiso   1.00
O1127  O     0.50000   0.68573   0.79072   0.00000  Uiso   1.00
O1128  O     0.47276   0.88787   0.83323   0.00000  Uiso   1.00
O1129  O     0.58909   0.52430   0.72753   0.00000  Uiso   1.00
O1130  O     0.49087   0.97528   0.83819   0.00000  Uiso   1.00
O1131  O     0.58033   0.78973   0.63960   0.00000  Uiso   1.00
O1132  O     0.45371   0.68090   0.86464   0.00000  Uiso   1.00
O1133  O     0.42126   0.70779   0.61982   0.00000  Uiso   1.00
O1134  O     0.54728   0.81886   0.87823   0.00000  Uiso   1.00
O1135  O     0.41243   0.71580   0.51962   0.00000  Uiso   1.00
O1136  O     0.53269   0.82637   0.97406   0.00000  Uiso   1.00
O1137  O     0.50000   0.81428   0.70929   0.00000  Uiso   1.00
O1138  O     0.50000   0.68573   0.70928   0.00000  Uiso   1.00
O1139  O     0.50000   0.81427   0.79072   0.00000  Uiso   1.00
O1140  O     0.42495   0.75000   0.78132   0.00000  Uiso   1.00
O1141  O     0.57505   0.75001   0.71868   0.00000  Uiso   1.00
O1142  O     0.42495   0.75000   0.69989   0.00000  Uiso   1.00
O1143  O     0.57505   0.75000   0.80012   0.00000  Uiso   1.00
O1144  O     0.59071   0.61737   0.72572   0.00000  Uiso   1.00
C1145  C     0.83414   0.66524   0.74989   0.00000  Uiso   1.00
C1146  C     0.85086   0.78767   0.94885   0.00000  Uiso   1.00
C1147  C     0.83074   0.75112   0.52698   0.00000  Uiso   1.00
C1148  C     0.83083   0.75144   0.97248   0.00000  Uiso   1.00
C1149  C     0.73460   0.74984   0.73755   0.00000  Uiso   1.00
C1150  C     0.93207   0.75035   0.76244   0.00000  Uiso   1.00
C1151  C     0.67924   0.74926   0.73073   0.00000  Uiso   1.00
C1152  C     0.98742   0.75131   0.76922   0.00000  Uiso   1.00
C1153  C     0.79419   0.54789   0.76194   0.00000  Uiso   1.00
C1154  C     0.84082   0.95285   0.70973   0.00000  Uiso   1.00
C1155  C     0.79429   0.59367   0.76218   0.00000  Uiso   1.00
C1156  C     0.83135   0.83515   0.75008   0.00000  Uiso   1.00
C1157  C     0.83794   0.90698   0.70915   0.00000  Uiso   1.00
C1158  C     0.83679   0.61738   0.74974   0.00000  Uiso   1.00
C1159  C     0.82910   0.88384   0.75072   0.00000  Uiso   1.00
C1160  C     0.88062   0.59510   0.73728   0.00000  Uiso   1.00
C1161  C     0.82078   0.90794   0.79293   0.00000  Uiso   1.00
C1162  C     0.88052   0.54835   0.73775   0.00000  Uiso   1.00
C1163  C     0.82756   0.95391   0.79466   0.00000  Uiso   1.00
C1164  C     0.83719   0.52516   0.75046   0.00000  Uiso   1.00
C1165  C     0.83637   0.97663   0.75223   0.00000  Uiso   1.00
C1166  C     0.92291   0.83451   0.62828   0.00000  Uiso   1.00
C1167  C     0.87257   0.76945   0.55855   0.00000  Uiso   1.00
C1168  C     0.97698   0.83991   0.61410   0.00000  Uiso   1.00
C1169  C     0.73261   0.68009   0.86378   0.00000  Uiso   1.00
C1170  C     0.71553   0.63706   0.88536   0.00000  Uiso   1.00
C1171  C     0.75864   0.66152   0.61407   0.00000  Uiso   1.00
C1172  C     0.72227   0.63837   0.64442   0.00000  Uiso   1.00
C1173  C     0.93467   0.81182   0.88343   0.00000  Uiso   1.00
C1174  C     0.96364   0.84370   0.92094   0.00000  Uiso   1.00
C1175  C     0.70793   0.74886   0.51438   0.00000  Uiso   1.00
C1176  C     0.99111   0.72923   0.98754   0.00000  Uiso   1.00
C1177  C     0.82300   0.85436   0.97118   0.00000  Uiso   1.00
C1178  C     0.81119   0.71525   0.94321   0.00000  Uiso   1.00
C1179  C     0.84049   0.89918   0.99350   0.00000  Uiso   1.00
C1180  C     0.87213   0.77109   0.60932   0.00000  Uiso   1.00
C1181  C     0.80952   0.71617   0.89229   0.00000  Uiso   1.00
C1182  C     0.79352   0.72913   0.59960   0.00000  Uiso   1.00
C1183  C     0.85598   0.78458   0.89893   0.00000  Uiso   1.00
C1184  C     0.78953   0.73240   0.54833   0.00000  Uiso   1.00
Cu1185 Cu    0.83333   0.75000   0.79822   0.00000  Uiso   1.00
Cu1186 Cu    0.83333   0.75001   0.70179   0.00000  Uiso   1.00
H1187  H     0.99252   0.74680   0.69385   0.00000  Uiso   1.00
H1188  H     0.77891   0.86541   0.82169   0.00000  Uiso   1.00
H1189  H     0.94998   0.54449   0.71905   0.00000  Uiso   1.00
H1190  H     0.84129   0.50480   0.83843   0.00000  Uiso   1.00
H1191  H     0.92165   0.85468   0.66157   0.00000  Uiso   1.00
H1192  H     0.89382   0.84855   0.59955   0.00000  Uiso   1.00
H1193  H     0.97983   0.82136   0.58007   0.00000  Uiso   1.00
H1194  H     0.98544   0.87547   0.60834   0.00000  Uiso   1.00
H1195  H     0.67293   0.82736   0.64338   0.00000  Uiso   1.00
H1196  H     0.71446   0.68077   0.82530   0.00000  Uiso   1.00
H1197  H     0.71706   0.70870   0.88253   0.00000  Uiso   1.00
H1198  H     0.67416   0.75396   0.80608   0.00000  Uiso   1.00
H1199  H     0.73147   0.63536   0.92435   0.00000  Uiso   1.00
H1200  H     0.67261   0.63535   0.88184   0.00000  Uiso   1.00
H1201  H     0.72918   0.60832   0.86582   0.00000  Uiso   1.00
H1202  H     0.79874   0.65021   0.62624   0.00000  Uiso   1.00
H1203  H     0.74707   0.65124   0.57560   0.00000  Uiso   1.00
H1204  H     0.73176   0.64869   0.68305   0.00000  Uiso   1.00
H1205  H     0.68159   0.64713   0.63129   0.00000  Uiso   1.00
H1206  H     0.72618   0.60193   0.64159   0.00000  Uiso   1.00
H1207  H     0.94787   0.81932   0.84813   0.00000  Uiso   1.00
H1208  H     0.94624   0.77712   0.89243   0.00000  Uiso   1.00
H1209  H     0.76063   0.52999   0.77120   0.00000  Uiso   1.00
H1210  H     0.95783   0.83402   0.95810   0.00000  Uiso   1.00
H1211  H     0.67243   0.84281   0.91866   0.00000  Uiso   1.00
H1212  H     0.95004   0.87799   0.91404   0.00000  Uiso   1.00
H1213  H     0.72059   0.77697   0.99296   0.00000  Uiso   1.00
H1214  H     0.69985   0.76138   0.55028   0.00000  Uiso   1.00
H1215  H     0.97745   0.70124   0.50835   0.00000  Uiso   1.00
H1216  H     0.96089   0.75479   0.98323   0.00000  Uiso   1.00
H1217  H     0.99733   0.71707   0.95110   0.00000  Uiso   1.00
H1218  H     0.79295   0.84013   0.99161   0.00000  Uiso   1.00
H1219  H     0.80567   0.85976   0.93281   0.00000  Uiso   1.00
H1220  H     0.84656   0.96996   0.67681   0.00000  Uiso   1.00
H1221  H     0.87034   0.91422   0.97358   0.00000  Uiso   1.00
H1222  H     0.80696   0.92155   0.99132   0.00000  Uiso   1.00
H1223  H     0.85700   0.89533   0.53214   0.00000  Uiso   1.00
H1224  H     0.76080   0.61075   0.77156   0.00000  Uiso   1.00
H1225  H     0.84273   0.88965   0.67593   0.00000  Uiso   1.00
H1226  H     0.90593   0.78246   0.54399   0.00000  Uiso   1.00
H1227  H     0.79688   0.68603   0.95949   0.00000  Uiso   1.00
H1228  H     0.92203   0.64941   0.73250   0.00000  Uiso   1.00
N1229  N     0.83333   0.75001   0.62935   0.00000  Uiso   1.00
N1230  N     0.83333   0.74999   0.87066   0.00000  Uiso   1.00
O1231  O     0.83334   0.68573   0.79072   0.00000  Uiso   1.00
O1232  O     0.80609   0.88787   0.83323   0.00000  Uiso   1.00
O1233  O     0.92243   0.52430   0.72753   0.00000  Uiso   1.00
O1234  O     0.82421   0.97528   0.83819   0.00000  Uiso   1.00
O1235  O     0.91366   0.78973   0.63960   0.00000  Uiso   1.00
O1236  O     0.78704   0.68090   0.86464   0.00000  Uiso   1.00
O1237  O     0.75459   0.70779   0.61982   0.00000  Uiso   1.00
O1238  O     0.88061   0.81886   0.87823   0.00000  Uiso   1.00
O1239  O     0.74577   0.71580   0.51962   0.00000  Uiso   1.00
O1240  O     0.86603   0.82637   0.97406   0.00000  Uiso   1.00
O1241  O     0.83333   0.81428   0.70929   0.00000  Uiso   1.00
O1242  O     0.83334   0.68573   0.70928   0.00000  Uiso   1.00
O1243  O     0.83333   0.81427   0.79072   0.00000  Uiso   1.00
O1244  O     0.75828   0.75000   0.78132   0.00000  Uiso   1.00
O1245  O     0.90839   0.75001   0.71868   0.00000  Uiso   1.00
O1246  O     0.75828   0.75000   0.69989   0.00000  Uiso   1.00
O1247  O     0.90839   0.75000   0.80012   0.00000  Uiso   1.00
O1248  O     0.92404   0.61737   0.72572   0.00000  Uiso   1.00
loop_
_geom_bond_atom_site_label_1
_geom_bond_atom_site_label_2
_geom_bond_distance
_geom_bond_site_symmetry_2
_ccdc_geom_bond_type
C1     O87     1.292   .     A
C1     O98     1.292   .     A
C1     C14     1.449   .     S
C2     C39     1.418   .     A
C2     C4      1.412   .     A
C2     O96     1.381   .     S
C3     C23     1.404   .     A
C3     C40     1.412   .     A
C3     C628    1.518   1_554 S
C4     C34     1.403   .     A
C4     C627    1.518   .     S
C5     C7      1.430   .     S
C5     O100    1.287   .     A
C5     O102    1.290   .     A
C6     O101    1.287   .     A
C6     C8      1.430   .     S
C6     O103    1.290   .     A
C7     C216    1.335   1_455 S
C7     H251    1.087   1_455 S
C8     C111    1.335   .     S
C8     H158    1.087   .     S
C9     C20     1.399   .     A
C9     C11     1.383   .     A
C9     H65     1.084   .     S
C10    H76     1.084   .     S
C10    C13     1.386   .     A
C10    C21     1.399   .     A
C11    C14     1.395   .     A
C11    H80     1.084   .     S
C12    O99     1.296   .     A
C12    C15     1.473   .     S
C12    O97     1.302   .     A
C13    H81     1.082   .     S
C13    C15     1.402   .     A
C14    C16     1.420   .     A
C15    C17     1.421   .     A
C16    O104    1.385   .     S
C16    C18     1.413   .     A
C17    O88     1.378   .     S
C17    C19     1.396   .     A
C18    C20     1.408   .     A
C18    O89     1.384   .     S
C19    C21     1.416   .     A
C19    O90     1.383   .     S
C20    C333    1.467   1_545 S
C21    C332    1.467   .     S
C22    H48     1.115   .     S
C22    O91     1.416   .     S
C22    H47     1.110   .     S
C22    C24     1.524   .     S
C23    H82     1.080   .     S
C23    C36     1.416   .     A
C24    H50     1.110   .     S
C24    H49     1.109   .     S
C24    H155    1.111   .     S
C25    H53     1.117   .     S
C25    C26     1.522   .     S
C25    O92     1.417   .     S
C25    H52     1.110   .     S
C26    H55     1.109   .     S
C26    H56     1.111   .     S
C26    H57     1.111   .     S
C27    O93     1.413   .     S
C27    H58     1.115   .     S
C27    H59     1.111   .     S
C27    C28     1.522   .     S
C28    H61     1.111   .     S
C28    H60     1.110   .     S
C28    H62     1.110   .     S
C29    H63     1.110   .     S
C29    O94     1.418   .     S
C29    H64     1.117   .     S
C29    C30     1.525   .     S
C30    H66     1.108   .     S
C30    H68     1.111   .     S
C30    H171    1.111   .     S
C31    H70     1.115   .     S
C31    O95     1.411   .     S
C31    C864    1.521   1_454 S
C31    H693    1.114   1_554 S
C32    H72     1.109   .     S
C32    H73     1.110   .     S
C32    C759    1.521   .     S
C32    H695    1.111   .     S
C33    O96     1.411   .     S
C33    H75     1.115   .     S
C33    C35     1.520   .     S
C33    H74     1.114   .     S
C34    C37     1.413   .     A
C34    H83     1.080   .     S
C35    H77     1.111   .     S
C35    H78     1.110   .     S
C35    H703    1.110   .     S
C36    O91     1.384   .     S
C36    N85     1.372   .     A
C37    N86     1.374   .     A
C37    O92     1.381   .     S
C38    N85     1.375   .     A
C38    C40     1.422   .     A
C38    O93     1.381   .     S
C39    O94     1.381   .     S
C39    N86     1.376   .     A
C40    O95     1.383   .     S
Cu41   Cu42    2.686   .     S
Cu41   N86     2.017   .     S
Cu41   O99     1.955   .     S
Cu41   O87     1.951   .     S
Cu41   O103    1.952   .     S
Cu41   O100    1.949   .     S
Cu42   O98     1.955   .     S
Cu42   O102    1.952   .     S
Cu42   O97     1.951   .     S
Cu42   N85     2.017   .     S
Cu42   O101    1.949   .     S
H43    C111    1.087   .     S
H44    O88     0.991   .     S
H45    O89     0.989   .     S
H46    O402    0.989   1_545 S
H51    C232    1.111   1_455 S
H54    C216    1.087   1_455 S
H67    C238    1.111   1_455 S
H69    C655    1.114   .     S
H71    C656    1.111   1_554 S
H79    C659    1.110   1_554 S
H84    O104    0.988   .     S
O90    H358    0.989   .     S
C105   O191    1.292   .     A
C105   O202    1.292   .     A
C105   C118    1.449   .     S
C106   C143    1.418   .     A
C106   C108    1.412   .     A
C106   O200    1.381   .     S
C107   C127    1.404   .     A
C107   C144    1.412   .     A
C107   C732    1.518   1_554 S
C108   C138    1.403   .     A
C108   C731    1.518   .     S
C109   C111    1.430   .     S
C109   O204    1.287   .     A
C109   O206    1.290   .     A
C110   O205    1.287   .     A
C110   C112    1.430   .     S
C110   O207    1.290   .     A
C112   C215    1.335   .     S
C112   H262    1.087   .     S
C113   C124    1.399   .     A
C113   C115    1.383   .     A
C113   H169    1.084   .     S
C114   H180    1.084   .     S
C114   C117    1.386   .     A
C114   C125    1.399   .     A
C115   C118    1.395   .     A
C115   H184    1.084   .     S
C116   O203    1.296   .     A
C116   C119    1.473   .     S
C116   O201    1.302   .     A
C117   H185    1.082   .     S
C117   C119    1.402   .     A
C118   C120    1.420   .     A
C119   C121    1.421   .     A
C120   O208    1.385   .     S
C120   C122    1.413   .     A
C121   O192    1.378   .     S
C121   C123    1.396   .     A
C122   C124    1.408   .     A
C122   O193    1.384   .     S
C123   C125    1.416   .     A
C123   O194    1.383   .     S
C124   C437    1.467   1_545 S
C125   C436    1.467   .     S
C126   H152    1.115   .     S
C126   O195    1.416   .     S
C126   H151    1.110   .     S
C126   C128    1.524   .     S
C127   H186    1.080   .     S
C127   C140    1.416   .     A
C128   H154    1.110   .     S
C128   H153    1.109   .     S
C128   H259    1.111   .     S
C129   H157    1.117   .     S
C129   C130    1.522   .     S
C129   O196    1.417   .     S
C129   H156    1.110   .     S
C130   H159    1.109   .     S
C130   H160    1.111   .     S
C130   H161    1.111   .     S
C131   O197    1.413   .     S
C131   H162    1.115   .     S
C131   H163    1.111   .     S
C131   C132    1.522   .     S
C132   H165    1.111   .     S
C132   H164    1.110   .     S
C132   H166    1.110   .     S
C133   H167    1.110   .     S
C133   O198    1.418   .     S
C133   H168    1.117   .     S
C133   C134    1.525   .     S
C134   H170    1.108   .     S
C134   H172    1.111   .     S
C134   H275    1.111   .     S
C135   H174    1.115   .     S
C135   O199    1.411   .     S
C135   C656    1.521   1_554 S
C135   H797    1.114   1_554 S
C136   H176    1.109   .     S
C136   H177    1.110   .     S
C136   C863    1.521   .     S
C136   H799    1.111   .     S
C137   O200    1.411   .     S
C137   H179    1.115   .     S
C137   C139    1.520   .     S
C137   H178    1.114   .     S
C138   C141    1.413   .     A
C138   H187    1.080   .     S
C139   H181    1.111   .     S
C139   H182    1.110   .     S
C139   H807    1.110   .     S
C140   O195    1.384   .     S
C140   N189    1.372   .     A
C141   N190    1.374   .     A
C141   O196    1.381   .     S
C142   N189    1.375   .     A
C142   C144    1.422   .     A
C142   O197    1.381   .     S
C143   O198    1.381   .     S
C143   N190    1.376   .     A
C144   O199    1.383   .     S
Cu145  Cu146   2.686   .     S
Cu145  N190    2.017   .     S
Cu145  O203    1.955   .     S
Cu145  O191    1.951   .     S
Cu145  O207    1.952   .     S
Cu145  O204    1.949   .     S
Cu146  O202    1.955   .     S
Cu146  O206    1.952   .     S
Cu146  O201    1.951   .     S
Cu146  N189    2.017   .     S
Cu146  O205    1.949   .     S
H147   C215    1.087   .     S
H148   O192    0.991   .     S
H149   O193    0.989   .     S
H150   O506    0.989   1_545 S
H173   C759    1.114   .     S
H175   C760    1.111   1_554 S
H183   C763    1.110   1_554 S
H188   O208    0.988   .     S
O194   H462    0.989   .     S
C209   O295    1.292   .     A
C209   O306    1.292   .     A
C209   C222    1.449   .     S
C210   C247    1.418   .     A
C210   C212    1.412   .     A
C210   O304    1.381   .     S
C211   C231    1.404   .     A
C211   C248    1.412   .     A
C211   C836    1.518   1_554 S
C212   C242    1.403   .     A
C212   C835    1.518   .     S
C213   C215    1.430   .     S
C213   O308    1.287   .     A
C213   O310    1.290   .     A
C214   O309    1.287   .     A
C214   C216    1.430   .     S
C214   O311    1.290   .     A
C216   C7      1.335   1_655 S
C216   H54     1.087   1_655 S
C217   C228    1.399   .     A
C217   C219    1.383   .     A
C217   H273    1.084   .     S
C218   H284    1.084   .     S
C218   C221    1.386   .     A
C218   C229    1.399   .     A
C219   C222    1.395   .     A
C219   H288    1.084   .     S
C220   O307    1.296   .     A
C220   C223    1.473   .     S
C220   O305    1.302   .     A
C221   H289    1.082   .     S
C221   C223    1.402   .     A
C222   C224    1.420   .     A
C223   C225    1.421   .     A
C224   O312    1.385   .     S
C224   C226    1.413   .     A
C225   O296    1.378   .     S
C225   C227    1.396   .     A
C226   C228    1.408   .     A
C226   O297    1.384   .     S
C227   C229    1.416   .     A
C227   O298    1.383   .     S
C228   C541    1.467   1_545 S
C229   C540    1.467   .     S
C230   H256    1.115   .     S
C230   O299    1.416   .     S
C230   H255    1.110   .     S
C230   C232    1.524   .     S
C231   H290    1.080   .     S
C231   C244    1.416   .     A
C232   H258    1.110   .     S
C232   H257    1.109   .     S
C232   H51     1.111   1_655 S
C233   H261    1.117   .     S
C233   C234    1.522   .     S
C233   O300    1.417   .     S
C233   H260    1.110   .     S
C234   H263    1.109   .     S
C234   H264    1.111   .     S
C234   H265    1.111   .     S
C235   O301    1.413   .     S
C235   H266    1.115   .     S
C235   H267    1.111   .     S
C235   C236    1.522   .     S
C236   H269    1.111   .     S
C236   H268    1.110   .     S
C236   H270    1.110   .     S
C237   H271    1.110   .     S
C237   O302    1.418   .     S
C237   H272    1.117   .     S
C237   C238    1.525   .     S
C238   H274    1.108   .     S
C238   H276    1.111   .     S
C238   H67     1.111   1_655 S
C239   H278    1.115   .     S
C239   O303    1.411   .     S
C239   C760    1.521   1_554 S
C239   H901    1.114   1_554 S
C240   H280    1.109   .     S
C240   H281    1.110   .     S
C240   C655    1.521   1_655 S
C240   H903    1.111   .     S
C241   O304    1.411   .     S
C241   H283    1.115   .     S
C241   C243    1.520   .     S
C241   H282    1.114   .     S
C242   C245    1.413   .     A
C242   H291    1.080   .     S
C243   H285    1.111   .     S
C243   H286    1.110   .     S
C243   H911    1.110   .     S
C244   O299    1.384   .     S
C244   N293    1.372   .     A
C245   N294    1.374   .     A
C245   O300    1.381   .     S
C246   N293    1.375   .     A
C246   C248    1.422   .     A
C246   O301    1.381   .     S
C247   O302    1.381   .     S
C247   N294    1.376   .     A
C248   O303    1.383   .     S
Cu249  Cu250   2.686   .     S
Cu249  N294    2.017   .     S
Cu249  O307    1.955   .     S
Cu249  O295    1.951   .     S
Cu249  O311    1.952   .     S
Cu249  O308    1.949   .     S
Cu250  O306    1.955   .     S
Cu250  O310    1.952   .     S
Cu250  O305    1.951   .     S
Cu250  N293    2.017   .     S
Cu250  O309    1.949   .     S
H251   C7      1.087   1_655 S
H252   O296    0.991   .     S
H253   O297    0.989   .     S
H254   O610    0.989   1_545 S
H277   C863    1.114   .     S
H279   C864    1.111   1_554 S
H287   C867    1.110   1_554 S
H292   O312    0.988   .     S
O298   H566    0.989   .     S
C313   O399    1.292   .     A
C313   O410    1.292   .     A
C313   C326    1.449   .     S
C314   C351    1.418   .     A
C314   C316    1.412   .     A
C314   O408    1.381   .     S
C315   C335    1.404   .     A
C315   C352    1.412   .     A
C315   C940    1.518   1_554 S
C316   C346    1.403   .     A
C316   C939    1.518   .     S
C317   C319    1.430   .     S
C317   O412    1.287   .     A
C317   O414    1.290   .     A
C318   O413    1.287   .     A
C318   C320    1.430   .     S
C318   O415    1.290   .     A
C319   C528    1.335   1_455 S
C319   H563    1.087   1_455 S
C320   C423    1.335   .     S
C320   H470    1.087   .     S
C321   C332    1.399   .     A
C321   C323    1.383   .     A
C321   H377    1.084   .     S
C322   H388    1.084   .     S
C322   C325    1.386   .     A
C322   C333    1.399   .     A
C323   C326    1.395   .     A
C323   H392    1.084   .     S
C324   O411    1.296   .     A
C324   C327    1.473   .     S
C324   O409    1.302   .     A
C325   H393    1.082   .     S
C325   C327    1.402   .     A
C326   C328    1.420   .     A
C327   C329    1.421   .     A
C328   O416    1.385   .     S
C328   C330    1.413   .     A
C329   O400    1.378   .     S
C329   C331    1.396   .     A
C330   C332    1.408   .     A
C330   O401    1.384   .     S
C331   C333    1.416   .     A
C331   O402    1.383   .     S
C333   C20     1.467   1_565 S
C334   H360    1.115   .     S
C334   O403    1.416   .     S
C334   H359    1.110   .     S
C334   C336    1.524   .     S
C335   H394    1.080   .     S
C335   C348    1.416   .     A
C336   H362    1.110   .     S
C336   H361    1.109   .     S
C336   H467    1.111   .     S
C337   H365    1.117   .     S
C337   C338    1.522   .     S
C337   O404    1.417   .     S
C337   H364    1.110   .     S
C338   H367    1.109   .     S
C338   H368    1.111   .     S
C338   H369    1.111   .     S
C339   O405    1.413   .     S
C339   H370    1.115   .     S
C339   H371    1.111   .     S
C339   C340    1.522   .     S
C340   H373    1.111   .     S
C340   H372    1.110   .     S
C340   H374    1.110   .     S
C341   H375    1.110   .     S
C341   O406    1.418   .     S
C341   H376    1.117   .     S
C341   C342    1.525   .     S
C342   H378    1.108   .     S
C342   H380    1.111   .     S
C342   H483    1.111   .     S
C343   H382    1.115   .     S
C343   O407    1.411   .     S
C343   C1176   1.521   1_454 S
C343   H1005   1.114   1_554 S
C344   H384    1.109   .     S
C344   H385    1.110   .     S
C344   C1071   1.521   .     S
C344   H1007   1.111   .     S
C345   O408    1.411   .     S
C345   H387    1.115   .     S
C345   C347    1.520   .     S
C345   H386    1.114   .     S
C346   C349    1.413   .     A
C346   H395    1.080   .     S
C347   H389    1.111   .     S
C347   H390    1.110   .     S
C347   H1015   1.110   .     S
C348   O403    1.384   .     S
C348   N397    1.372   .     A
C349   N398    1.374   .     A
C349   O404    1.381   .     S
C350   N397    1.375   .     A
C350   C352    1.422   .     A
C350   O405    1.381   .     S
C351   O406    1.381   .     S
C351   N398    1.376   .     A
C352   O407    1.383   .     S
Cu353  Cu354   2.686   .     S
Cu353  N398    2.017   .     S
Cu353  O411    1.955   .     S
Cu353  O399    1.951   .     S
Cu353  O415    1.952   .     S
Cu353  O412    1.949   .     S
Cu354  O410    1.955   .     S
Cu354  O414    1.952   .     S
Cu354  O409    1.951   .     S
Cu354  N397    2.017   .     S
Cu354  O413    1.949   .     S
H355   C423    1.087   .     S
H356   O400    0.991   .     S
H357   O401    0.989   .     S
H363   C544    1.111   1_455 S
H366   C528    1.087   1_455 S
H379   C550    1.111   1_455 S
H381   C967    1.114   .     S
H383   C968    1.111   1_554 S
H391   C971    1.110   1_554 S
H396   O416    0.988   .     S
O402   H46     0.989   1_565 S
C417   O503    1.292   .     A
C417   O514    1.292   .     A
C417   C430    1.449   .     S
C418   C455    1.418   .     A
C418   C420    1.412   .     A
C418   O512    1.381   .     S
C419   C439    1.404   .     A
C419   C456    1.412   .     A
C419   C1044   1.518   1_554 S
C420   C450    1.403   .     A
C420   C1043   1.518   .     S
C421   C423    1.430   .     S
C421   O516    1.287   .     A
C421   O518    1.290   .     A
C422   O517    1.287   .     A
C422   C424    1.430   .     S
C422   O519    1.290   .     A
C424   C527    1.335   .     S
C424   H574    1.087   .     S
C425   C436    1.399   .     A
C425   C427    1.383   .     A
C425   H481    1.084   .     S
C426   H492    1.084   .     S
C426   C429    1.386   .     A
C426   C437    1.399   .     A
C427   C430    1.395   .     A
C427   H496    1.084   .     S
C428   O515    1.296   .     A
C428   C431    1.473   .     S
C428   O513    1.302   .     A
C429   H497    1.082   .     S
C429   C431    1.402   .     A
C430   C432    1.420   .     A
C431   C433    1.421   .     A
C432   O520    1.385   .     S
C432   C434    1.413   .     A
C433   O504    1.378   .     S
C433   C435    1.396   .     A
C434   C436    1.408   .     A
C434   O505    1.384   .     S
C435   C437    1.416   .     A
C435   O506    1.383   .     S
C437   C124    1.467   1_565 S
C438   H464    1.115   .     S
C438   O507    1.416   .     S
C438   H463    1.110   .     S
C438   C440    1.524   .     S
C439   H498    1.080   .     S
C439   C452    1.416   .     A
C440   H466    1.110   .     S
C440   H465    1.109   .     S
C440   H571    1.111   .     S
C441   H469    1.117   .     S
C441   C442    1.522   .     S
C441   O508    1.417   .     S
C441   H468    1.110   .     S
C442   H471    1.109   .     S
C442   H472    1.111   .     S
C442   H473    1.111   .     S
C443   O509    1.413   .     S
C443   H474    1.115   .     S
C443   H475    1.111   .     S
C443   C444    1.522   .     S
C444   H477    1.111   .     S
C444   H476    1.110   .     S
C444   H478    1.110   .     S
C445   H479    1.110   .     S
C445   O510    1.418   .     S
C445   H480    1.117   .     S
C445   C446    1.525   .     S
C446   H482    1.108   .     S
C446   H484    1.111   .     S
C446   H587    1.111   .     S
C447   H486    1.115   .     S
C447   O511    1.411   .     S
C447   C968    1.521   1_554 S
C447   H1109   1.114   1_554 S
C448   H488    1.109   .     S
C448   H489    1.110   .     S
C448   C1175   1.521   .     S
C448   H1111   1.111   .     S
C449   O512    1.411   .     S
C449   H491    1.115   .     S
C449   C451    1.520   .     S
C449   H490    1.114   .     S
C450   C453    1.413   .     A
C450   H499    1.080   .     S
C451   H493    1.111   .     S
C451   H494    1.110   .     S
C451   H1119   1.110   .     S
C452   O507    1.384   .     S
C452   N501    1.372   .     A
C453   N502    1.374   .     A
C453   O508    1.381   .     S
C454   N501    1.375   .     A
C454   C456    1.422   .     A
C454   O509    1.381   .     S
C455   O510    1.381   .     S
C455   N502    1.376   .     A
C456   O511    1.383   .     S
Cu457  Cu458   2.686   .     S
Cu457  N502    2.017   .     S
Cu457  O515    1.955   .     S
Cu457  O503    1.951   .     S
Cu457  O519    1.952   .     S
Cu457  O516    1.949   .     S
Cu458  O514    1.955   .     S
Cu458  O518    1.952   .     S
Cu458  O513    1.951   .     S
Cu458  N501    2.017   .     S
Cu458  O517    1.949   .     S
H459   C527    1.087   .     S
H460   O504    0.991   .     S
H461   O505    0.989   .     S
H485   C1071   1.114   .     S
H487   C1072   1.111   1_554 S
H495   C1075   1.110   1_554 S
H500   O520    0.988   .     S
O506   H150    0.989   1_565 S
C521   O607    1.292   .     A
C521   O618    1.292   .     A
C521   C534    1.449   .     S
C522   C559    1.418   .     A
C522   C524    1.412   .     A
C522   O616    1.381   .     S
C523   C543    1.404   .     A
C523   C560    1.412   .     A
C523   C1148   1.518   1_554 S
C524   C554    1.403   .     A
C524   C1147   1.518   .     S
C525   C527    1.430   .     S
C525   O620    1.287   .     A
C525   O622    1.290   .     A
C526   O621    1.287   .     A
C526   C528    1.430   .     S
C526   O623    1.290   .     A
C528   C319    1.335   1_655 S
C528   H366    1.087   1_655 S
C529   C540    1.399   .     A
C529   C531    1.383   .     A
C529   H585    1.084   .     S
C530   H596    1.084   .     S
C530   C533    1.386   .     A
C530   C541    1.399   .     A
C531   C534    1.395   .     A
C531   H600    1.084   .     S
C532   O619    1.296   .     A
C532   C535    1.473   .     S
C532   O617    1.302   .     A
C533   H601    1.082   .     S
C533   C535    1.402   .     A
C534   C536    1.420   .     A
C535   C537    1.421   .     A
C536   O624    1.385   .     S
C536   C538    1.413   .     A
C537   O608    1.378   .     S
C537   C539    1.396   .     A
C538   C540    1.408   .     A
C538   O609    1.384   .     S
C539   C541    1.416   .     A
C539   O610    1.383   .     S
C541   C228    1.467   1_565 S
C542   H568    1.115   .     S
C542   O611    1.416   .     S
C542   H567    1.110   .     S
C542   C544    1.524   .     S
C543   H602    1.080   .     S
C543   C556    1.416   .     A
C544   H570    1.110   .     S
C544   H569    1.109   .     S
C544   H363    1.111   1_655 S
C545   H573    1.117   .     S
C545   C546    1.522   .     S
C545   O612    1.417   .     S
C545   H572    1.110   .     S
C546   H575    1.109   .     S
C546   H576    1.111   .     S
C546   H577    1.111   .     S
C547   O613    1.413   .     S
C547   H578    1.115   .     S
C547   H579    1.111   .     S
C547   C548    1.522   .     S
C548   H581    1.111   .     S
C548   H580    1.110   .     S
C548   H582    1.110   .     S
C549   H583    1.110   .     S
C549   O614    1.418   .     S
C549   H584    1.117   .     S
C549   C550    1.525   .     S
C550   H586    1.108   .     S
C550   H588    1.111   .     S
C550   H379    1.111   1_655 S
C551   H590    1.115   .     S
C551   O615    1.411   .     S
C551   C1072   1.521   1_554 S
C551   H1213   1.114   1_554 S
C552   H592    1.109   .     S
C552   H593    1.110   .     S
C552   C967    1.521   1_655 S
C552   H1215   1.111   .     S
C553   O616    1.411   .     S
C553   H595    1.115   .     S
C553   C555    1.520   .     S
C553   H594    1.114   .     S
C554   C557    1.413   .     A
C554   H603    1.080   .     S
C555   H597    1.111   .     S
C555   H598    1.110   .     S
C555   H1223   1.110   .     S
C556   O611    1.384   .     S
C556   N605    1.372   .     A
C557   N606    1.374   .     A
C557   O612    1.381   .     S
C558   N605    1.375   .     A
C558   C560    1.422   .     A
C558   O613    1.381   .     S
C559   O614    1.381   .     S
C559   N606    1.376   .     A
C560   O615    1.383   .     S
Cu561  Cu562   2.686   .     S
Cu561  N606    2.017   .     S
Cu561  O619    1.955   .     S
Cu561  O607    1.951   .     S
Cu561  O623    1.952   .     S
Cu561  O620    1.949   .     S
Cu562  O618    1.955   .     S
Cu562  O622    1.952   .     S
Cu562  O617    1.951   .     S
Cu562  N605    2.017   .     S
Cu562  O621    1.949   .     S
H563   C319    1.087   1_655 S
H564   O608    0.991   .     S
H565   O609    0.989   .     S
H589   C1175   1.114   .     S
H591   C1176   1.111   1_554 S
H599   C1179   1.110   1_554 S
H604   O624    0.988   .     S
O610   H254    0.989   1_565 S
C625   O711    1.292   .     A
C625   O722    1.292   .     A
C625   C638    1.449   .     S
C626   C663    1.418   .     A
C626   C628    1.412   .     A
C626   O720    1.381   .     S
C627   C647    1.404   .     A
C627   C664    1.412   .     A
C628   C658    1.403   .     A
C628   C3      1.518   1_556 S
C629   C631    1.430   .     S
C629   O724    1.287   .     A
C629   O726    1.290   .     A
C630   O725    1.287   .     A
C630   C632    1.430   .     S
C630   O727    1.290   .     A
C631   C840    1.335   1_455 S
C631   H875    1.087   1_455 S
C632   C735    1.335   .     S
C632   H782    1.087   .     S
C633   C644    1.399   .     A
C633   C635    1.383   .     A
C633   H689    1.084   .     S
C634   H700    1.084   .     S
C634   C637    1.386   .     A
C634   C645    1.399   .     A
C635   C638    1.395   .     A
C635   H704    1.084   .     S
C636   O723    1.296   .     A
C636   C639    1.473   .     S
C636   O721    1.302   .     A
C637   H705    1.082   .     S
C637   C639    1.402   .     A
C638   C640    1.420   .     A
C639   C641    1.421   .     A
C640   O728    1.385   .     S
C640   C642    1.413   .     A
C641   O712    1.378   .     S
C641   C643    1.396   .     A
C642   C644    1.408   .     A
C642   O713    1.384   .     S
C643   C645    1.416   .     A
C643   O714    1.383   .     S
C644   C957    1.467   1_545 S
C645   C956    1.467   .     S
C646   H672    1.115   .     S
C646   O715    1.416   .     S
C646   H671    1.110   .     S
C646   C648    1.524   .     S
C647   H706    1.080   .     S
C647   C660    1.416   .     A
C648   H674    1.110   .     S
C648   H673    1.109   .     S
C648   H779    1.111   .     S
C649   H677    1.117   .     S
C649   C650    1.522   .     S
C649   O716    1.417   .     S
C649   H676    1.110   .     S
C650   H679    1.109   .     S
C650   H680    1.111   .     S
C650   H681    1.111   .     S
C651   O717    1.413   .     S
C651   H682    1.115   .     S
C651   H683    1.111   .     S
C651   C652    1.522   .     S
C652   H685    1.111   .     S
C652   H684    1.110   .     S
C652   H686    1.110   .     S
C653   H687    1.110   .     S
C653   O718    1.418   .     S
C653   H688    1.117   .     S
C653   C654    1.525   .     S
C654   H690    1.108   .     S
C654   H692    1.111   .     S
C654   H795    1.111   .     S
C655   H694    1.115   .     S
C655   O719    1.411   .     S
C655   C240    1.521   1_455 S
C656   H696    1.109   .     S
C656   H697    1.110   .     S
C656   C135    1.521   1_556 S
C656   H71     1.111   1_556 S
C657   O720    1.411   .     S
C657   H699    1.115   .     S
C657   C659    1.520   .     S
C657   H698    1.114   .     S
C658   C661    1.413   .     A
C658   H707    1.080   .     S
C659   H701    1.111   .     S
C659   H702    1.110   .     S
C659   H79     1.110   1_556 S
C660   O715    1.384   .     S
C660   N709    1.372   .     A
C661   N710    1.374   .     A
C661   O716    1.381   .     S
C662   N709    1.375   .     A
C662   C664    1.422   .     A
C662   O717    1.381   .     S
C663   O718    1.381   .     S
C663   N710    1.376   .     A
C664   O719    1.383   .     S
Cu665  Cu666   2.686   .     S
Cu665  N710    2.017   .     S
Cu665  O723    1.955   .     S
Cu665  O711    1.951   .     S
Cu665  O727    1.952   .     S
Cu665  O724    1.949   .     S
Cu666  O722    1.955   .     S
Cu666  O726    1.952   .     S
Cu666  O721    1.951   .     S
Cu666  N709    2.017   .     S
Cu666  O725    1.949   .     S
H667   C735    1.087   .     S
H668   O712    0.991   .     S
H669   O713    0.989   .     S
H670   O1026   0.989   1_545 S
H675   C856    1.111   1_455 S
H678   C840    1.087   1_455 S
H691   C862    1.111   1_455 S
H693   C31     1.114   1_556 S
H708   O728    0.988   .     S
O714   H982    0.989   .     S
C729   O815    1.292   .     A
C729   O826    1.292   .     A
C729   C742    1.449   .     S
C730   C767    1.418   .     A
C730   C732    1.412   .     A
C730   O824    1.381   .     S
C731   C751    1.404   .     A
C731   C768    1.412   .     A
C732   C762    1.403   .     A
C732   C107    1.518   1_556 S
C733   C735    1.430   .     S
C733   O828    1.287   .     A
C733   O830    1.290   .     A
C734   O829    1.287   .     A
C734   C736    1.430   .     S
C734   O831    1.290   .     A
C736   C839    1.335   .     S
C736   H886    1.087   .     S
C737   C748    1.399   .     A
C737   C739    1.383   .     A
C737   H793    1.084   .     S
C738   H804    1.084   .     S
C738   C741    1.386   .     A
C738   C749    1.399   .     A
C739   C742    1.395   .     A
C739   H808    1.084   .     S
C740   O827    1.296   .     A
C740   C743    1.473   .     S
C740   O825    1.302   .     A
C741   H809    1.082   .     S
C741   C743    1.402   .     A
C742   C744    1.420   .     A
C743   C745    1.421   .     A
C744   O832    1.385   .     S
C744   C746    1.413   .     A
C745   O816    1.378   .     S
C745   C747    1.396   .     A
C746   C748    1.408   .     A
C746   O817    1.384   .     S
C747   C749    1.416   .     A
C747   O818    1.383   .     S
C748   C1061   1.467   1_545 S
C749   C1060   1.467   .     S
C750   H776    1.115   .     S
C750   O819    1.416   .     S
C750   H775    1.110   .     S
C750   C752    1.524   .     S
C751   H810    1.080   .     S
C751   C764    1.416   .     A
C752   H778    1.110   .     S
C752   H777    1.109   .     S
C752   H883    1.111   .     S
C753   H781    1.117   .     S
C753   C754    1.522   .     S
C753   O820    1.417   .     S
C753   H780    1.110   .     S
C754   H783    1.109   .     S
C754   H784    1.111   .     S
C754   H785    1.111   .     S
C755   O821    1.413   .     S
C755   H786    1.115   .     S
C755   H787    1.111   .     S
C755   C756    1.522   .     S
C756   H789    1.111   .     S
C756   H788    1.110   .     S
C756   H790    1.110   .     S
C757   H791    1.110   .     S
C757   O822    1.418   .     S
C757   H792    1.117   .     S
C757   C758    1.525   .     S
C758   H794    1.108   .     S
C758   H796    1.111   .     S
C758   H899    1.111   .     S
C759   H798    1.115   .     S
C759   O823    1.411   .     S
C760   H800    1.109   .     S
C760   H801    1.110   .     S
C760   C239    1.521   1_556 S
C760   H175    1.111   1_556 S
C761   O824    1.411   .     S
C761   H803    1.115   .     S
C761   C763    1.520   .     S
C761   H802    1.114   .     S
C762   C765    1.413   .     A
C762   H811    1.080   .     S
C763   H805    1.111   .     S
C763   H806    1.110   .     S
C763   H183    1.110   1_556 S
C764   O819    1.384   .     S
C764   N813    1.372   .     A
C765   N814    1.374   .     A
C765   O820    1.381   .     S
C766   N813    1.375   .     A
C766   C768    1.422   .     A
C766   O821    1.381   .     S
C767   O822    1.381   .     S
C767   N814    1.376   .     A
C768   O823    1.383   .     S
Cu769  Cu770   2.686   .     S
Cu769  N814    2.017   .     S
Cu769  O827    1.955   .     S
Cu769  O815    1.951   .     S
Cu769  O831    1.952   .     S
Cu769  O828    1.949   .     S
Cu770  O826    1.955   .     S
Cu770  O830    1.952   .     S
Cu770  O825    1.951   .     S
Cu770  N813    2.017   .     S
Cu770  O829    1.949   .     S
H771   C839    1.087   .     S
H772   O816    0.991   .     S
H773   O817    0.989   .     S
H774   O1130   0.989   1_545 S
H797   C135    1.114   1_556 S
H812   O832    0.988   .     S
O818   H1086   0.989   .     S
C833   O919    1.292   .     A
C833   O930    1.292   .     A
C833   C846    1.449   .     S
C834   C871    1.418   .     A
C834   C836    1.412   .     A
C834   O928    1.381   .     S
C835   C855    1.404   .     A
C835   C872    1.412   .     A
C836   C866    1.403   .     A
C836   C211    1.518   1_556 S
C837   C839    1.430   .     S
C837   O932    1.287   .     A
C837   O934    1.290   .     A
C838   O933    1.287   .     A
C838   C840    1.430   .     S
C838   O935    1.290   .     A
C840   C631    1.335   1_655 S
C840   H678    1.087   1_655 S
C841   C852    1.399   .     A
C841   C843    1.383   .     A
C841   H897    1.084   .     S
C842   H908    1.084   .     S
C842   C845    1.386   .     A
C842   C853    1.399   .     A
C843   C846    1.395   .     A
C843   H912    1.084   .     S
C844   O931    1.296   .     A
C844   C847    1.473   .     S
C844   O929    1.302   .     A
C845   H913    1.082   .     S
C845   C847    1.402   .     A
C846   C848    1.420   .     A
C847   C849    1.421   .     A
C848   O936    1.385   .     S
C848   C850    1.413   .     A
C849   O920    1.378   .     S
C849   C851    1.396   .     A
C850   C852    1.408   .     A
C850   O921    1.384   .     S
C851   C853    1.416   .     A
C851   O922    1.383   .     S
C852   C1165   1.467   1_545 S
C853   C1164   1.467   .     S
C854   H880    1.115   .     S
C854   O923    1.416   .     S
C854   H879    1.110   .     S
C854   C856    1.524   .     S
C855   H914    1.080   .     S
C855   C868    1.416   .     A
C856   H882    1.110   .     S
C856   H881    1.109   .     S
C856   H675    1.111   1_655 S
C857   H885    1.117   .     S
C857   C858    1.522   .     S
C857   O924    1.417   .     S
C857   H884    1.110   .     S
C858   H887    1.109   .     S
C858   H888    1.111   .     S
C858   H889    1.111   .     S
C859   O925    1.413   .     S
C859   H890    1.115   .     S
C859   H891    1.111   .     S
C859   C860    1.522   .     S
C860   H893    1.111   .     S
C860   H892    1.110   .     S
C860   H894    1.110   .     S
C861   H895    1.110   .     S
C861   O926    1.418   .     S
C861   H896    1.117   .     S
C861   C862    1.525   .     S
C862   H898    1.108   .     S
C862   H900    1.111   .     S
C862   H691    1.111   1_655 S
C863   H902    1.115   .     S
C863   O927    1.411   .     S
C864   H904    1.109   .     S
C864   H905    1.110   .     S
C864   C31     1.521   1_656 S
C864   H279    1.111   1_556 S
C865   O928    1.411   .     S
C865   H907    1.115   .     S
C865   C867    1.520   .     S
C865   H906    1.114   .     S
C866   C869    1.413   .     A
C866   H915    1.080   .     S
C867   H909    1.111   .     S
C867   H910    1.110   .     S
C867   H287    1.110   1_556 S
C868   O923    1.384   .     S
C868   N917    1.372   .     A
C869   N918    1.374   .     A
C869   O924    1.381   .     S
C870   N917    1.375   .     A
C870   C872    1.422   .     A
C870   O925    1.381   .     S
C871   O926    1.381   .     S
C871   N918    1.376   .     A
C872   O927    1.383   .     S
Cu873  Cu874   2.686   .     S
Cu873  N918    2.017   .     S
Cu873  O931    1.955   .     S
Cu873  O919    1.951   .     S
Cu873  O935    1.952   .     S
Cu873  O932    1.949   .     S
Cu874  O930    1.955   .     S
Cu874  O934    1.952   .     S
Cu874  O929    1.951   .     S
Cu874  N917    2.017   .     S
Cu874  O933    1.949   .     S
H875   C631    1.087   1_655 S
H876   O920    0.991   .     S
H877   O921    0.989   .     S
H878   O1234   0.989   1_545 S
H901   C239    1.114   1_556 S
H916   O936    0.988   .     S
O922   H1190   0.989   .     S
C937   O1023   1.292   .     A
C937   O1034   1.292   .     A
C937   C950    1.449   .     S
C938   C975    1.418   .     A
C938   C940    1.412   .     A
C938   O1032   1.381   .     S
C939   C959    1.404   .     A
C939   C976    1.412   .     A
C940   C970    1.403   .     A
C940   C315    1.518   1_556 S
C941   C943    1.430   .     S
C941   O1036   1.287   .     A
C941   O1038   1.290   .     A
C942   O1037   1.287   .     A
C942   C944    1.430   .     S
C942   O1039   1.290   .     A
C943   C1152   1.335   1_455 S
C943   H1187   1.087   1_455 S
C944   C1047   1.335   .     S
C944   H1094   1.087   .     S
C945   C956    1.399   .     A
C945   C947    1.383   .     A
C945   H1001   1.084   .     S
C946   H1012   1.084   .     S
C946   C949    1.386   .     A
C946   C957    1.399   .     A
C947   C950    1.395   .     A
C947   H1016   1.084   .     S
C948   O1035   1.296   .     A
C948   C951    1.473   .     S
C948   O1033   1.302   .     A
C949   H1017   1.082   .     S
C949   C951    1.402   .     A
C950   C952    1.420   .     A
C951   C953    1.421   .     A
C952   O1040   1.385   .     S
C952   C954    1.413   .     A
C953   O1024   1.378   .     S
C953   C955    1.396   .     A
C954   C956    1.408   .     A
C954   O1025   1.384   .     S
C955   C957    1.416   .     A
C955   O1026   1.383   .     S
C957   C644    1.467   1_565 S
C958   H984    1.115   .     S
C958   O1027   1.416   .     S
C958   H983    1.110   .     S
C958   C960    1.524   .     S
C959   H1018   1.080   .     S
C959   C972    1.416   .     A
C960   H986    1.110   .     S
C960   H985    1.109   .     S
C960   H1091   1.111   .     S
C961   H989    1.117   .     S
C961   C962    1.522   .     S
C961   O1028   1.417   .     S
C961   H988    1.110   .     S
C962   H991    1.109   .     S
C962   H992    1.111   .     S
C962   H993    1.111   .     S
C963   O1029   1.413   .     S
C963   H994    1.115   .     S
C963   H995    1.111   .     S
C963   C964    1.522   .     S
C964   H997    1.111   .     S
C964   H996    1.110   .     S
C964   H998    1.110   .     S
C965   H999    1.110   .     S
C965   O1030   1.418   .     S
C965   H1000   1.117   .     S
C965   C966    1.525   .     S
C966   H1002   1.108   .     S
C966   H1004   1.111   .     S
C966   H1107   1.111   .     S
C967   H1006   1.115   .     S
C967   O1031   1.411   .     S
C967   C552    1.521   1_455 S
C968   H1008   1.109   .     S
C968   H1009   1.110   .     S
C968   C447    1.521   1_556 S
C968   H383    1.111   1_556 S
C969   O1032   1.411   .     S
C969   H1011   1.115   .     S
C969   C971    1.520   .     S
C969   H1010   1.114   .     S
C970   C973    1.413   .     A
C970   H1019   1.080   .     S
C971   H1013   1.111   .     S
C971   H1014   1.110   .     S
C971   H391    1.110   1_556 S
C972   O1027   1.384   .     S
C972   N1021   1.372   .     A
C973   N1022   1.374   .     A
C973   O1028   1.381   .     S
C974   N1021   1.375   .     A
C974   C976    1.422   .     A
C974   O1029   1.381   .     S
C975   O1030   1.381   .     S
C975   N1022   1.376   .     A
C976   O1031   1.383   .     S
Cu977  Cu978   2.686   .     S
Cu977  N1022   2.017   .     S
Cu977  O1035   1.955   .     S
Cu977  O1023   1.951   .     S
Cu977  O1039   1.952   .     S
Cu977  O1036   1.949   .     S
Cu978  O1034   1.955   .     S
Cu978  O1038   1.952   .     S
Cu978  O1033   1.951   .     S
Cu978  N1021   2.017   .     S
Cu978  O1037   1.949   .     S
H979   C1047   1.087   .     S
H980   O1024   0.991   .     S
H981   O1025   0.989   .     S
H987   C1168   1.111   1_455 S
H990   C1152   1.087   1_455 S
H1003  C1174   1.111   1_455 S
H1005  C343    1.114   1_556 S
H1020  O1040   0.988   .     S
O1026  H670    0.989   1_565 S
C1041  O1127   1.292   .     A
C1041  O1138   1.292   .     A
C1041  C1054   1.449   .     S
C1042  C1079   1.418   .     A
C1042  C1044   1.412   .     A
C1042  O1136   1.381   .     S
C1043  C1063   1.404   .     A
C1043  C1080   1.412   .     A
C1044  C1074   1.403   .     A
C1044  C419    1.518   1_556 S
C1045  C1047   1.430   .     S
C1045  O1140   1.287   .     A
C1045  O1142   1.290   .     A
C1046  O1141   1.287   .     A
C1046  C1048   1.430   .     S
C1046  O1143   1.290   .     A
C1048  C1151   1.335   .     S
C1048  H1198   1.087   .     S
C1049  C1060   1.399   .     A
C1049  C1051   1.383   .     A
C1049  H1105   1.084   .     S
C1050  H1116   1.084   .     S
C1050  C1053   1.386   .     A
C1050  C1061   1.399   .     A
C1051  C1054   1.395   .     A
C1051  H1120   1.084   .     S
C1052  O1139   1.296   .     A
C1052  C1055   1.473   .     S
C1052  O1137   1.302   .     A
C1053  H1121   1.082   .     S
C1053  C1055   1.402   .     A
C1054  C1056   1.420   .     A
C1055  C1057   1.421   .     A
C1056  O1144   1.385   .     S
C1056  C1058   1.413   .     A
C1057  O1128   1.378   .     S
C1057  C1059   1.396   .     A
C1058  C1060   1.408   .     A
C1058  O1129   1.384   .     S
C1059  C1061   1.416   .     A
C1059  O1130   1.383   .     S
C1061  C748    1.467   1_565 S
C1062  H1088   1.115   .     S
C1062  O1131   1.416   .     S
C1062  H1087   1.110   .     S
C1062  C1064   1.524   .     S
C1063  H1122   1.080   .     S
C1063  C1076   1.416   .     A
C1064  H1090   1.110   .     S
C1064  H1089   1.109   .     S
C1064  H1195   1.111   .     S
C1065  H1093   1.117   .     S
C1065  C1066   1.522   .     S
C1065  O1132   1.417   .     S
C1065  H1092   1.110   .     S
C1066  H1095   1.109   .     S
C1066  H1096   1.111   .     S
C1066  H1097   1.111   .     S
C1067  O1133   1.413   .     S
C1067  H1098   1.115   .     S
C1067  H1099   1.111   .     S
C1067  C1068   1.522   .     S
C1068  H1101   1.111   .     S
C1068  H1100   1.110   .     S
C1068  H1102   1.110   .     S
C1069  H1103   1.110   .     S
C1069  O1134   1.418   .     S
C1069  H1104   1.117   .     S
C1069  C1070   1.525   .     S
C1070  H1106   1.108   .     S
C1070  H1108   1.111   .     S
C1070  H1211   1.111   .     S
C1071  H1110   1.115   .     S
C1071  O1135   1.411   .     S
C1072  H1112   1.109   .     S
C1072  H1113   1.110   .     S
C1072  C551    1.521   1_556 S
C1072  H487    1.111   1_556 S
C1073  O1136   1.411   .     S
C1073  H1115   1.115   .     S
C1073  C1075   1.520   .     S
C1073  H1114   1.114   .     S
C1074  C1077   1.413   .     A
C1074  H1123   1.080   .     S
C1075  H1117   1.111   .     S
C1075  H1118   1.110   .     S
C1075  H495    1.110   1_556 S
C1076  O1131   1.384   .     S
C1076  N1125   1.372   .     A
C1077  N1126   1.374   .     A
C1077  O1132   1.381   .     S
C1078  N1125   1.375   .     A
C1078  C1080   1.422   .     A
C1078  O1133   1.381   .     S
C1079  O1134   1.381   .     S
C1079  N1126   1.376   .     A
C1080  O1135   1.383   .     S
Cu1081 Cu1082  2.686   .     S
Cu1081 N1126   2.017   .     S
Cu1081 O1139   1.955   .     S
Cu1081 O1127   1.951   .     S
Cu1081 O1143   1.952   .     S
Cu1081 O1140   1.949   .     S
Cu1082 O1138   1.955   .     S
Cu1082 O1142   1.952   .     S
Cu1082 O1137   1.951   .     S
Cu1082 N1125   2.017   .     S
Cu1082 O1141   1.949   .     S
H1083  C1151   1.087   .     S
H1084  O1128   0.991   .     S
H1085  O1129   0.989   .     S
H1109  C447    1.114   1_556 S
H1124  O1144   0.988   .     S
O1130  H774    0.989   1_565 S
C1145  O1231   1.292   .     A
C1145  O1242   1.292   .     A
C1145  C1158   1.449   .     S
C1146  C1183   1.418   .     A
C1146  C1148   1.412   .     A
C1146  O1240   1.381   .     S
C1147  C1167   1.404   .     A
C1147  C1184   1.412   .     A
C1148  C1178   1.403   .     A
C1148  C523    1.518   1_556 S
C1149  C1151   1.430   .     S
C1149  O1244   1.287   .     A
C1149  O1246   1.290   .     A
C1150  O1245   1.287   .     A
C1150  C1152   1.430   .     S
C1150  O1247   1.290   .     A
C1152  C943    1.335   1_655 S
C1152  H990    1.087   1_655 S
C1153  C1164   1.399   .     A
C1153  C1155   1.383   .     A
C1153  H1209   1.084   .     S
C1154  H1220   1.084   .     S
C1154  C1157   1.386   .     A
C1154  C1165   1.399   .     A
C1155  C1158   1.395   .     A
C1155  H1224   1.084   .     S
C1156  O1243   1.296   .     A
C1156  C1159   1.473   .     S
C1156  O1241   1.302   .     A
C1157  H1225   1.082   .     S
C1157  C1159   1.402   .     A
C1158  C1160   1.420   .     A
C1159  C1161   1.421   .     A
C1160  O1248   1.385   .     S
C1160  C1162   1.413   .     A
C1161  O1232   1.378   .     S
C1161  C1163   1.396   .     A
C1162  C1164   1.408   .     A
C1162  O1233   1.384   .     S
C1163  C1165   1.416   .     A
C1163  O1234   1.383   .     S
C1165  C852    1.467   1_565 S
C1166  H1192   1.115   .     S
C1166  O1235   1.416   .     S
C1166  H1191   1.110   .     S
C1166  C1168   1.524   .     S
C1167  H1226   1.080   .     S
C1167  C1180   1.416   .     A
C1168  H1194   1.110   .     S
C1168  H1193   1.109   .     S
C1168  H987    1.111   1_655 S
C1169  H1197   1.117   .     S
C1169  C1170   1.522   .     S
C1169  O1236   1.417   .     S
C1169  H1196   1.110   .     S
C1170  H1199   1.109   .     S
C1170  H1200   1.111   .     S
C1170  H1201   1.111   .     S
C1171  O1237   1.413   .     S
C1171  H1202   1.115   .     S
C1171  H1203   1.111   .     S
C1171  C1172   1.522   .     S
C1172  H1205   1.111   .     S
C1172  H1204   1.110   .     S
C1172  H1206   1.110   .     S
C1173  H1207   1.110   .     S
C1173  O1238   1.418   .     S
C1173  H1208   1.117   .     S
C1173  C1174   1.525   .     S
C1174  H1210   1.108   .     S
C1174  H1212   1.111   .     S
C1174  H1003   1.111   1_655 S
C1175  H1214   1.115   .     S
C1175  O1239   1.411   .     S
C1176  H1216   1.109   .     S
C1176  H1217   1.110   .     S
C1176  C343    1.521   1_656 S
C1176  H591    1.111   1_556 S
C1177  O1240   1.411   .     S
C1177  H1219   1.115   .     S
C1177  C1179   1.520   .     S
C1177  H1218   1.114   .     S
C1178  C1181   1.413   .     A
C1178  H1227   1.080   .     S
C1179  H1221   1.111   .     S
C1179  H1222   1.110   .     S
C1179  H599    1.110   1_556 S
C1180  O1235   1.384   .     S
C1180  N1229   1.372   .     A
C1181  N1230   1.374   .     A
C1181  O1236   1.381   .     S
C1182  N1229   1.375   .     A
C1182  C1184   1.422   .     A
C1182  O1237   1.381   .     S
C1183  O1238   1.381   .     S
C1183  N1230   1.376   .     A
C1184  O1239   1.383   .     S
Cu1185 Cu1186  2.686   .     S
Cu1185 N1230   2.017   .     S
Cu1185 O1243   1.955   .     S
Cu1185 O1231   1.951   .     S
Cu1185 O1247   1.952   .     S
Cu1185 O1244   1.949   .     S
Cu1186 O1242   1.955   .     S
Cu1186 O1246   1.952   .     S
Cu1186 O1241   1.951   .     S
Cu1186 N1229   2.017   .     S
Cu1186 O1245   1.949   .     S
H1187  C943    1.087   1_655 S
H1188  O1232   0.991   .     S
H1189  O1233   0.989   .     S
H1213  C551    1.114   1_556 S
H1228  O1248   0.988   .     S
O1234  H878    0.989   1_565 S
