data_str_m2_o10_o18_pcu_sym.86
_audit_creation_date              2020-01-03
_audit_creation_method            'Materials Studio'
_symmetry_space_group_name_H-M    'P1'
_symmetry_Int_Tables_number       1
_symmetry_cell_setting            triclinic
loop_
_symmetry_equiv_pos_as_xyz
  x,y,z
_cell_length_a                    22.2810
_cell_length_b                    26.3582
_cell_length_c                    31.6243
_cell_angle_alpha                 95.6067
_cell_angle_beta                  74.6026
_cell_angle_gamma                 103.0106
loop_
_atom_site_label
_atom_site_type_symbol
_atom_site_fract_x
_atom_site_fract_y
_atom_site_fract_z
_atom_site_U_iso_or_equiv
_atom_site_adp_type
_atom_site_occupancy
C1     C     0.18098   0.26656   0.25251   0.00000  Uiso   1.00
C2     C     0.20521   0.16916   0.16667   0.00000  Uiso   1.00
C3     C     0.10384   0.15586   0.38065   0.00000  Uiso   1.00
C4     C     0.22835   0.17368   0.11875   0.00000  Uiso   1.00
C5     C     0.02647   0.11117   0.44173   0.00000  Uiso   1.00
C6     C     0.30626   0.21408   0.05594   0.00000  Uiso   1.00
C7     C     0.04496   0.12310   0.39755   0.00000  Uiso   1.00
C8     C     0.28785   0.20422   0.10043   0.00000  Uiso   1.00
C9     C     0.14351   0.17749   0.40860   0.00000  Uiso   1.00
C10    C     0.18789   0.15100   0.09147   0.00000  Uiso   1.00
C11    C     0.13062   0.15773   0.45093   0.00000  Uiso   1.00
C12    C     0.15189   0.06688   0.24876   0.00000  Uiso   1.00
C13    C     0.20107   0.16815   0.04814   0.00000  Uiso   1.00
C14    C     0.06880   0.12830   0.46853   0.00000  Uiso   1.00
C15    C     0.26331   0.19657   0.02975   0.00000  Uiso   1.00
C16    C     0.17595   0.16817   0.47684   0.00000  Uiso   1.00
C17    C     0.15574   0.15650   0.02207   0.00000  Uiso   1.00
C18    C     0.16129   0.06210   0.08748   0.00000  Uiso   1.00
C19    C     0.10531   0.02105   0.07877   0.00000  Uiso   1.00
C20    C     0.17267   0.26608   0.41679   0.00000  Uiso   1.00
C21    C     0.23120   0.30673   0.42173   0.00000  Uiso   1.00
C22    C     0.24249   0.01385   0.31078   0.00000  Uiso   1.00
C23    C     0.09053   0.13553   0.03993   0.00000  Uiso   1.00
C24    C     0.22426   0.06128   0.33853   0.00000  Uiso   1.00
C25    C     0.10661   0.31489   0.18705   0.00000  Uiso   1.00
C26    C     0.06240   0.26939   0.17082   0.00000  Uiso   1.00
C27    C     0.24119   0.18817   0.45856   0.00000  Uiso   1.00
C28    C     0.04902   0.11849   0.01311   0.00000  Uiso   1.00
C29    C     0.28310   0.20506   0.48498   0.00000  Uiso   1.00
C30    C     0.18775   0.32243   0.25687   0.00000  Uiso   1.00
C31    C     0.14472   0.01128   0.24650   0.00000  Uiso   1.00
C32    C     0.12787   0.16315   0.33321   0.00000  Uiso   1.00
Cu33   Cu    0.10737   0.16108   0.24517   0.00000  Uiso   1.00
Cu34   Cu    0.22596   0.17225   0.25483   0.00000  Uiso   1.00
H35    H     0.00030   0.09954   0.02773   0.00000  Uiso   1.00
H36    H     0.33218   0.12802   0.21544   0.00000  Uiso   1.00
H37    H     0.18162   0.04722   0.11108   0.00000  Uiso   1.00
H38    H     0.19855   0.06738   0.05574   0.00000  Uiso   1.00
H39    H     0.08919   0.03255   0.05149   0.00000  Uiso   1.00
H40    H     0.12012   0.31654   0.06913   0.00000  Uiso   1.00
H41    H     0.06495   0.01642   0.10850   0.00000  Uiso   1.00
H42    H     0.14044   0.25972   0.45037   0.00000  Uiso   1.00
H43    H     0.14736   0.28186   0.39686   0.00000  Uiso   1.00
H44    H     0.26595   0.31378   0.38942   0.00000  Uiso   1.00
H45    H     0.21692   0.01044   0.43582   0.00000  Uiso   1.00
H46    H     0.33198   0.22324   0.46996   0.00000  Uiso   1.00
H47    H     0.25448   0.29330   0.44424   0.00000  Uiso   1.00
H48    H     0.29148   0.01225   0.31177   0.00000  Uiso   1.00
H49    H     0.21061   0.31112   0.32590   0.00000  Uiso   1.00
H50    H     0.17452   0.06289   0.33959   0.00000  Uiso   1.00
H51    H     0.22783   0.05906   0.37255   0.00000  Uiso   1.00
H52    H     0.25697   0.09740   0.32455   0.00000  Uiso   1.00
H53    H     0.15636   0.31030   0.17113   0.00000  Uiso   1.00
H54    H     0.09916   0.01826   0.17668   0.00000  Uiso   1.00
H55    H     0.01260   0.27500   0.18204   0.00000  Uiso   1.00
H56    H     0.07716   0.26663   0.13451   0.00000  Uiso   1.00
H57    H     0.31996   0.22029   0.12058   0.00000  Uiso   1.00
H58    H     0.06560   0.23250   0.18324   0.00000  Uiso   1.00
H59    H     0.01340   0.10671   0.37664   0.00000  Uiso   1.00
H60    H     0.31289   0.08771   0.45477   0.00000  Uiso   1.00
H61    H     0.02033   0.23631   0.04218   0.00000  Uiso   1.00
H62    H     0.07004   0.13195   0.07470   0.00000  Uiso   1.00
H63    H     0.26128   0.19100   0.42366   0.00000  Uiso   1.00
H64    H     0.00116   0.20534   0.28455   0.00000  Uiso   1.00
N65    N     0.31506   0.18068   0.26212   0.00000  Uiso   1.00
N66    N     0.01827   0.15265   0.23788   0.00000  Uiso   1.00
O67    O     0.12815   0.23809   0.24686   0.00000  Uiso   1.00
O68    O     0.19175   0.22043   0.39518   0.00000  Uiso   1.00
O69    O     0.24294   0.01890   0.26650   0.00000  Uiso   1.00
O70    O     0.09249   0.31513   0.23329   0.00000  Uiso   1.00
O71    O     0.20518   0.09524   0.25314   0.00000  Uiso   1.00
O72    O     0.22829   0.24753   0.25502   0.00000  Uiso   1.00
O73    O     0.10504   0.08580   0.24498   0.00000  Uiso   1.00
O74    O     0.08851   0.15930   0.30855   0.00000  Uiso   1.00
O75    O     0.24482   0.17403   0.19145   0.00000  Uiso   1.00
O76    O     0.18866   0.16874   0.31671   0.00000  Uiso   1.00
O77    O     0.14468   0.16460   0.18329   0.00000  Uiso   1.00
O78    O     0.14013   0.10821   0.10593   0.00000  Uiso   1.00
C79    C     0.51431   0.26656   0.25251   0.00000  Uiso   1.00
C80    C     0.53854   0.16916   0.16667   0.00000  Uiso   1.00
C81    C     0.43718   0.15586   0.38065   0.00000  Uiso   1.00
C82    C     0.56168   0.17368   0.11875   0.00000  Uiso   1.00
C83    C     0.35980   0.11117   0.44173   0.00000  Uiso   1.00
C84    C     0.63959   0.21408   0.05594   0.00000  Uiso   1.00
C85    C     0.37830   0.12310   0.39755   0.00000  Uiso   1.00
C86    C     0.62119   0.20422   0.10043   0.00000  Uiso   1.00
C87    C     0.47684   0.17749   0.40860   0.00000  Uiso   1.00
C88    C     0.52122   0.15100   0.09147   0.00000  Uiso   1.00
C89    C     0.46395   0.15773   0.45093   0.00000  Uiso   1.00
C90    C     0.48522   0.06688   0.24876   0.00000  Uiso   1.00
C91    C     0.53441   0.16815   0.04814   0.00000  Uiso   1.00
C92    C     0.40213   0.12830   0.46853   0.00000  Uiso   1.00
C93    C     0.59665   0.19657   0.02975   0.00000  Uiso   1.00
C94    C     0.50928   0.16817   0.47684   0.00000  Uiso   1.00
C95    C     0.48908   0.15650   0.02207   0.00000  Uiso   1.00
C96    C     0.49462   0.06210   0.08748   0.00000  Uiso   1.00
C97    C     0.43864   0.02105   0.07877   0.00000  Uiso   1.00
C98    C     0.50601   0.26608   0.41679   0.00000  Uiso   1.00
C99    C     0.56453   0.30673   0.42173   0.00000  Uiso   1.00
C100   C     0.57582   0.01385   0.31078   0.00000  Uiso   1.00
C101   C     0.42386   0.13553   0.03993   0.00000  Uiso   1.00
C102   C     0.55759   0.06128   0.33853   0.00000  Uiso   1.00
C103   C     0.43994   0.31489   0.18705   0.00000  Uiso   1.00
C104   C     0.39573   0.26939   0.17082   0.00000  Uiso   1.00
C105   C     0.57453   0.18817   0.45856   0.00000  Uiso   1.00
C106   C     0.38235   0.11849   0.01311   0.00000  Uiso   1.00
C107   C     0.61643   0.20506   0.48498   0.00000  Uiso   1.00
C108   C     0.52108   0.32243   0.25687   0.00000  Uiso   1.00
C109   C     0.47805   0.01128   0.24650   0.00000  Uiso   1.00
C110   C     0.46120   0.16315   0.33321   0.00000  Uiso   1.00
Cu111  Cu    0.44071   0.16108   0.24517   0.00000  Uiso   1.00
Cu112  Cu    0.55929   0.17225   0.25483   0.00000  Uiso   1.00
H113   H     0.33364   0.09954   0.02773   0.00000  Uiso   1.00
H114   H     0.66552   0.12802   0.21544   0.00000  Uiso   1.00
H115   H     0.51495   0.04722   0.11108   0.00000  Uiso   1.00
H116   H     0.53188   0.06738   0.05574   0.00000  Uiso   1.00
H117   H     0.42253   0.03255   0.05149   0.00000  Uiso   1.00
H118   H     0.45346   0.31654   0.06913   0.00000  Uiso   1.00
H119   H     0.39828   0.01642   0.10850   0.00000  Uiso   1.00
H120   H     0.47378   0.25972   0.45037   0.00000  Uiso   1.00
H121   H     0.48069   0.28186   0.39686   0.00000  Uiso   1.00
H122   H     0.59928   0.31378   0.38942   0.00000  Uiso   1.00
H123   H     0.55025   0.01044   0.43582   0.00000  Uiso   1.00
H124   H     0.66532   0.22324   0.46996   0.00000  Uiso   1.00
H125   H     0.58781   0.29330   0.44424   0.00000  Uiso   1.00
H126   H     0.62481   0.01225   0.31177   0.00000  Uiso   1.00
H127   H     0.54394   0.31112   0.32590   0.00000  Uiso   1.00
H128   H     0.50785   0.06289   0.33959   0.00000  Uiso   1.00
H129   H     0.56116   0.05906   0.37255   0.00000  Uiso   1.00
H130   H     0.59031   0.09740   0.32455   0.00000  Uiso   1.00
H131   H     0.48970   0.31030   0.17113   0.00000  Uiso   1.00
H132   H     0.43250   0.01826   0.17668   0.00000  Uiso   1.00
H133   H     0.34593   0.27500   0.18204   0.00000  Uiso   1.00
H134   H     0.41049   0.26663   0.13451   0.00000  Uiso   1.00
H135   H     0.65329   0.22029   0.12058   0.00000  Uiso   1.00
H136   H     0.39894   0.23250   0.18324   0.00000  Uiso   1.00
H137   H     0.34674   0.10671   0.37664   0.00000  Uiso   1.00
H138   H     0.64622   0.08771   0.45477   0.00000  Uiso   1.00
H139   H     0.35367   0.23631   0.04218   0.00000  Uiso   1.00
H140   H     0.40337   0.13195   0.07470   0.00000  Uiso   1.00
H141   H     0.59461   0.19100   0.42366   0.00000  Uiso   1.00
H142   H     0.33449   0.20534   0.28455   0.00000  Uiso   1.00
N143   N     0.64839   0.18068   0.26212   0.00000  Uiso   1.00
N144   N     0.35161   0.15265   0.23788   0.00000  Uiso   1.00
O145   O     0.46148   0.23809   0.24686   0.00000  Uiso   1.00
O146   O     0.52509   0.22043   0.39518   0.00000  Uiso   1.00
O147   O     0.57627   0.01890   0.26650   0.00000  Uiso   1.00
O148   O     0.42582   0.31513   0.23329   0.00000  Uiso   1.00
O149   O     0.53852   0.09524   0.25314   0.00000  Uiso   1.00
O150   O     0.56163   0.24753   0.25502   0.00000  Uiso   1.00
O151   O     0.43837   0.08580   0.24498   0.00000  Uiso   1.00
O152   O     0.42185   0.15930   0.30855   0.00000  Uiso   1.00
O153   O     0.57815   0.17403   0.19145   0.00000  Uiso   1.00
O154   O     0.52199   0.16874   0.31671   0.00000  Uiso   1.00
O155   O     0.47801   0.16460   0.18329   0.00000  Uiso   1.00
O156   O     0.47346   0.10821   0.10593   0.00000  Uiso   1.00
C157   C     0.84765   0.26656   0.25251   0.00000  Uiso   1.00
C158   C     0.87187   0.16916   0.16667   0.00000  Uiso   1.00
C159   C     0.77051   0.15586   0.38065   0.00000  Uiso   1.00
C160   C     0.89501   0.17368   0.11875   0.00000  Uiso   1.00
C161   C     0.69314   0.11117   0.44173   0.00000  Uiso   1.00
C162   C     0.97293   0.21408   0.05594   0.00000  Uiso   1.00
C163   C     0.71163   0.12310   0.39755   0.00000  Uiso   1.00
C164   C     0.95452   0.20422   0.10043   0.00000  Uiso   1.00
C165   C     0.81018   0.17749   0.40860   0.00000  Uiso   1.00
C166   C     0.85455   0.15100   0.09147   0.00000  Uiso   1.00
C167   C     0.79728   0.15773   0.45093   0.00000  Uiso   1.00
C168   C     0.81856   0.06688   0.24876   0.00000  Uiso   1.00
C169   C     0.86774   0.16815   0.04814   0.00000  Uiso   1.00
C170   C     0.73546   0.12830   0.46853   0.00000  Uiso   1.00
C171   C     0.92998   0.19657   0.02975   0.00000  Uiso   1.00
C172   C     0.84262   0.16817   0.47684   0.00000  Uiso   1.00
C173   C     0.82241   0.15650   0.02207   0.00000  Uiso   1.00
C174   C     0.82796   0.06210   0.08748   0.00000  Uiso   1.00
C175   C     0.77197   0.02105   0.07877   0.00000  Uiso   1.00
C176   C     0.83934   0.26608   0.41679   0.00000  Uiso   1.00
C177   C     0.89786   0.30673   0.42173   0.00000  Uiso   1.00
C178   C     0.90915   0.01385   0.31078   0.00000  Uiso   1.00
C179   C     0.75720   0.13553   0.03993   0.00000  Uiso   1.00
C180   C     0.89092   0.06128   0.33853   0.00000  Uiso   1.00
C181   C     0.77327   0.31489   0.18705   0.00000  Uiso   1.00
C182   C     0.72907   0.26939   0.17082   0.00000  Uiso   1.00
C183   C     0.90786   0.18817   0.45856   0.00000  Uiso   1.00
C184   C     0.71568   0.11849   0.01311   0.00000  Uiso   1.00
C185   C     0.94976   0.20506   0.48498   0.00000  Uiso   1.00
C186   C     0.85441   0.32243   0.25687   0.00000  Uiso   1.00
C187   C     0.81138   0.01128   0.24650   0.00000  Uiso   1.00
C188   C     0.79453   0.16315   0.33321   0.00000  Uiso   1.00
Cu189  Cu    0.77404   0.16108   0.24517   0.00000  Uiso   1.00
Cu190  Cu    0.89263   0.17225   0.25483   0.00000  Uiso   1.00
H191   H     0.66697   0.09954   0.02773   0.00000  Uiso   1.00
H192   H     0.99885   0.12802   0.21544   0.00000  Uiso   1.00
H193   H     0.84829   0.04722   0.11108   0.00000  Uiso   1.00
H194   H     0.86521   0.06738   0.05574   0.00000  Uiso   1.00
H195   H     0.75586   0.03255   0.05149   0.00000  Uiso   1.00
H196   H     0.78679   0.31654   0.06913   0.00000  Uiso   1.00
H197   H     0.73162   0.01642   0.10850   0.00000  Uiso   1.00
H198   H     0.80711   0.25972   0.45037   0.00000  Uiso   1.00
H199   H     0.81402   0.28186   0.39686   0.00000  Uiso   1.00
H200   H     0.93261   0.31378   0.38942   0.00000  Uiso   1.00
H201   H     0.88359   0.01044   0.43582   0.00000  Uiso   1.00
H202   H     0.99865   0.22324   0.46996   0.00000  Uiso   1.00
H203   H     0.92115   0.29330   0.44424   0.00000  Uiso   1.00
H204   H     0.95814   0.01225   0.31177   0.00000  Uiso   1.00
H205   H     0.87728   0.31112   0.32590   0.00000  Uiso   1.00
H206   H     0.84119   0.06289   0.33959   0.00000  Uiso   1.00
H207   H     0.89449   0.05906   0.37255   0.00000  Uiso   1.00
H208   H     0.92364   0.09740   0.32455   0.00000  Uiso   1.00
H209   H     0.82303   0.31030   0.17113   0.00000  Uiso   1.00
H210   H     0.76583   0.01826   0.17668   0.00000  Uiso   1.00
H211   H     0.67926   0.27500   0.18204   0.00000  Uiso   1.00
H212   H     0.74383   0.26663   0.13451   0.00000  Uiso   1.00
H213   H     0.98662   0.22029   0.12058   0.00000  Uiso   1.00
H214   H     0.73227   0.23250   0.18324   0.00000  Uiso   1.00
H215   H     0.68007   0.10671   0.37664   0.00000  Uiso   1.00
H216   H     0.97956   0.08771   0.45477   0.00000  Uiso   1.00
H217   H     0.68700   0.23631   0.04218   0.00000  Uiso   1.00
H218   H     0.73670   0.13195   0.07470   0.00000  Uiso   1.00
H219   H     0.92794   0.19100   0.42366   0.00000  Uiso   1.00
H220   H     0.66782   0.20534   0.28455   0.00000  Uiso   1.00
N221   N     0.98173   0.18068   0.26212   0.00000  Uiso   1.00
N222   N     0.68494   0.15265   0.23788   0.00000  Uiso   1.00
O223   O     0.79482   0.23809   0.24686   0.00000  Uiso   1.00
O224   O     0.85842   0.22043   0.39518   0.00000  Uiso   1.00
O225   O     0.90961   0.01890   0.26650   0.00000  Uiso   1.00
O226   O     0.75916   0.31513   0.23329   0.00000  Uiso   1.00
O227   O     0.87185   0.09524   0.25314   0.00000  Uiso   1.00
O228   O     0.89496   0.24753   0.25502   0.00000  Uiso   1.00
O229   O     0.77171   0.08580   0.24498   0.00000  Uiso   1.00
O230   O     0.75518   0.15930   0.30855   0.00000  Uiso   1.00
O231   O     0.91149   0.17403   0.19145   0.00000  Uiso   1.00
O232   O     0.85532   0.16874   0.31671   0.00000  Uiso   1.00
O233   O     0.81134   0.16460   0.18329   0.00000  Uiso   1.00
O234   O     0.80680   0.10821   0.10593   0.00000  Uiso   1.00
C235   C     0.18098   0.59989   0.25251   0.00000  Uiso   1.00
C236   C     0.20521   0.50249   0.16667   0.00000  Uiso   1.00
C237   C     0.10384   0.48919   0.38065   0.00000  Uiso   1.00
C238   C     0.22835   0.50701   0.11875   0.00000  Uiso   1.00
C239   C     0.02647   0.44450   0.44173   0.00000  Uiso   1.00
C240   C     0.30626   0.54741   0.05594   0.00000  Uiso   1.00
C241   C     0.04496   0.45643   0.39755   0.00000  Uiso   1.00
C242   C     0.28785   0.53755   0.10043   0.00000  Uiso   1.00
C243   C     0.14351   0.51082   0.40860   0.00000  Uiso   1.00
C244   C     0.18789   0.48433   0.09147   0.00000  Uiso   1.00
C245   C     0.13062   0.49106   0.45093   0.00000  Uiso   1.00
C246   C     0.15189   0.40021   0.24876   0.00000  Uiso   1.00
C247   C     0.20107   0.50149   0.04814   0.00000  Uiso   1.00
C248   C     0.06880   0.46163   0.46853   0.00000  Uiso   1.00
C249   C     0.26331   0.52991   0.02975   0.00000  Uiso   1.00
C250   C     0.17595   0.50150   0.47684   0.00000  Uiso   1.00
C251   C     0.15574   0.48983   0.02207   0.00000  Uiso   1.00
C252   C     0.16129   0.39544   0.08748   0.00000  Uiso   1.00
C253   C     0.10531   0.35439   0.07877   0.00000  Uiso   1.00
C254   C     0.17267   0.59941   0.41679   0.00000  Uiso   1.00
C255   C     0.23120   0.64007   0.42173   0.00000  Uiso   1.00
C256   C     0.24249   0.34719   0.31078   0.00000  Uiso   1.00
C257   C     0.09053   0.46886   0.03993   0.00000  Uiso   1.00
C258   C     0.22426   0.39462   0.33853   0.00000  Uiso   1.00
C259   C     0.10661   0.64823   0.18705   0.00000  Uiso   1.00
C260   C     0.06240   0.60272   0.17082   0.00000  Uiso   1.00
C261   C     0.24119   0.52150   0.45856   0.00000  Uiso   1.00
C262   C     0.04902   0.45182   0.01311   0.00000  Uiso   1.00
C263   C     0.28310   0.53840   0.48498   0.00000  Uiso   1.00
C264   C     0.18775   0.65576   0.25687   0.00000  Uiso   1.00
C265   C     0.14472   0.34461   0.24650   0.00000  Uiso   1.00
C266   C     0.12787   0.49649   0.33321   0.00000  Uiso   1.00
Cu267  Cu    0.10737   0.49441   0.24517   0.00000  Uiso   1.00
Cu268  Cu    0.22596   0.50559   0.25483   0.00000  Uiso   1.00
H269   H     0.00030   0.43288   0.02773   0.00000  Uiso   1.00
H270   H     0.33218   0.46135   0.21544   0.00000  Uiso   1.00
H271   H     0.18162   0.38055   0.11108   0.00000  Uiso   1.00
H272   H     0.19855   0.40071   0.05574   0.00000  Uiso   1.00
H273   H     0.08919   0.36588   0.05149   0.00000  Uiso   1.00
H274   H     0.12012   0.64987   0.06913   0.00000  Uiso   1.00
H275   H     0.06495   0.34975   0.10850   0.00000  Uiso   1.00
H276   H     0.14044   0.59306   0.45037   0.00000  Uiso   1.00
H277   H     0.14736   0.61519   0.39686   0.00000  Uiso   1.00
H278   H     0.26595   0.64711   0.38942   0.00000  Uiso   1.00
H279   H     0.21692   0.34378   0.43582   0.00000  Uiso   1.00
H280   H     0.33198   0.55657   0.46996   0.00000  Uiso   1.00
H281   H     0.25448   0.62664   0.44424   0.00000  Uiso   1.00
H282   H     0.29148   0.34558   0.31177   0.00000  Uiso   1.00
H283   H     0.21061   0.64445   0.32590   0.00000  Uiso   1.00
H284   H     0.17452   0.39622   0.33959   0.00000  Uiso   1.00
H285   H     0.22783   0.39240   0.37255   0.00000  Uiso   1.00
H286   H     0.25697   0.43073   0.32455   0.00000  Uiso   1.00
H287   H     0.15636   0.64363   0.17113   0.00000  Uiso   1.00
H288   H     0.09916   0.35159   0.17668   0.00000  Uiso   1.00
H289   H     0.01260   0.60834   0.18204   0.00000  Uiso   1.00
H290   H     0.07716   0.59996   0.13451   0.00000  Uiso   1.00
H291   H     0.31996   0.55362   0.12058   0.00000  Uiso   1.00
H292   H     0.06560   0.56583   0.18324   0.00000  Uiso   1.00
H293   H     0.01340   0.44005   0.37664   0.00000  Uiso   1.00
H294   H     0.31289   0.42104   0.45477   0.00000  Uiso   1.00
H295   H     0.02033   0.56965   0.04218   0.00000  Uiso   1.00
H296   H     0.07004   0.46528   0.07470   0.00000  Uiso   1.00
H297   H     0.26128   0.52433   0.42366   0.00000  Uiso   1.00
H298   H     0.00116   0.53867   0.28455   0.00000  Uiso   1.00
N299   N     0.31506   0.51401   0.26212   0.00000  Uiso   1.00
N300   N     0.01827   0.48599   0.23788   0.00000  Uiso   1.00
O301   O     0.12815   0.57142   0.24686   0.00000  Uiso   1.00
O302   O     0.19175   0.55376   0.39518   0.00000  Uiso   1.00
O303   O     0.24294   0.35223   0.26650   0.00000  Uiso   1.00
O304   O     0.09249   0.64846   0.23329   0.00000  Uiso   1.00
O305   O     0.20518   0.42858   0.25314   0.00000  Uiso   1.00
O306   O     0.22829   0.58086   0.25502   0.00000  Uiso   1.00
O307   O     0.10504   0.41914   0.24498   0.00000  Uiso   1.00
O308   O     0.08851   0.49263   0.30855   0.00000  Uiso   1.00
O309   O     0.24482   0.50737   0.19145   0.00000  Uiso   1.00
O310   O     0.18866   0.50207   0.31671   0.00000  Uiso   1.00
O311   O     0.14468   0.49793   0.18329   0.00000  Uiso   1.00
O312   O     0.14013   0.44155   0.10593   0.00000  Uiso   1.00
C313   C     0.51431   0.59989   0.25251   0.00000  Uiso   1.00
C314   C     0.53854   0.50249   0.16667   0.00000  Uiso   1.00
C315   C     0.43718   0.48919   0.38065   0.00000  Uiso   1.00
C316   C     0.56168   0.50701   0.11875   0.00000  Uiso   1.00
C317   C     0.35980   0.44450   0.44173   0.00000  Uiso   1.00
C318   C     0.63959   0.54741   0.05594   0.00000  Uiso   1.00
C319   C     0.37830   0.45643   0.39755   0.00000  Uiso   1.00
C320   C     0.62119   0.53755   0.10043   0.00000  Uiso   1.00
C321   C     0.47684   0.51082   0.40860   0.00000  Uiso   1.00
C322   C     0.52122   0.48433   0.09147   0.00000  Uiso   1.00
C323   C     0.46395   0.49106   0.45093   0.00000  Uiso   1.00
C324   C     0.48522   0.40021   0.24876   0.00000  Uiso   1.00
C325   C     0.53441   0.50149   0.04814   0.00000  Uiso   1.00
C326   C     0.40213   0.46163   0.46853   0.00000  Uiso   1.00
C327   C     0.59665   0.52991   0.02975   0.00000  Uiso   1.00
C328   C     0.50928   0.50150   0.47684   0.00000  Uiso   1.00
C329   C     0.48908   0.48983   0.02207   0.00000  Uiso   1.00
C330   C     0.49462   0.39544   0.08748   0.00000  Uiso   1.00
C331   C     0.43864   0.35439   0.07877   0.00000  Uiso   1.00
C332   C     0.50601   0.59941   0.41679   0.00000  Uiso   1.00
C333   C     0.56453   0.64007   0.42173   0.00000  Uiso   1.00
C334   C     0.57582   0.34719   0.31078   0.00000  Uiso   1.00
C335   C     0.42386   0.46886   0.03993   0.00000  Uiso   1.00
C336   C     0.55759   0.39462   0.33853   0.00000  Uiso   1.00
C337   C     0.43994   0.64823   0.18705   0.00000  Uiso   1.00
C338   C     0.39573   0.60272   0.17082   0.00000  Uiso   1.00
C339   C     0.57453   0.52150   0.45856   0.00000  Uiso   1.00
C340   C     0.38235   0.45182   0.01311   0.00000  Uiso   1.00
C341   C     0.61643   0.53840   0.48498   0.00000  Uiso   1.00
C342   C     0.52108   0.65576   0.25687   0.00000  Uiso   1.00
C343   C     0.47805   0.34461   0.24650   0.00000  Uiso   1.00
C344   C     0.46120   0.49649   0.33321   0.00000  Uiso   1.00
Cu345  Cu    0.44071   0.49441   0.24517   0.00000  Uiso   1.00
Cu346  Cu    0.55929   0.50559   0.25483   0.00000  Uiso   1.00
H347   H     0.33364   0.43288   0.02773   0.00000  Uiso   1.00
H348   H     0.66552   0.46135   0.21544   0.00000  Uiso   1.00
H349   H     0.51495   0.38055   0.11108   0.00000  Uiso   1.00
H350   H     0.53188   0.40071   0.05574   0.00000  Uiso   1.00
H351   H     0.42253   0.36588   0.05149   0.00000  Uiso   1.00
H352   H     0.45346   0.64987   0.06913   0.00000  Uiso   1.00
H353   H     0.39828   0.34975   0.10850   0.00000  Uiso   1.00
H354   H     0.47378   0.59306   0.45037   0.00000  Uiso   1.00
H355   H     0.48069   0.61519   0.39686   0.00000  Uiso   1.00
H356   H     0.59928   0.64711   0.38942   0.00000  Uiso   1.00
H357   H     0.55025   0.34378   0.43582   0.00000  Uiso   1.00
H358   H     0.66532   0.55657   0.46996   0.00000  Uiso   1.00
H359   H     0.58781   0.62664   0.44424   0.00000  Uiso   1.00
H360   H     0.62481   0.34558   0.31177   0.00000  Uiso   1.00
H361   H     0.54394   0.64445   0.32590   0.00000  Uiso   1.00
H362   H     0.50785   0.39622   0.33959   0.00000  Uiso   1.00
H363   H     0.56116   0.39240   0.37255   0.00000  Uiso   1.00
H364   H     0.59031   0.43073   0.32455   0.00000  Uiso   1.00
H365   H     0.48970   0.64363   0.17113   0.00000  Uiso   1.00
H366   H     0.43250   0.35159   0.17668   0.00000  Uiso   1.00
H367   H     0.34593   0.60834   0.18204   0.00000  Uiso   1.00
H368   H     0.41049   0.59996   0.13451   0.00000  Uiso   1.00
H369   H     0.65329   0.55362   0.12058   0.00000  Uiso   1.00
H370   H     0.39894   0.56583   0.18324   0.00000  Uiso   1.00
H371   H     0.34674   0.44005   0.37664   0.00000  Uiso   1.00
H372   H     0.64622   0.42104   0.45477   0.00000  Uiso   1.00
H373   H     0.35367   0.56965   0.04218   0.00000  Uiso   1.00
H374   H     0.40337   0.46528   0.07470   0.00000  Uiso   1.00
H375   H     0.59461   0.52433   0.42366   0.00000  Uiso   1.00
H376   H     0.33449   0.53867   0.28455   0.00000  Uiso   1.00
N377   N     0.64839   0.51401   0.26212   0.00000  Uiso   1.00
N378   N     0.35161   0.48599   0.23788   0.00000  Uiso   1.00
O379   O     0.46148   0.57142   0.24686   0.00000  Uiso   1.00
O380   O     0.52509   0.55376   0.39518   0.00000  Uiso   1.00
O381   O     0.57627   0.35223   0.26650   0.00000  Uiso   1.00
O382   O     0.42582   0.64846   0.23329   0.00000  Uiso   1.00
O383   O     0.53852   0.42858   0.25314   0.00000  Uiso   1.00
O384   O     0.56163   0.58086   0.25502   0.00000  Uiso   1.00
O385   O     0.43837   0.41914   0.24498   0.00000  Uiso   1.00
O386   O     0.42185   0.49263   0.30855   0.00000  Uiso   1.00
O387   O     0.57815   0.50737   0.19145   0.00000  Uiso   1.00
O388   O     0.52199   0.50207   0.31671   0.00000  Uiso   1.00
O389   O     0.47801   0.49793   0.18329   0.00000  Uiso   1.00
O390   O     0.47346   0.44155   0.10593   0.00000  Uiso   1.00
C391   C     0.84765   0.59989   0.25251   0.00000  Uiso   1.00
C392   C     0.87187   0.50249   0.16667   0.00000  Uiso   1.00
C393   C     0.77051   0.48919   0.38065   0.00000  Uiso   1.00
C394   C     0.89501   0.50701   0.11875   0.00000  Uiso   1.00
C395   C     0.69314   0.44450   0.44173   0.00000  Uiso   1.00
C396   C     0.97293   0.54741   0.05594   0.00000  Uiso   1.00
C397   C     0.71163   0.45643   0.39755   0.00000  Uiso   1.00
C398   C     0.95452   0.53755   0.10043   0.00000  Uiso   1.00
C399   C     0.81018   0.51082   0.40860   0.00000  Uiso   1.00
C400   C     0.85455   0.48433   0.09147   0.00000  Uiso   1.00
C401   C     0.79728   0.49106   0.45093   0.00000  Uiso   1.00
C402   C     0.81856   0.40021   0.24876   0.00000  Uiso   1.00
C403   C     0.86774   0.50149   0.04814   0.00000  Uiso   1.00
C404   C     0.73546   0.46163   0.46853   0.00000  Uiso   1.00
C405   C     0.92998   0.52991   0.02975   0.00000  Uiso   1.00
C406   C     0.84262   0.50150   0.47684   0.00000  Uiso   1.00
C407   C     0.82241   0.48983   0.02207   0.00000  Uiso   1.00
C408   C     0.82796   0.39544   0.08748   0.00000  Uiso   1.00
C409   C     0.77197   0.35439   0.07877   0.00000  Uiso   1.00
C410   C     0.83934   0.59941   0.41679   0.00000  Uiso   1.00
C411   C     0.89786   0.64007   0.42173   0.00000  Uiso   1.00
C412   C     0.90915   0.34719   0.31078   0.00000  Uiso   1.00
C413   C     0.75720   0.46886   0.03993   0.00000  Uiso   1.00
C414   C     0.89092   0.39462   0.33853   0.00000  Uiso   1.00
C415   C     0.77327   0.64823   0.18705   0.00000  Uiso   1.00
C416   C     0.72907   0.60272   0.17082   0.00000  Uiso   1.00
C417   C     0.90786   0.52150   0.45856   0.00000  Uiso   1.00
C418   C     0.71568   0.45182   0.01311   0.00000  Uiso   1.00
C419   C     0.94976   0.53840   0.48498   0.00000  Uiso   1.00
C420   C     0.85441   0.65576   0.25687   0.00000  Uiso   1.00
C421   C     0.81138   0.34461   0.24650   0.00000  Uiso   1.00
C422   C     0.79453   0.49649   0.33321   0.00000  Uiso   1.00
Cu423  Cu    0.77404   0.49441   0.24517   0.00000  Uiso   1.00
Cu424  Cu    0.89263   0.50559   0.25483   0.00000  Uiso   1.00
H425   H     0.66697   0.43288   0.02773   0.00000  Uiso   1.00
H426   H     0.99885   0.46135   0.21544   0.00000  Uiso   1.00
H427   H     0.84829   0.38055   0.11108   0.00000  Uiso   1.00
H428   H     0.86521   0.40071   0.05574   0.00000  Uiso   1.00
H429   H     0.75586   0.36588   0.05149   0.00000  Uiso   1.00
H430   H     0.78679   0.64987   0.06913   0.00000  Uiso   1.00
H431   H     0.73162   0.34975   0.10850   0.00000  Uiso   1.00
H432   H     0.80711   0.59306   0.45037   0.00000  Uiso   1.00
H433   H     0.81402   0.61519   0.39686   0.00000  Uiso   1.00
H434   H     0.93261   0.64711   0.38942   0.00000  Uiso   1.00
H435   H     0.88359   0.34378   0.43582   0.00000  Uiso   1.00
H436   H     0.99865   0.55657   0.46996   0.00000  Uiso   1.00
H437   H     0.92115   0.62664   0.44424   0.00000  Uiso   1.00
H438   H     0.95814   0.34558   0.31177   0.00000  Uiso   1.00
H439   H     0.87728   0.64445   0.32590   0.00000  Uiso   1.00
H440   H     0.84119   0.39622   0.33959   0.00000  Uiso   1.00
H441   H     0.89449   0.39240   0.37255   0.00000  Uiso   1.00
H442   H     0.92364   0.43073   0.32455   0.00000  Uiso   1.00
H443   H     0.82303   0.64363   0.17113   0.00000  Uiso   1.00
H444   H     0.76583   0.35159   0.17668   0.00000  Uiso   1.00
H445   H     0.67926   0.60834   0.18204   0.00000  Uiso   1.00
H446   H     0.74383   0.59996   0.13451   0.00000  Uiso   1.00
H447   H     0.98662   0.55362   0.12058   0.00000  Uiso   1.00
H448   H     0.73227   0.56583   0.18324   0.00000  Uiso   1.00
H449   H     0.68007   0.44005   0.37664   0.00000  Uiso   1.00
H450   H     0.97956   0.42104   0.45477   0.00000  Uiso   1.00
H451   H     0.68700   0.56965   0.04218   0.00000  Uiso   1.00
H452   H     0.73670   0.46528   0.07470   0.00000  Uiso   1.00
H453   H     0.92794   0.52433   0.42366   0.00000  Uiso   1.00
H454   H     0.66782   0.53867   0.28455   0.00000  Uiso   1.00
N455   N     0.98173   0.51401   0.26212   0.00000  Uiso   1.00
N456   N     0.68494   0.48599   0.23788   0.00000  Uiso   1.00
O457   O     0.79482   0.57142   0.24686   0.00000  Uiso   1.00
O458   O     0.85842   0.55376   0.39518   0.00000  Uiso   1.00
O459   O     0.90961   0.35223   0.26650   0.00000  Uiso   1.00
O460   O     0.75916   0.64846   0.23329   0.00000  Uiso   1.00
O461   O     0.87185   0.42858   0.25314   0.00000  Uiso   1.00
O462   O     0.89496   0.58086   0.25502   0.00000  Uiso   1.00
O463   O     0.77171   0.41914   0.24498   0.00000  Uiso   1.00
O464   O     0.75518   0.49263   0.30855   0.00000  Uiso   1.00
O465   O     0.91149   0.50737   0.19145   0.00000  Uiso   1.00
O466   O     0.85532   0.50207   0.31671   0.00000  Uiso   1.00
O467   O     0.81134   0.49793   0.18329   0.00000  Uiso   1.00
O468   O     0.80680   0.44155   0.10593   0.00000  Uiso   1.00
C469   C     0.18098   0.93322   0.25251   0.00000  Uiso   1.00
C470   C     0.20521   0.83583   0.16667   0.00000  Uiso   1.00
C471   C     0.10384   0.82252   0.38065   0.00000  Uiso   1.00
C472   C     0.22835   0.84034   0.11875   0.00000  Uiso   1.00
C473   C     0.02647   0.77784   0.44173   0.00000  Uiso   1.00
C474   C     0.30626   0.88074   0.05594   0.00000  Uiso   1.00
C475   C     0.04496   0.78977   0.39755   0.00000  Uiso   1.00
C476   C     0.28785   0.87088   0.10043   0.00000  Uiso   1.00
C477   C     0.14351   0.84416   0.40860   0.00000  Uiso   1.00
C478   C     0.18789   0.81767   0.09147   0.00000  Uiso   1.00
C479   C     0.13062   0.82439   0.45093   0.00000  Uiso   1.00
C480   C     0.15189   0.73355   0.24876   0.00000  Uiso   1.00
C481   C     0.20107   0.83482   0.04814   0.00000  Uiso   1.00
C482   C     0.06880   0.79497   0.46853   0.00000  Uiso   1.00
C483   C     0.26331   0.86324   0.02975   0.00000  Uiso   1.00
C484   C     0.17595   0.83483   0.47684   0.00000  Uiso   1.00
C485   C     0.15574   0.82316   0.02207   0.00000  Uiso   1.00
C486   C     0.16129   0.72877   0.08748   0.00000  Uiso   1.00
C487   C     0.10531   0.68772   0.07877   0.00000  Uiso   1.00
C488   C     0.17267   0.93274   0.41679   0.00000  Uiso   1.00
C489   C     0.23120   0.97340   0.42173   0.00000  Uiso   1.00
C490   C     0.24249   0.68052   0.31078   0.00000  Uiso   1.00
C491   C     0.09053   0.80220   0.03993   0.00000  Uiso   1.00
C492   C     0.22426   0.72795   0.33853   0.00000  Uiso   1.00
C493   C     0.10661   0.98156   0.18705   0.00000  Uiso   1.00
C494   C     0.06240   0.93606   0.17082   0.00000  Uiso   1.00
C495   C     0.24119   0.85484   0.45856   0.00000  Uiso   1.00
C496   C     0.04902   0.78516   0.01311   0.00000  Uiso   1.00
C497   C     0.28310   0.87173   0.48498   0.00000  Uiso   1.00
C498   C     0.18775   0.98910   0.25687   0.00000  Uiso   1.00
C499   C     0.14472   0.67795   0.24650   0.00000  Uiso   1.00
C500   C     0.12787   0.82982   0.33321   0.00000  Uiso   1.00
Cu501  Cu    0.10737   0.82775   0.24517   0.00000  Uiso   1.00
Cu502  Cu    0.22596   0.83892   0.25483   0.00000  Uiso   1.00
H503   H     0.00030   0.76621   0.02773   0.00000  Uiso   1.00
H504   H     0.33218   0.79469   0.21544   0.00000  Uiso   1.00
H505   H     0.18162   0.71388   0.11108   0.00000  Uiso   1.00
H506   H     0.19855   0.73405   0.05574   0.00000  Uiso   1.00
H507   H     0.08919   0.69921   0.05149   0.00000  Uiso   1.00
H508   H     0.12012   0.98320   0.06913   0.00000  Uiso   1.00
H509   H     0.06495   0.68309   0.10850   0.00000  Uiso   1.00
H510   H     0.14044   0.92639   0.45037   0.00000  Uiso   1.00
H511   H     0.14736   0.94852   0.39686   0.00000  Uiso   1.00
H512   H     0.26595   0.98044   0.38942   0.00000  Uiso   1.00
H513   H     0.21692   0.67711   0.43582   0.00000  Uiso   1.00
H514   H     0.33198   0.88990   0.46996   0.00000  Uiso   1.00
H515   H     0.25448   0.95997   0.44424   0.00000  Uiso   1.00
H516   H     0.29148   0.67892   0.31177   0.00000  Uiso   1.00
H517   H     0.21061   0.97778   0.32590   0.00000  Uiso   1.00
H518   H     0.17452   0.72956   0.33959   0.00000  Uiso   1.00
H519   H     0.22783   0.72573   0.37255   0.00000  Uiso   1.00
H520   H     0.25697   0.76406   0.32455   0.00000  Uiso   1.00
H521   H     0.15636   0.97696   0.17113   0.00000  Uiso   1.00
H522   H     0.09916   0.68493   0.17668   0.00000  Uiso   1.00
H523   H     0.01260   0.94167   0.18204   0.00000  Uiso   1.00
H524   H     0.07716   0.93329   0.13451   0.00000  Uiso   1.00
H525   H     0.31996   0.88695   0.12058   0.00000  Uiso   1.00
H526   H     0.06560   0.89916   0.18324   0.00000  Uiso   1.00
H527   H     0.01340   0.77338   0.37664   0.00000  Uiso   1.00
H528   H     0.31289   0.75438   0.45477   0.00000  Uiso   1.00
H529   H     0.02033   0.90298   0.04218   0.00000  Uiso   1.00
H530   H     0.07004   0.79862   0.07470   0.00000  Uiso   1.00
H531   H     0.26128   0.85767   0.42366   0.00000  Uiso   1.00
H532   H     0.00116   0.87200   0.28455   0.00000  Uiso   1.00
N533   N     0.31506   0.84735   0.26212   0.00000  Uiso   1.00
N534   N     0.01827   0.81932   0.23788   0.00000  Uiso   1.00
O535   O     0.12815   0.90476   0.24686   0.00000  Uiso   1.00
O536   O     0.19175   0.88709   0.39518   0.00000  Uiso   1.00
O537   O     0.24294   0.68556   0.26650   0.00000  Uiso   1.00
O538   O     0.09249   0.98180   0.23329   0.00000  Uiso   1.00
O539   O     0.20518   0.76191   0.25314   0.00000  Uiso   1.00
O540   O     0.22829   0.91420   0.25502   0.00000  Uiso   1.00
O541   O     0.10504   0.75247   0.24498   0.00000  Uiso   1.00
O542   O     0.08851   0.82597   0.30855   0.00000  Uiso   1.00
O543   O     0.24482   0.84070   0.19145   0.00000  Uiso   1.00
O544   O     0.18866   0.83540   0.31671   0.00000  Uiso   1.00
O545   O     0.14468   0.83126   0.18329   0.00000  Uiso   1.00
O546   O     0.14013   0.77488   0.10593   0.00000  Uiso   1.00
C547   C     0.51431   0.93322   0.25251   0.00000  Uiso   1.00
C548   C     0.53854   0.83583   0.16667   0.00000  Uiso   1.00
C549   C     0.43718   0.82252   0.38065   0.00000  Uiso   1.00
C550   C     0.56168   0.84034   0.11875   0.00000  Uiso   1.00
C551   C     0.35980   0.77784   0.44173   0.00000  Uiso   1.00
C552   C     0.63959   0.88074   0.05594   0.00000  Uiso   1.00
C553   C     0.37830   0.78977   0.39755   0.00000  Uiso   1.00
C554   C     0.62119   0.87088   0.10043   0.00000  Uiso   1.00
C555   C     0.47684   0.84416   0.40860   0.00000  Uiso   1.00
C556   C     0.52122   0.81767   0.09147   0.00000  Uiso   1.00
C557   C     0.46395   0.82439   0.45093   0.00000  Uiso   1.00
C558   C     0.48522   0.73355   0.24876   0.00000  Uiso   1.00
C559   C     0.53441   0.83482   0.04814   0.00000  Uiso   1.00
C560   C     0.40213   0.79497   0.46853   0.00000  Uiso   1.00
C561   C     0.59665   0.86324   0.02975   0.00000  Uiso   1.00
C562   C     0.50928   0.83483   0.47684   0.00000  Uiso   1.00
C563   C     0.48908   0.82316   0.02207   0.00000  Uiso   1.00
C564   C     0.49462   0.72877   0.08748   0.00000  Uiso   1.00
C565   C     0.43864   0.68772   0.07877   0.00000  Uiso   1.00
C566   C     0.50601   0.93274   0.41679   0.00000  Uiso   1.00
C567   C     0.56453   0.97340   0.42173   0.00000  Uiso   1.00
C568   C     0.57582   0.68052   0.31078   0.00000  Uiso   1.00
C569   C     0.42386   0.80220   0.03993   0.00000  Uiso   1.00
C570   C     0.55759   0.72795   0.33853   0.00000  Uiso   1.00
C571   C     0.43994   0.98156   0.18705   0.00000  Uiso   1.00
C572   C     0.39573   0.93606   0.17082   0.00000  Uiso   1.00
C573   C     0.57453   0.85484   0.45856   0.00000  Uiso   1.00
C574   C     0.38235   0.78516   0.01311   0.00000  Uiso   1.00
C575   C     0.61643   0.87173   0.48498   0.00000  Uiso   1.00
C576   C     0.52108   0.98910   0.25687   0.00000  Uiso   1.00
C577   C     0.47805   0.67795   0.24650   0.00000  Uiso   1.00
C578   C     0.46120   0.82982   0.33321   0.00000  Uiso   1.00
Cu579  Cu    0.44071   0.82775   0.24517   0.00000  Uiso   1.00
Cu580  Cu    0.55929   0.83892   0.25483   0.00000  Uiso   1.00
H581   H     0.33364   0.76621   0.02773   0.00000  Uiso   1.00
H582   H     0.66552   0.79469   0.21544   0.00000  Uiso   1.00
H583   H     0.51495   0.71388   0.11108   0.00000  Uiso   1.00
H584   H     0.53188   0.73405   0.05574   0.00000  Uiso   1.00
H585   H     0.42253   0.69921   0.05149   0.00000  Uiso   1.00
H586   H     0.45346   0.98320   0.06913   0.00000  Uiso   1.00
H587   H     0.39828   0.68309   0.10850   0.00000  Uiso   1.00
H588   H     0.47378   0.92639   0.45037   0.00000  Uiso   1.00
H589   H     0.48069   0.94852   0.39686   0.00000  Uiso   1.00
H590   H     0.59928   0.98044   0.38942   0.00000  Uiso   1.00
H591   H     0.55025   0.67711   0.43582   0.00000  Uiso   1.00
H592   H     0.66532   0.88990   0.46996   0.00000  Uiso   1.00
H593   H     0.58781   0.95997   0.44424   0.00000  Uiso   1.00
H594   H     0.62481   0.67892   0.31177   0.00000  Uiso   1.00
H595   H     0.54394   0.97778   0.32590   0.00000  Uiso   1.00
H596   H     0.50785   0.72956   0.33959   0.00000  Uiso   1.00
H597   H     0.56116   0.72573   0.37255   0.00000  Uiso   1.00
H598   H     0.59031   0.76406   0.32455   0.00000  Uiso   1.00
H599   H     0.48970   0.97696   0.17113   0.00000  Uiso   1.00
H600   H     0.43250   0.68493   0.17668   0.00000  Uiso   1.00
H601   H     0.34593   0.94167   0.18204   0.00000  Uiso   1.00
H602   H     0.41049   0.93329   0.13451   0.00000  Uiso   1.00
H603   H     0.65329   0.88695   0.12058   0.00000  Uiso   1.00
H604   H     0.39894   0.89916   0.18324   0.00000  Uiso   1.00
H605   H     0.34674   0.77338   0.37664   0.00000  Uiso   1.00
H606   H     0.64622   0.75438   0.45477   0.00000  Uiso   1.00
H607   H     0.35367   0.90298   0.04218   0.00000  Uiso   1.00
H608   H     0.40337   0.79862   0.07470   0.00000  Uiso   1.00
H609   H     0.59461   0.85767   0.42366   0.00000  Uiso   1.00
H610   H     0.33449   0.87200   0.28455   0.00000  Uiso   1.00
N611   N     0.64839   0.84735   0.26212   0.00000  Uiso   1.00
N612   N     0.35161   0.81932   0.23788   0.00000  Uiso   1.00
O613   O     0.46148   0.90476   0.24686   0.00000  Uiso   1.00
O614   O     0.52509   0.88709   0.39518   0.00000  Uiso   1.00
O615   O     0.57627   0.68556   0.26650   0.00000  Uiso   1.00
O616   O     0.42582   0.98180   0.23329   0.00000  Uiso   1.00
O617   O     0.53852   0.76191   0.25314   0.00000  Uiso   1.00
O618   O     0.56163   0.91420   0.25502   0.00000  Uiso   1.00
O619   O     0.43837   0.75247   0.24498   0.00000  Uiso   1.00
O620   O     0.42185   0.82597   0.30855   0.00000  Uiso   1.00
O621   O     0.57815   0.84070   0.19145   0.00000  Uiso   1.00
O622   O     0.52199   0.83540   0.31671   0.00000  Uiso   1.00
O623   O     0.47801   0.83126   0.18329   0.00000  Uiso   1.00
O624   O     0.47346   0.77488   0.10593   0.00000  Uiso   1.00
C625   C     0.84765   0.93322   0.25251   0.00000  Uiso   1.00
C626   C     0.87187   0.83583   0.16667   0.00000  Uiso   1.00
C627   C     0.77051   0.82252   0.38065   0.00000  Uiso   1.00
C628   C     0.89501   0.84034   0.11875   0.00000  Uiso   1.00
C629   C     0.69314   0.77784   0.44173   0.00000  Uiso   1.00
C630   C     0.97293   0.88074   0.05594   0.00000  Uiso   1.00
C631   C     0.71163   0.78977   0.39755   0.00000  Uiso   1.00
C632   C     0.95452   0.87088   0.10043   0.00000  Uiso   1.00
C633   C     0.81018   0.84416   0.40860   0.00000  Uiso   1.00
C634   C     0.85455   0.81767   0.09147   0.00000  Uiso   1.00
C635   C     0.79728   0.82439   0.45093   0.00000  Uiso   1.00
C636   C     0.81856   0.73355   0.24876   0.00000  Uiso   1.00
C637   C     0.86774   0.83482   0.04814   0.00000  Uiso   1.00
C638   C     0.73546   0.79497   0.46853   0.00000  Uiso   1.00
C639   C     0.92998   0.86324   0.02975   0.00000  Uiso   1.00
C640   C     0.84262   0.83483   0.47684   0.00000  Uiso   1.00
C641   C     0.82241   0.82316   0.02207   0.00000  Uiso   1.00
C642   C     0.82796   0.72877   0.08748   0.00000  Uiso   1.00
C643   C     0.77197   0.68772   0.07877   0.00000  Uiso   1.00
C644   C     0.83934   0.93274   0.41679   0.00000  Uiso   1.00
C645   C     0.89786   0.97340   0.42173   0.00000  Uiso   1.00
C646   C     0.90915   0.68052   0.31078   0.00000  Uiso   1.00
C647   C     0.75720   0.80220   0.03993   0.00000  Uiso   1.00
C648   C     0.89092   0.72795   0.33853   0.00000  Uiso   1.00
C649   C     0.77327   0.98156   0.18705   0.00000  Uiso   1.00
C650   C     0.72907   0.93606   0.17082   0.00000  Uiso   1.00
C651   C     0.90786   0.85484   0.45856   0.00000  Uiso   1.00
C652   C     0.71568   0.78516   0.01311   0.00000  Uiso   1.00
C653   C     0.94976   0.87173   0.48498   0.00000  Uiso   1.00
C654   C     0.85441   0.98910   0.25687   0.00000  Uiso   1.00
C655   C     0.81138   0.67795   0.24650   0.00000  Uiso   1.00
C656   C     0.79453   0.82982   0.33321   0.00000  Uiso   1.00
Cu657  Cu    0.77404   0.82775   0.24517   0.00000  Uiso   1.00
Cu658  Cu    0.89263   0.83892   0.25483   0.00000  Uiso   1.00
H659   H     0.66697   0.76621   0.02773   0.00000  Uiso   1.00
H660   H     0.99885   0.79469   0.21544   0.00000  Uiso   1.00
H661   H     0.84829   0.71388   0.11108   0.00000  Uiso   1.00
H662   H     0.86521   0.73405   0.05574   0.00000  Uiso   1.00
H663   H     0.75586   0.69921   0.05149   0.00000  Uiso   1.00
H664   H     0.78679   0.98320   0.06913   0.00000  Uiso   1.00
H665   H     0.73162   0.68309   0.10850   0.00000  Uiso   1.00
H666   H     0.80711   0.92639   0.45037   0.00000  Uiso   1.00
H667   H     0.81402   0.94852   0.39686   0.00000  Uiso   1.00
H668   H     0.93261   0.98044   0.38942   0.00000  Uiso   1.00
H669   H     0.88359   0.67711   0.43582   0.00000  Uiso   1.00
H670   H     0.99865   0.88990   0.46996   0.00000  Uiso   1.00
H671   H     0.92115   0.95997   0.44424   0.00000  Uiso   1.00
H672   H     0.95814   0.67892   0.31177   0.00000  Uiso   1.00
H673   H     0.87728   0.97778   0.32590   0.00000  Uiso   1.00
H674   H     0.84119   0.72956   0.33959   0.00000  Uiso   1.00
H675   H     0.89449   0.72573   0.37255   0.00000  Uiso   1.00
H676   H     0.92364   0.76406   0.32455   0.00000  Uiso   1.00
H677   H     0.82303   0.97696   0.17113   0.00000  Uiso   1.00
H678   H     0.76583   0.68493   0.17668   0.00000  Uiso   1.00
H679   H     0.67926   0.94167   0.18204   0.00000  Uiso   1.00
H680   H     0.74383   0.93329   0.13451   0.00000  Uiso   1.00
H681   H     0.98662   0.88695   0.12058   0.00000  Uiso   1.00
H682   H     0.73227   0.89916   0.18324   0.00000  Uiso   1.00
H683   H     0.68007   0.77338   0.37664   0.00000  Uiso   1.00
H684   H     0.97956   0.75438   0.45477   0.00000  Uiso   1.00
H685   H     0.68700   0.90298   0.04218   0.00000  Uiso   1.00
H686   H     0.73670   0.79862   0.07470   0.00000  Uiso   1.00
H687   H     0.92794   0.85767   0.42366   0.00000  Uiso   1.00
H688   H     0.66782   0.87200   0.28455   0.00000  Uiso   1.00
N689   N     0.98173   0.84735   0.26212   0.00000  Uiso   1.00
N690   N     0.68494   0.81932   0.23788   0.00000  Uiso   1.00
O691   O     0.79482   0.90476   0.24686   0.00000  Uiso   1.00
O692   O     0.85842   0.88709   0.39518   0.00000  Uiso   1.00
O693   O     0.90961   0.68556   0.26650   0.00000  Uiso   1.00
O694   O     0.75916   0.98180   0.23329   0.00000  Uiso   1.00
O695   O     0.87185   0.76191   0.25314   0.00000  Uiso   1.00
O696   O     0.89496   0.91420   0.25502   0.00000  Uiso   1.00
O697   O     0.77171   0.75247   0.24498   0.00000  Uiso   1.00
O698   O     0.75518   0.82597   0.30855   0.00000  Uiso   1.00
O699   O     0.91149   0.84070   0.19145   0.00000  Uiso   1.00
O700   O     0.85532   0.83540   0.31671   0.00000  Uiso   1.00
O701   O     0.81134   0.83126   0.18329   0.00000  Uiso   1.00
O702   O     0.80680   0.77488   0.10593   0.00000  Uiso   1.00
C703   C     0.18098   0.26656   0.75251   0.00000  Uiso   1.00
C704   C     0.20521   0.16916   0.66667   0.00000  Uiso   1.00
C705   C     0.10384   0.15586   0.88065   0.00000  Uiso   1.00
C706   C     0.22835   0.17368   0.61875   0.00000  Uiso   1.00
C707   C     0.02647   0.11117   0.94173   0.00000  Uiso   1.00
C708   C     0.30626   0.21408   0.55594   0.00000  Uiso   1.00
C709   C     0.04496   0.12310   0.89755   0.00000  Uiso   1.00
C710   C     0.28785   0.20422   0.60043   0.00000  Uiso   1.00
C711   C     0.14351   0.17749   0.90860   0.00000  Uiso   1.00
C712   C     0.18789   0.15100   0.59147   0.00000  Uiso   1.00
C713   C     0.13062   0.15773   0.95093   0.00000  Uiso   1.00
C714   C     0.15189   0.06688   0.74876   0.00000  Uiso   1.00
C715   C     0.20107   0.16815   0.54814   0.00000  Uiso   1.00
C716   C     0.06880   0.12830   0.96853   0.00000  Uiso   1.00
C717   C     0.26331   0.19657   0.52975   0.00000  Uiso   1.00
C718   C     0.17595   0.16817   0.97684   0.00000  Uiso   1.00
C719   C     0.15574   0.15650   0.52207   0.00000  Uiso   1.00
C720   C     0.16129   0.06210   0.58748   0.00000  Uiso   1.00
C721   C     0.10531   0.02105   0.57877   0.00000  Uiso   1.00
C722   C     0.17267   0.26608   0.91679   0.00000  Uiso   1.00
C723   C     0.23120   0.30673   0.92173   0.00000  Uiso   1.00
C724   C     0.24249   0.01385   0.81078   0.00000  Uiso   1.00
C725   C     0.09053   0.13553   0.53993   0.00000  Uiso   1.00
C726   C     0.22426   0.06128   0.83853   0.00000  Uiso   1.00
C727   C     0.10661   0.31489   0.68705   0.00000  Uiso   1.00
C728   C     0.06240   0.26939   0.67082   0.00000  Uiso   1.00
C729   C     0.24119   0.18817   0.95856   0.00000  Uiso   1.00
C730   C     0.04902   0.11849   0.51311   0.00000  Uiso   1.00
C731   C     0.28310   0.20506   0.98498   0.00000  Uiso   1.00
C732   C     0.18775   0.32243   0.75687   0.00000  Uiso   1.00
C733   C     0.14472   0.01128   0.74650   0.00000  Uiso   1.00
C734   C     0.12787   0.16315   0.83321   0.00000  Uiso   1.00
Cu735  Cu    0.10737   0.16108   0.74517   0.00000  Uiso   1.00
Cu736  Cu    0.22596   0.17225   0.75483   0.00000  Uiso   1.00
H737   H     0.00030   0.09954   0.52773   0.00000  Uiso   1.00
H738   H     0.33218   0.12802   0.71544   0.00000  Uiso   1.00
H739   H     0.18162   0.04722   0.61108   0.00000  Uiso   1.00
H740   H     0.19855   0.06738   0.55574   0.00000  Uiso   1.00
H741   H     0.08919   0.03255   0.55149   0.00000  Uiso   1.00
H742   H     0.12012   0.31654   0.56913   0.00000  Uiso   1.00
H743   H     0.06495   0.01642   0.60850   0.00000  Uiso   1.00
H744   H     0.14044   0.25972   0.95037   0.00000  Uiso   1.00
H745   H     0.14736   0.28186   0.89686   0.00000  Uiso   1.00
H746   H     0.26595   0.31378   0.88942   0.00000  Uiso   1.00
H747   H     0.21692   0.01044   0.93582   0.00000  Uiso   1.00
H748   H     0.33198   0.22324   0.96996   0.00000  Uiso   1.00
H749   H     0.25448   0.29330   0.94424   0.00000  Uiso   1.00
H750   H     0.29148   0.01225   0.81177   0.00000  Uiso   1.00
H751   H     0.21061   0.31112   0.82590   0.00000  Uiso   1.00
H752   H     0.17452   0.06289   0.83959   0.00000  Uiso   1.00
H753   H     0.22783   0.05906   0.87255   0.00000  Uiso   1.00
H754   H     0.25697   0.09740   0.82455   0.00000  Uiso   1.00
H755   H     0.15636   0.31030   0.67113   0.00000  Uiso   1.00
H756   H     0.09916   0.01826   0.67668   0.00000  Uiso   1.00
H757   H     0.01260   0.27500   0.68204   0.00000  Uiso   1.00
H758   H     0.07716   0.26663   0.63451   0.00000  Uiso   1.00
H759   H     0.31996   0.22029   0.62058   0.00000  Uiso   1.00
H760   H     0.06560   0.23250   0.68324   0.00000  Uiso   1.00
H761   H     0.01340   0.10671   0.87664   0.00000  Uiso   1.00
H762   H     0.31289   0.08771   0.95477   0.00000  Uiso   1.00
H763   H     0.02033   0.23631   0.54218   0.00000  Uiso   1.00
H764   H     0.07004   0.13195   0.57470   0.00000  Uiso   1.00
H765   H     0.26128   0.19100   0.92366   0.00000  Uiso   1.00
H766   H     0.00116   0.20534   0.78455   0.00000  Uiso   1.00
N767   N     0.31506   0.18068   0.76212   0.00000  Uiso   1.00
N768   N     0.01827   0.15265   0.73788   0.00000  Uiso   1.00
O769   O     0.12815   0.23809   0.74686   0.00000  Uiso   1.00
O770   O     0.19175   0.22043   0.89518   0.00000  Uiso   1.00
O771   O     0.24294   0.01890   0.76650   0.00000  Uiso   1.00
O772   O     0.09249   0.31513   0.73329   0.00000  Uiso   1.00
O773   O     0.20518   0.09524   0.75314   0.00000  Uiso   1.00
O774   O     0.22829   0.24753   0.75502   0.00000  Uiso   1.00
O775   O     0.10504   0.08580   0.74498   0.00000  Uiso   1.00
O776   O     0.08851   0.15930   0.80855   0.00000  Uiso   1.00
O777   O     0.24482   0.17403   0.69145   0.00000  Uiso   1.00
O778   O     0.18866   0.16874   0.81671   0.00000  Uiso   1.00
O779   O     0.14468   0.16460   0.68329   0.00000  Uiso   1.00
O780   O     0.14013   0.10821   0.60593   0.00000  Uiso   1.00
C781   C     0.51431   0.26656   0.75251   0.00000  Uiso   1.00
C782   C     0.53854   0.16916   0.66667   0.00000  Uiso   1.00
C783   C     0.43718   0.15586   0.88065   0.00000  Uiso   1.00
C784   C     0.56168   0.17368   0.61875   0.00000  Uiso   1.00
C785   C     0.35980   0.11117   0.94173   0.00000  Uiso   1.00
C786   C     0.63959   0.21408   0.55594   0.00000  Uiso   1.00
C787   C     0.37830   0.12310   0.89755   0.00000  Uiso   1.00
C788   C     0.62119   0.20422   0.60043   0.00000  Uiso   1.00
C789   C     0.47684   0.17749   0.90860   0.00000  Uiso   1.00
C790   C     0.52122   0.15100   0.59147   0.00000  Uiso   1.00
C791   C     0.46395   0.15773   0.95093   0.00000  Uiso   1.00
C792   C     0.48522   0.06688   0.74876   0.00000  Uiso   1.00
C793   C     0.53441   0.16815   0.54814   0.00000  Uiso   1.00
C794   C     0.40213   0.12830   0.96853   0.00000  Uiso   1.00
C795   C     0.59665   0.19657   0.52975   0.00000  Uiso   1.00
C796   C     0.50928   0.16817   0.97684   0.00000  Uiso   1.00
C797   C     0.48908   0.15650   0.52207   0.00000  Uiso   1.00
C798   C     0.49462   0.06210   0.58748   0.00000  Uiso   1.00
C799   C     0.43864   0.02105   0.57877   0.00000  Uiso   1.00
C800   C     0.50601   0.26608   0.91679   0.00000  Uiso   1.00
C801   C     0.56453   0.30673   0.92173   0.00000  Uiso   1.00
C802   C     0.57582   0.01385   0.81078   0.00000  Uiso   1.00
C803   C     0.42386   0.13553   0.53993   0.00000  Uiso   1.00
C804   C     0.55759   0.06128   0.83853   0.00000  Uiso   1.00
C805   C     0.43994   0.31489   0.68705   0.00000  Uiso   1.00
C806   C     0.39573   0.26939   0.67082   0.00000  Uiso   1.00
C807   C     0.57453   0.18817   0.95856   0.00000  Uiso   1.00
C808   C     0.38235   0.11849   0.51311   0.00000  Uiso   1.00
C809   C     0.61643   0.20506   0.98498   0.00000  Uiso   1.00
C810   C     0.52108   0.32243   0.75687   0.00000  Uiso   1.00
C811   C     0.47805   0.01128   0.74650   0.00000  Uiso   1.00
C812   C     0.46120   0.16315   0.83321   0.00000  Uiso   1.00
Cu813  Cu    0.44071   0.16108   0.74517   0.00000  Uiso   1.00
Cu814  Cu    0.55929   0.17225   0.75483   0.00000  Uiso   1.00
H815   H     0.33364   0.09954   0.52773   0.00000  Uiso   1.00
H816   H     0.66552   0.12802   0.71544   0.00000  Uiso   1.00
H817   H     0.51495   0.04722   0.61108   0.00000  Uiso   1.00
H818   H     0.53188   0.06738   0.55574   0.00000  Uiso   1.00
H819   H     0.42253   0.03255   0.55149   0.00000  Uiso   1.00
H820   H     0.45346   0.31654   0.56913   0.00000  Uiso   1.00
H821   H     0.39828   0.01642   0.60850   0.00000  Uiso   1.00
H822   H     0.47378   0.25972   0.95037   0.00000  Uiso   1.00
H823   H     0.48069   0.28186   0.89686   0.00000  Uiso   1.00
H824   H     0.59928   0.31378   0.88942   0.00000  Uiso   1.00
H825   H     0.55025   0.01044   0.93582   0.00000  Uiso   1.00
H826   H     0.66532   0.22324   0.96996   0.00000  Uiso   1.00
H827   H     0.58781   0.29330   0.94424   0.00000  Uiso   1.00
H828   H     0.62481   0.01225   0.81177   0.00000  Uiso   1.00
H829   H     0.54394   0.31112   0.82590   0.00000  Uiso   1.00
H830   H     0.50785   0.06289   0.83959   0.00000  Uiso   1.00
H831   H     0.56116   0.05906   0.87255   0.00000  Uiso   1.00
H832   H     0.59031   0.09740   0.82455   0.00000  Uiso   1.00
H833   H     0.48970   0.31030   0.67113   0.00000  Uiso   1.00
H834   H     0.43250   0.01826   0.67668   0.00000  Uiso   1.00
H835   H     0.34593   0.27500   0.68204   0.00000  Uiso   1.00
H836   H     0.41049   0.26663   0.63451   0.00000  Uiso   1.00
H837   H     0.65329   0.22029   0.62058   0.00000  Uiso   1.00
H838   H     0.39894   0.23250   0.68324   0.00000  Uiso   1.00
H839   H     0.34674   0.10671   0.87664   0.00000  Uiso   1.00
H840   H     0.64622   0.08771   0.95477   0.00000  Uiso   1.00
H841   H     0.35367   0.23631   0.54218   0.00000  Uiso   1.00
H842   H     0.40337   0.13195   0.57470   0.00000  Uiso   1.00
H843   H     0.59461   0.19100   0.92366   0.00000  Uiso   1.00
H844   H     0.33449   0.20534   0.78455   0.00000  Uiso   1.00
N845   N     0.64839   0.18068   0.76212   0.00000  Uiso   1.00
N846   N     0.35161   0.15265   0.73788   0.00000  Uiso   1.00
O847   O     0.46148   0.23809   0.74686   0.00000  Uiso   1.00
O848   O     0.52509   0.22043   0.89518   0.00000  Uiso   1.00
O849   O     0.57627   0.01890   0.76650   0.00000  Uiso   1.00
O850   O     0.42582   0.31513   0.73329   0.00000  Uiso   1.00
O851   O     0.53852   0.09524   0.75314   0.00000  Uiso   1.00
O852   O     0.56163   0.24753   0.75502   0.00000  Uiso   1.00
O853   O     0.43837   0.08580   0.74498   0.00000  Uiso   1.00
O854   O     0.42185   0.15930   0.80855   0.00000  Uiso   1.00
O855   O     0.57815   0.17403   0.69145   0.00000  Uiso   1.00
O856   O     0.52199   0.16874   0.81671   0.00000  Uiso   1.00
O857   O     0.47801   0.16460   0.68329   0.00000  Uiso   1.00
O858   O     0.47346   0.10821   0.60593   0.00000  Uiso   1.00
C859   C     0.84765   0.26656   0.75251   0.00000  Uiso   1.00
C860   C     0.87187   0.16916   0.66667   0.00000  Uiso   1.00
C861   C     0.77051   0.15586   0.88065   0.00000  Uiso   1.00
C862   C     0.89501   0.17368   0.61875   0.00000  Uiso   1.00
C863   C     0.69314   0.11117   0.94173   0.00000  Uiso   1.00
C864   C     0.97293   0.21408   0.55594   0.00000  Uiso   1.00
C865   C     0.71163   0.12310   0.89755   0.00000  Uiso   1.00
C866   C     0.95452   0.20422   0.60043   0.00000  Uiso   1.00
C867   C     0.81018   0.17749   0.90860   0.00000  Uiso   1.00
C868   C     0.85455   0.15100   0.59147   0.00000  Uiso   1.00
C869   C     0.79728   0.15773   0.95093   0.00000  Uiso   1.00
C870   C     0.81856   0.06688   0.74876   0.00000  Uiso   1.00
C871   C     0.86774   0.16815   0.54814   0.00000  Uiso   1.00
C872   C     0.73546   0.12830   0.96853   0.00000  Uiso   1.00
C873   C     0.92998   0.19657   0.52975   0.00000  Uiso   1.00
C874   C     0.84262   0.16817   0.97684   0.00000  Uiso   1.00
C875   C     0.82241   0.15650   0.52207   0.00000  Uiso   1.00
C876   C     0.82796   0.06210   0.58748   0.00000  Uiso   1.00
C877   C     0.77197   0.02105   0.57877   0.00000  Uiso   1.00
C878   C     0.83934   0.26608   0.91679   0.00000  Uiso   1.00
C879   C     0.89786   0.30673   0.92173   0.00000  Uiso   1.00
C880   C     0.90915   0.01385   0.81078   0.00000  Uiso   1.00
C881   C     0.75720   0.13553   0.53993   0.00000  Uiso   1.00
C882   C     0.89092   0.06128   0.83853   0.00000  Uiso   1.00
C883   C     0.77327   0.31489   0.68705   0.00000  Uiso   1.00
C884   C     0.72907   0.26939   0.67082   0.00000  Uiso   1.00
C885   C     0.90786   0.18817   0.95856   0.00000  Uiso   1.00
C886   C     0.71568   0.11849   0.51311   0.00000  Uiso   1.00
C887   C     0.94976   0.20506   0.98498   0.00000  Uiso   1.00
C888   C     0.85441   0.32243   0.75687   0.00000  Uiso   1.00
C889   C     0.81138   0.01128   0.74650   0.00000  Uiso   1.00
C890   C     0.79453   0.16315   0.83321   0.00000  Uiso   1.00
Cu891  Cu    0.77404   0.16108   0.74517   0.00000  Uiso   1.00
Cu892  Cu    0.89263   0.17225   0.75483   0.00000  Uiso   1.00
H893   H     0.66697   0.09954   0.52773   0.00000  Uiso   1.00
H894   H     0.99885   0.12802   0.71544   0.00000  Uiso   1.00
H895   H     0.84829   0.04722   0.61108   0.00000  Uiso   1.00
H896   H     0.86521   0.06738   0.55574   0.00000  Uiso   1.00
H897   H     0.75586   0.03255   0.55149   0.00000  Uiso   1.00
H898   H     0.78679   0.31654   0.56913   0.00000  Uiso   1.00
H899   H     0.73162   0.01642   0.60850   0.00000  Uiso   1.00
H900   H     0.80711   0.25972   0.95037   0.00000  Uiso   1.00
H901   H     0.81402   0.28186   0.89686   0.00000  Uiso   1.00
H902   H     0.93261   0.31378   0.88942   0.00000  Uiso   1.00
H903   H     0.88359   0.01044   0.93582   0.00000  Uiso   1.00
H904   H     0.99865   0.22324   0.96996   0.00000  Uiso   1.00
H905   H     0.92115   0.29330   0.94424   0.00000  Uiso   1.00
H906   H     0.95814   0.01225   0.81177   0.00000  Uiso   1.00
H907   H     0.87728   0.31112   0.82590   0.00000  Uiso   1.00
H908   H     0.84119   0.06289   0.83959   0.00000  Uiso   1.00
H909   H     0.89449   0.05906   0.87255   0.00000  Uiso   1.00
H910   H     0.92364   0.09740   0.82455   0.00000  Uiso   1.00
H911   H     0.82303   0.31030   0.67113   0.00000  Uiso   1.00
H912   H     0.76583   0.01826   0.67668   0.00000  Uiso   1.00
H913   H     0.67926   0.27500   0.68204   0.00000  Uiso   1.00
H914   H     0.74383   0.26663   0.63451   0.00000  Uiso   1.00
H915   H     0.98662   0.22029   0.62058   0.00000  Uiso   1.00
H916   H     0.73227   0.23250   0.68324   0.00000  Uiso   1.00
H917   H     0.68007   0.10671   0.87664   0.00000  Uiso   1.00
H918   H     0.97956   0.08771   0.95477   0.00000  Uiso   1.00
H919   H     0.68700   0.23631   0.54218   0.00000  Uiso   1.00
H920   H     0.73670   0.13195   0.57470   0.00000  Uiso   1.00
H921   H     0.92794   0.19100   0.92366   0.00000  Uiso   1.00
H922   H     0.66782   0.20534   0.78455   0.00000  Uiso   1.00
N923   N     0.98173   0.18068   0.76212   0.00000  Uiso   1.00
N924   N     0.68494   0.15265   0.73788   0.00000  Uiso   1.00
O925   O     0.79482   0.23809   0.74686   0.00000  Uiso   1.00
O926   O     0.85842   0.22043   0.89518   0.00000  Uiso   1.00
O927   O     0.90961   0.01890   0.76650   0.00000  Uiso   1.00
O928   O     0.75916   0.31513   0.73329   0.00000  Uiso   1.00
O929   O     0.87185   0.09524   0.75314   0.00000  Uiso   1.00
O930   O     0.89496   0.24753   0.75502   0.00000  Uiso   1.00
O931   O     0.77171   0.08580   0.74498   0.00000  Uiso   1.00
O932   O     0.75518   0.15930   0.80855   0.00000  Uiso   1.00
O933   O     0.91149   0.17403   0.69145   0.00000  Uiso   1.00
O934   O     0.85532   0.16874   0.81671   0.00000  Uiso   1.00
O935   O     0.81134   0.16460   0.68329   0.00000  Uiso   1.00
O936   O     0.80680   0.10821   0.60593   0.00000  Uiso   1.00
C937   C     0.18098   0.59989   0.75251   0.00000  Uiso   1.00
C938   C     0.20521   0.50249   0.66667   0.00000  Uiso   1.00
C939   C     0.10384   0.48919   0.88065   0.00000  Uiso   1.00
C940   C     0.22835   0.50701   0.61875   0.00000  Uiso   1.00
C941   C     0.02647   0.44450   0.94173   0.00000  Uiso   1.00
C942   C     0.30626   0.54741   0.55594   0.00000  Uiso   1.00
C943   C     0.04496   0.45643   0.89755   0.00000  Uiso   1.00
C944   C     0.28785   0.53755   0.60043   0.00000  Uiso   1.00
C945   C     0.14351   0.51082   0.90860   0.00000  Uiso   1.00
C946   C     0.18789   0.48433   0.59147   0.00000  Uiso   1.00
C947   C     0.13062   0.49106   0.95093   0.00000  Uiso   1.00
C948   C     0.15189   0.40021   0.74876   0.00000  Uiso   1.00
C949   C     0.20107   0.50149   0.54814   0.00000  Uiso   1.00
C950   C     0.06880   0.46163   0.96853   0.00000  Uiso   1.00
C951   C     0.26331   0.52991   0.52975   0.00000  Uiso   1.00
C952   C     0.17595   0.50150   0.97684   0.00000  Uiso   1.00
C953   C     0.15574   0.48983   0.52207   0.00000  Uiso   1.00
C954   C     0.16129   0.39544   0.58748   0.00000  Uiso   1.00
C955   C     0.10531   0.35439   0.57877   0.00000  Uiso   1.00
C956   C     0.17267   0.59941   0.91679   0.00000  Uiso   1.00
C957   C     0.23120   0.64007   0.92173   0.00000  Uiso   1.00
C958   C     0.24249   0.34719   0.81078   0.00000  Uiso   1.00
C959   C     0.09053   0.46886   0.53993   0.00000  Uiso   1.00
C960   C     0.22426   0.39462   0.83853   0.00000  Uiso   1.00
C961   C     0.10661   0.64823   0.68705   0.00000  Uiso   1.00
C962   C     0.06240   0.60272   0.67082   0.00000  Uiso   1.00
C963   C     0.24119   0.52150   0.95856   0.00000  Uiso   1.00
C964   C     0.04902   0.45182   0.51311   0.00000  Uiso   1.00
C965   C     0.28310   0.53840   0.98498   0.00000  Uiso   1.00
C966   C     0.18775   0.65576   0.75687   0.00000  Uiso   1.00
C967   C     0.14472   0.34461   0.74650   0.00000  Uiso   1.00
C968   C     0.12787   0.49649   0.83321   0.00000  Uiso   1.00
Cu969  Cu    0.10737   0.49441   0.74517   0.00000  Uiso   1.00
Cu970  Cu    0.22596   0.50559   0.75483   0.00000  Uiso   1.00
H971   H     0.00030   0.43288   0.52773   0.00000  Uiso   1.00
H972   H     0.33218   0.46135   0.71544   0.00000  Uiso   1.00
H973   H     0.18162   0.38055   0.61108   0.00000  Uiso   1.00
H974   H     0.19855   0.40071   0.55574   0.00000  Uiso   1.00
H975   H     0.08919   0.36588   0.55149   0.00000  Uiso   1.00
H976   H     0.12012   0.64987   0.56913   0.00000  Uiso   1.00
H977   H     0.06495   0.34975   0.60850   0.00000  Uiso   1.00
H978   H     0.14044   0.59306   0.95037   0.00000  Uiso   1.00
H979   H     0.14736   0.61519   0.89686   0.00000  Uiso   1.00
H980   H     0.26595   0.64711   0.88942   0.00000  Uiso   1.00
H981   H     0.21692   0.34378   0.93582   0.00000  Uiso   1.00
H982   H     0.33198   0.55657   0.96996   0.00000  Uiso   1.00
H983   H     0.25448   0.62664   0.94424   0.00000  Uiso   1.00
H984   H     0.29148   0.34558   0.81177   0.00000  Uiso   1.00
H985   H     0.21061   0.64445   0.82590   0.00000  Uiso   1.00
H986   H     0.17452   0.39622   0.83959   0.00000  Uiso   1.00
H987   H     0.22783   0.39240   0.87255   0.00000  Uiso   1.00
H988   H     0.25697   0.43073   0.82455   0.00000  Uiso   1.00
H989   H     0.15636   0.64363   0.67113   0.00000  Uiso   1.00
H990   H     0.09916   0.35159   0.67668   0.00000  Uiso   1.00
H991   H     0.01260   0.60834   0.68204   0.00000  Uiso   1.00
H992   H     0.07716   0.59996   0.63451   0.00000  Uiso   1.00
H993   H     0.31996   0.55362   0.62058   0.00000  Uiso   1.00
H994   H     0.06560   0.56583   0.68324   0.00000  Uiso   1.00
H995   H     0.01340   0.44005   0.87664   0.00000  Uiso   1.00
H996   H     0.31289   0.42104   0.95477   0.00000  Uiso   1.00
H997   H     0.02033   0.56965   0.54218   0.00000  Uiso   1.00
H998   H     0.07004   0.46528   0.57470   0.00000  Uiso   1.00
H999   H     0.26128   0.52433   0.92366   0.00000  Uiso   1.00
H1000  H     0.00116   0.53867   0.78455   0.00000  Uiso   1.00
N1001  N     0.31506   0.51401   0.76212   0.00000  Uiso   1.00
N1002  N     0.01827   0.48599   0.73788   0.00000  Uiso   1.00
O1003  O     0.12815   0.57142   0.74686   0.00000  Uiso   1.00
O1004  O     0.19175   0.55376   0.89518   0.00000  Uiso   1.00
O1005  O     0.24294   0.35223   0.76650   0.00000  Uiso   1.00
O1006  O     0.09249   0.64846   0.73329   0.00000  Uiso   1.00
O1007  O     0.20518   0.42858   0.75314   0.00000  Uiso   1.00
O1008  O     0.22829   0.58086   0.75502   0.00000  Uiso   1.00
O1009  O     0.10504   0.41914   0.74498   0.00000  Uiso   1.00
O1010  O     0.08851   0.49263   0.80855   0.00000  Uiso   1.00
O1011  O     0.24482   0.50737   0.69145   0.00000  Uiso   1.00
O1012  O     0.18866   0.50207   0.81671   0.00000  Uiso   1.00
O1013  O     0.14468   0.49793   0.68329   0.00000  Uiso   1.00
O1014  O     0.14013   0.44155   0.60593   0.00000  Uiso   1.00
C1015  C     0.51431   0.59989   0.75251   0.00000  Uiso   1.00
C1016  C     0.53854   0.50249   0.66667   0.00000  Uiso   1.00
C1017  C     0.43718   0.48919   0.88065   0.00000  Uiso   1.00
C1018  C     0.56168   0.50701   0.61875   0.00000  Uiso   1.00
C1019  C     0.35980   0.44450   0.94173   0.00000  Uiso   1.00
C1020  C     0.63959   0.54741   0.55594   0.00000  Uiso   1.00
C1021  C     0.37830   0.45643   0.89755   0.00000  Uiso   1.00
C1022  C     0.62119   0.53755   0.60043   0.00000  Uiso   1.00
C1023  C     0.47684   0.51082   0.90860   0.00000  Uiso   1.00
C1024  C     0.52122   0.48433   0.59147   0.00000  Uiso   1.00
C1025  C     0.46395   0.49106   0.95093   0.00000  Uiso   1.00
C1026  C     0.48522   0.40021   0.74876   0.00000  Uiso   1.00
C1027  C     0.53441   0.50149   0.54814   0.00000  Uiso   1.00
C1028  C     0.40213   0.46163   0.96853   0.00000  Uiso   1.00
C1029  C     0.59665   0.52991   0.52975   0.00000  Uiso   1.00
C1030  C     0.50928   0.50150   0.97684   0.00000  Uiso   1.00
C1031  C     0.48908   0.48983   0.52207   0.00000  Uiso   1.00
C1032  C     0.49462   0.39544   0.58748   0.00000  Uiso   1.00
C1033  C     0.43864   0.35439   0.57877   0.00000  Uiso   1.00
C1034  C     0.50601   0.59941   0.91679   0.00000  Uiso   1.00
C1035  C     0.56453   0.64007   0.92173   0.00000  Uiso   1.00
C1036  C     0.57582   0.34719   0.81078   0.00000  Uiso   1.00
C1037  C     0.42386   0.46886   0.53993   0.00000  Uiso   1.00
C1038  C     0.55759   0.39462   0.83853   0.00000  Uiso   1.00
C1039  C     0.43994   0.64823   0.68705   0.00000  Uiso   1.00
C1040  C     0.39573   0.60272   0.67082   0.00000  Uiso   1.00
C1041  C     0.57453   0.52150   0.95856   0.00000  Uiso   1.00
C1042  C     0.38235   0.45182   0.51311   0.00000  Uiso   1.00
C1043  C     0.61643   0.53840   0.98498   0.00000  Uiso   1.00
C1044  C     0.52108   0.65576   0.75687   0.00000  Uiso   1.00
C1045  C     0.47805   0.34461   0.74650   0.00000  Uiso   1.00
C1046  C     0.46120   0.49649   0.83321   0.00000  Uiso   1.00
Cu1047 Cu    0.44071   0.49441   0.74517   0.00000  Uiso   1.00
Cu1048 Cu    0.55929   0.50559   0.75483   0.00000  Uiso   1.00
H1049  H     0.33364   0.43288   0.52773   0.00000  Uiso   1.00
H1050  H     0.66552   0.46135   0.71544   0.00000  Uiso   1.00
H1051  H     0.51495   0.38055   0.61108   0.00000  Uiso   1.00
H1052  H     0.53188   0.40071   0.55574   0.00000  Uiso   1.00
H1053  H     0.42253   0.36588   0.55149   0.00000  Uiso   1.00
H1054  H     0.45346   0.64987   0.56913   0.00000  Uiso   1.00
H1055  H     0.39828   0.34975   0.60850   0.00000  Uiso   1.00
H1056  H     0.47378   0.59306   0.95037   0.00000  Uiso   1.00
H1057  H     0.48069   0.61519   0.89686   0.00000  Uiso   1.00
H1058  H     0.59928   0.64711   0.88942   0.00000  Uiso   1.00
H1059  H     0.55025   0.34378   0.93582   0.00000  Uiso   1.00
H1060  H     0.66532   0.55657   0.96996   0.00000  Uiso   1.00
H1061  H     0.58781   0.62664   0.94424   0.00000  Uiso   1.00
H1062  H     0.62481   0.34558   0.81177   0.00000  Uiso   1.00
H1063  H     0.54394   0.64445   0.82590   0.00000  Uiso   1.00
H1064  H     0.50785   0.39622   0.83959   0.00000  Uiso   1.00
H1065  H     0.56116   0.39240   0.87255   0.00000  Uiso   1.00
H1066  H     0.59031   0.43073   0.82455   0.00000  Uiso   1.00
H1067  H     0.48970   0.64363   0.67113   0.00000  Uiso   1.00
H1068  H     0.43250   0.35159   0.67668   0.00000  Uiso   1.00
H1069  H     0.34593   0.60834   0.68204   0.00000  Uiso   1.00
H1070  H     0.41049   0.59996   0.63451   0.00000  Uiso   1.00
H1071  H     0.65329   0.55362   0.62058   0.00000  Uiso   1.00
H1072  H     0.39894   0.56583   0.68324   0.00000  Uiso   1.00
H1073  H     0.34674   0.44005   0.87664   0.00000  Uiso   1.00
H1074  H     0.64622   0.42104   0.95477   0.00000  Uiso   1.00
H1075  H     0.35367   0.56965   0.54218   0.00000  Uiso   1.00
H1076  H     0.40337   0.46528   0.57470   0.00000  Uiso   1.00
H1077  H     0.59461   0.52433   0.92366   0.00000  Uiso   1.00
H1078  H     0.33449   0.53867   0.78455   0.00000  Uiso   1.00
N1079  N     0.64839   0.51401   0.76212   0.00000  Uiso   1.00
N1080  N     0.35161   0.48599   0.73788   0.00000  Uiso   1.00
O1081  O     0.46148   0.57142   0.74686   0.00000  Uiso   1.00
O1082  O     0.52509   0.55376   0.89518   0.00000  Uiso   1.00
O1083  O     0.57627   0.35223   0.76650   0.00000  Uiso   1.00
O1084  O     0.42582   0.64846   0.73329   0.00000  Uiso   1.00
O1085  O     0.53852   0.42858   0.75314   0.00000  Uiso   1.00
O1086  O     0.56163   0.58086   0.75502   0.00000  Uiso   1.00
O1087  O     0.43837   0.41914   0.74498   0.00000  Uiso   1.00
O1088  O     0.42185   0.49263   0.80855   0.00000  Uiso   1.00
O1089  O     0.57815   0.50737   0.69145   0.00000  Uiso   1.00
O1090  O     0.52199   0.50207   0.81671   0.00000  Uiso   1.00
O1091  O     0.47801   0.49793   0.68329   0.00000  Uiso   1.00
O1092  O     0.47346   0.44155   0.60593   0.00000  Uiso   1.00
C1093  C     0.84765   0.59989   0.75251   0.00000  Uiso   1.00
C1094  C     0.87187   0.50249   0.66667   0.00000  Uiso   1.00
C1095  C     0.77051   0.48919   0.88065   0.00000  Uiso   1.00
C1096  C     0.89501   0.50701   0.61875   0.00000  Uiso   1.00
C1097  C     0.69314   0.44450   0.94173   0.00000  Uiso   1.00
C1098  C     0.97293   0.54741   0.55594   0.00000  Uiso   1.00
C1099  C     0.71163   0.45643   0.89755   0.00000  Uiso   1.00
C1100  C     0.95452   0.53755   0.60043   0.00000  Uiso   1.00
C1101  C     0.81018   0.51082   0.90860   0.00000  Uiso   1.00
C1102  C     0.85455   0.48433   0.59147   0.00000  Uiso   1.00
C1103  C     0.79728   0.49106   0.95093   0.00000  Uiso   1.00
C1104  C     0.81856   0.40021   0.74876   0.00000  Uiso   1.00
C1105  C     0.86774   0.50149   0.54814   0.00000  Uiso   1.00
C1106  C     0.73546   0.46163   0.96853   0.00000  Uiso   1.00
C1107  C     0.92998   0.52991   0.52975   0.00000  Uiso   1.00
C1108  C     0.84262   0.50150   0.97684   0.00000  Uiso   1.00
C1109  C     0.82241   0.48983   0.52207   0.00000  Uiso   1.00
C1110  C     0.82796   0.39544   0.58748   0.00000  Uiso   1.00
C1111  C     0.77197   0.35439   0.57877   0.00000  Uiso   1.00
C1112  C     0.83934   0.59941   0.91679   0.00000  Uiso   1.00
C1113  C     0.89786   0.64007   0.92173   0.00000  Uiso   1.00
C1114  C     0.90915   0.34719   0.81078   0.00000  Uiso   1.00
C1115  C     0.75720   0.46886   0.53993   0.00000  Uiso   1.00
C1116  C     0.89092   0.39462   0.83853   0.00000  Uiso   1.00
C1117  C     0.77327   0.64823   0.68705   0.00000  Uiso   1.00
C1118  C     0.72907   0.60272   0.67082   0.00000  Uiso   1.00
C1119  C     0.90786   0.52150   0.95856   0.00000  Uiso   1.00
C1120  C     0.71568   0.45182   0.51311   0.00000  Uiso   1.00
C1121  C     0.94976   0.53840   0.98498   0.00000  Uiso   1.00
C1122  C     0.85441   0.65576   0.75687   0.00000  Uiso   1.00
C1123  C     0.81138   0.34461   0.74650   0.00000  Uiso   1.00
C1124  C     0.79453   0.49649   0.83321   0.00000  Uiso   1.00
Cu1125 Cu    0.77404   0.49441   0.74517   0.00000  Uiso   1.00
Cu1126 Cu    0.89263   0.50559   0.75483   0.00000  Uiso   1.00
H1127  H     0.66697   0.43288   0.52773   0.00000  Uiso   1.00
H1128  H     0.99885   0.46135   0.71544   0.00000  Uiso   1.00
H1129  H     0.84829   0.38055   0.61108   0.00000  Uiso   1.00
H1130  H     0.86521   0.40071   0.55574   0.00000  Uiso   1.00
H1131  H     0.75586   0.36588   0.55149   0.00000  Uiso   1.00
H1132  H     0.78679   0.64987   0.56913   0.00000  Uiso   1.00
H1133  H     0.73162   0.34975   0.60850   0.00000  Uiso   1.00
H1134  H     0.80711   0.59306   0.95037   0.00000  Uiso   1.00
H1135  H     0.81402   0.61519   0.89686   0.00000  Uiso   1.00
H1136  H     0.93261   0.64711   0.88942   0.00000  Uiso   1.00
H1137  H     0.88359   0.34378   0.93582   0.00000  Uiso   1.00
H1138  H     0.99865   0.55657   0.96996   0.00000  Uiso   1.00
H1139  H     0.92115   0.62664   0.94424   0.00000  Uiso   1.00
H1140  H     0.95814   0.34558   0.81177   0.00000  Uiso   1.00
H1141  H     0.87728   0.64445   0.82590   0.00000  Uiso   1.00
H1142  H     0.84119   0.39622   0.83959   0.00000  Uiso   1.00
H1143  H     0.89449   0.39240   0.87255   0.00000  Uiso   1.00
H1144  H     0.92364   0.43073   0.82455   0.00000  Uiso   1.00
H1145  H     0.82303   0.64363   0.67113   0.00000  Uiso   1.00
H1146  H     0.76583   0.35159   0.67668   0.00000  Uiso   1.00
H1147  H     0.67926   0.60834   0.68204   0.00000  Uiso   1.00
H1148  H     0.74383   0.59996   0.63451   0.00000  Uiso   1.00
H1149  H     0.98662   0.55362   0.62058   0.00000  Uiso   1.00
H1150  H     0.73227   0.56583   0.68324   0.00000  Uiso   1.00
H1151  H     0.68007   0.44005   0.87664   0.00000  Uiso   1.00
H1152  H     0.97956   0.42104   0.95477   0.00000  Uiso   1.00
H1153  H     0.68700   0.56965   0.54218   0.00000  Uiso   1.00
H1154  H     0.73670   0.46528   0.57470   0.00000  Uiso   1.00
H1155  H     0.92794   0.52433   0.92366   0.00000  Uiso   1.00
H1156  H     0.66782   0.53867   0.78455   0.00000  Uiso   1.00
N1157  N     0.98173   0.51401   0.76212   0.00000  Uiso   1.00
N1158  N     0.68494   0.48599   0.73788   0.00000  Uiso   1.00
O1159  O     0.79482   0.57142   0.74686   0.00000  Uiso   1.00
O1160  O     0.85842   0.55376   0.89518   0.00000  Uiso   1.00
O1161  O     0.90961   0.35223   0.76650   0.00000  Uiso   1.00
O1162  O     0.75916   0.64846   0.73329   0.00000  Uiso   1.00
O1163  O     0.87185   0.42858   0.75314   0.00000  Uiso   1.00
O1164  O     0.89496   0.58086   0.75502   0.00000  Uiso   1.00
O1165  O     0.77171   0.41914   0.74498   0.00000  Uiso   1.00
O1166  O     0.75518   0.49263   0.80855   0.00000  Uiso   1.00
O1167  O     0.91149   0.50737   0.69145   0.00000  Uiso   1.00
O1168  O     0.85532   0.50207   0.81671   0.00000  Uiso   1.00
O1169  O     0.81134   0.49793   0.68329   0.00000  Uiso   1.00
O1170  O     0.80680   0.44155   0.60593   0.00000  Uiso   1.00
C1171  C     0.18098   0.93322   0.75251   0.00000  Uiso   1.00
C1172  C     0.20521   0.83583   0.66667   0.00000  Uiso   1.00
C1173  C     0.10384   0.82252   0.88065   0.00000  Uiso   1.00
C1174  C     0.22835   0.84034   0.61875   0.00000  Uiso   1.00
C1175  C     0.02647   0.77784   0.94173   0.00000  Uiso   1.00
C1176  C     0.30626   0.88074   0.55594   0.00000  Uiso   1.00
C1177  C     0.04496   0.78977   0.89755   0.00000  Uiso   1.00
C1178  C     0.28785   0.87088   0.60043   0.00000  Uiso   1.00
C1179  C     0.14351   0.84416   0.90860   0.00000  Uiso   1.00
C1180  C     0.18789   0.81767   0.59147   0.00000  Uiso   1.00
C1181  C     0.13062   0.82439   0.95093   0.00000  Uiso   1.00
C1182  C     0.15189   0.73355   0.74876   0.00000  Uiso   1.00
C1183  C     0.20107   0.83482   0.54814   0.00000  Uiso   1.00
C1184  C     0.06880   0.79497   0.96853   0.00000  Uiso   1.00
C1185  C     0.26331   0.86324   0.52975   0.00000  Uiso   1.00
C1186  C     0.17595   0.83483   0.97684   0.00000  Uiso   1.00
C1187  C     0.15574   0.82316   0.52207   0.00000  Uiso   1.00
C1188  C     0.16129   0.72877   0.58748   0.00000  Uiso   1.00
C1189  C     0.10531   0.68772   0.57877   0.00000  Uiso   1.00
C1190  C     0.17267   0.93274   0.91679   0.00000  Uiso   1.00
C1191  C     0.23120   0.97340   0.92173   0.00000  Uiso   1.00
C1192  C     0.24249   0.68052   0.81078   0.00000  Uiso   1.00
C1193  C     0.09053   0.80220   0.53993   0.00000  Uiso   1.00
C1194  C     0.22426   0.72795   0.83853   0.00000  Uiso   1.00
C1195  C     0.10661   0.98156   0.68705   0.00000  Uiso   1.00
C1196  C     0.06240   0.93606   0.67082   0.00000  Uiso   1.00
C1197  C     0.24119   0.85484   0.95856   0.00000  Uiso   1.00
C1198  C     0.04902   0.78516   0.51311   0.00000  Uiso   1.00
C1199  C     0.28310   0.87173   0.98498   0.00000  Uiso   1.00
C1200  C     0.18775   0.98910   0.75687   0.00000  Uiso   1.00
C1201  C     0.14472   0.67795   0.74650   0.00000  Uiso   1.00
C1202  C     0.12787   0.82982   0.83321   0.00000  Uiso   1.00
Cu1203 Cu    0.10737   0.82775   0.74517   0.00000  Uiso   1.00
Cu1204 Cu    0.22596   0.83892   0.75483   0.00000  Uiso   1.00
H1205  H     0.00030   0.76621   0.52773   0.00000  Uiso   1.00
H1206  H     0.33218   0.79469   0.71544   0.00000  Uiso   1.00
H1207  H     0.18162   0.71388   0.61108   0.00000  Uiso   1.00
H1208  H     0.19855   0.73405   0.55574   0.00000  Uiso   1.00
H1209  H     0.08919   0.69921   0.55149   0.00000  Uiso   1.00
H1210  H     0.12012   0.98320   0.56913   0.00000  Uiso   1.00
H1211  H     0.06495   0.68309   0.60850   0.00000  Uiso   1.00
H1212  H     0.14044   0.92639   0.95037   0.00000  Uiso   1.00
H1213  H     0.14736   0.94852   0.89686   0.00000  Uiso   1.00
H1214  H     0.26595   0.98044   0.88942   0.00000  Uiso   1.00
H1215  H     0.21692   0.67711   0.93582   0.00000  Uiso   1.00
H1216  H     0.33198   0.88990   0.96996   0.00000  Uiso   1.00
H1217  H     0.25448   0.95997   0.94424   0.00000  Uiso   1.00
H1218  H     0.29148   0.67892   0.81177   0.00000  Uiso   1.00
H1219  H     0.21061   0.97778   0.82590   0.00000  Uiso   1.00
H1220  H     0.17452   0.72956   0.83959   0.00000  Uiso   1.00
H1221  H     0.22783   0.72573   0.87255   0.00000  Uiso   1.00
H1222  H     0.25697   0.76406   0.82455   0.00000  Uiso   1.00
H1223  H     0.15636   0.97696   0.67113   0.00000  Uiso   1.00
H1224  H     0.09916   0.68493   0.67668   0.00000  Uiso   1.00
H1225  H     0.01260   0.94167   0.68204   0.00000  Uiso   1.00
H1226  H     0.07716   0.93329   0.63451   0.00000  Uiso   1.00
H1227  H     0.31996   0.88695   0.62058   0.00000  Uiso   1.00
H1228  H     0.06560   0.89916   0.68324   0.00000  Uiso   1.00
H1229  H     0.01340   0.77338   0.87664   0.00000  Uiso   1.00
H1230  H     0.31289   0.75438   0.95477   0.00000  Uiso   1.00
H1231  H     0.02033   0.90298   0.54218   0.00000  Uiso   1.00
H1232  H     0.07004   0.79862   0.57470   0.00000  Uiso   1.00
H1233  H     0.26128   0.85767   0.92366   0.00000  Uiso   1.00
H1234  H     0.00116   0.87200   0.78455   0.00000  Uiso   1.00
N1235  N     0.31506   0.84735   0.76212   0.00000  Uiso   1.00
N1236  N     0.01827   0.81932   0.73788   0.00000  Uiso   1.00
O1237  O     0.12815   0.90476   0.74686   0.00000  Uiso   1.00
O1238  O     0.19175   0.88709   0.89518   0.00000  Uiso   1.00
O1239  O     0.24294   0.68556   0.76650   0.00000  Uiso   1.00
O1240  O     0.09249   0.98180   0.73329   0.00000  Uiso   1.00
O1241  O     0.20518   0.76191   0.75314   0.00000  Uiso   1.00
O1242  O     0.22829   0.91420   0.75502   0.00000  Uiso   1.00
O1243  O     0.10504   0.75247   0.74498   0.00000  Uiso   1.00
O1244  O     0.08851   0.82597   0.80855   0.00000  Uiso   1.00
O1245  O     0.24482   0.84070   0.69145   0.00000  Uiso   1.00
O1246  O     0.18866   0.83540   0.81671   0.00000  Uiso   1.00
O1247  O     0.14468   0.83126   0.68329   0.00000  Uiso   1.00
O1248  O     0.14013   0.77488   0.60593   0.00000  Uiso   1.00
C1249  C     0.51431   0.93322   0.75251   0.00000  Uiso   1.00
C1250  C     0.53854   0.83583   0.66667   0.00000  Uiso   1.00
C1251  C     0.43718   0.82252   0.88065   0.00000  Uiso   1.00
C1252  C     0.56168   0.84034   0.61875   0.00000  Uiso   1.00
C1253  C     0.35980   0.77784   0.94173   0.00000  Uiso   1.00
C1254  C     0.63959   0.88074   0.55594   0.00000  Uiso   1.00
C1255  C     0.37830   0.78977   0.89755   0.00000  Uiso   1.00
C1256  C     0.62119   0.87088   0.60043   0.00000  Uiso   1.00
C1257  C     0.47684   0.84416   0.90860   0.00000  Uiso   1.00
C1258  C     0.52122   0.81767   0.59147   0.00000  Uiso   1.00
C1259  C     0.46395   0.82439   0.95093   0.00000  Uiso   1.00
C1260  C     0.48522   0.73355   0.74876   0.00000  Uiso   1.00
C1261  C     0.53441   0.83482   0.54814   0.00000  Uiso   1.00
C1262  C     0.40213   0.79497   0.96853   0.00000  Uiso   1.00
C1263  C     0.59665   0.86324   0.52975   0.00000  Uiso   1.00
C1264  C     0.50928   0.83483   0.97684   0.00000  Uiso   1.00
C1265  C     0.48908   0.82316   0.52207   0.00000  Uiso   1.00
C1266  C     0.49462   0.72877   0.58748   0.00000  Uiso   1.00
C1267  C     0.43864   0.68772   0.57877   0.00000  Uiso   1.00
C1268  C     0.50601   0.93274   0.91679   0.00000  Uiso   1.00
C1269  C     0.56453   0.97340   0.92173   0.00000  Uiso   1.00
C1270  C     0.57582   0.68052   0.81078   0.00000  Uiso   1.00
C1271  C     0.42386   0.80220   0.53993   0.00000  Uiso   1.00
C1272  C     0.55759   0.72795   0.83853   0.00000  Uiso   1.00
C1273  C     0.43994   0.98156   0.68705   0.00000  Uiso   1.00
C1274  C     0.39573   0.93606   0.67082   0.00000  Uiso   1.00
C1275  C     0.57453   0.85484   0.95856   0.00000  Uiso   1.00
C1276  C     0.38235   0.78516   0.51311   0.00000  Uiso   1.00
C1277  C     0.61643   0.87173   0.98498   0.00000  Uiso   1.00
C1278  C     0.52108   0.98910   0.75687   0.00000  Uiso   1.00
C1279  C     0.47805   0.67795   0.74650   0.00000  Uiso   1.00
C1280  C     0.46120   0.82982   0.83321   0.00000  Uiso   1.00
Cu1281 Cu    0.44071   0.82775   0.74517   0.00000  Uiso   1.00
Cu1282 Cu    0.55929   0.83892   0.75483   0.00000  Uiso   1.00
H1283  H     0.33364   0.76621   0.52773   0.00000  Uiso   1.00
H1284  H     0.66552   0.79469   0.71544   0.00000  Uiso   1.00
H1285  H     0.51495   0.71388   0.61108   0.00000  Uiso   1.00
H1286  H     0.53188   0.73405   0.55574   0.00000  Uiso   1.00
H1287  H     0.42253   0.69921   0.55149   0.00000  Uiso   1.00
H1288  H     0.45346   0.98320   0.56913   0.00000  Uiso   1.00
H1289  H     0.39828   0.68309   0.60850   0.00000  Uiso   1.00
H1290  H     0.47378   0.92639   0.95037   0.00000  Uiso   1.00
H1291  H     0.48069   0.94852   0.89686   0.00000  Uiso   1.00
H1292  H     0.59928   0.98044   0.88942   0.00000  Uiso   1.00
H1293  H     0.55025   0.67711   0.93582   0.00000  Uiso   1.00
H1294  H     0.66532   0.88990   0.96996   0.00000  Uiso   1.00
H1295  H     0.58781   0.95997   0.94424   0.00000  Uiso   1.00
H1296  H     0.62481   0.67892   0.81177   0.00000  Uiso   1.00
H1297  H     0.54394   0.97778   0.82590   0.00000  Uiso   1.00
H1298  H     0.50785   0.72956   0.83959   0.00000  Uiso   1.00
H1299  H     0.56116   0.72573   0.87255   0.00000  Uiso   1.00
H1300  H     0.59031   0.76406   0.82455   0.00000  Uiso   1.00
H1301  H     0.48970   0.97696   0.67113   0.00000  Uiso   1.00
H1302  H     0.43250   0.68493   0.67668   0.00000  Uiso   1.00
H1303  H     0.34593   0.94167   0.68204   0.00000  Uiso   1.00
H1304  H     0.41049   0.93329   0.63451   0.00000  Uiso   1.00
H1305  H     0.65329   0.88695   0.62058   0.00000  Uiso   1.00
H1306  H     0.39894   0.89916   0.68324   0.00000  Uiso   1.00
H1307  H     0.34674   0.77338   0.87664   0.00000  Uiso   1.00
H1308  H     0.64622   0.75438   0.95477   0.00000  Uiso   1.00
H1309  H     0.35367   0.90298   0.54218   0.00000  Uiso   1.00
H1310  H     0.40337   0.79862   0.57470   0.00000  Uiso   1.00
H1311  H     0.59461   0.85767   0.92366   0.00000  Uiso   1.00
H1312  H     0.33449   0.87200   0.78455   0.00000  Uiso   1.00
N1313  N     0.64839   0.84735   0.76212   0.00000  Uiso   1.00
N1314  N     0.35161   0.81932   0.73788   0.00000  Uiso   1.00
O1315  O     0.46148   0.90476   0.74686   0.00000  Uiso   1.00
O1316  O     0.52509   0.88709   0.89518   0.00000  Uiso   1.00
O1317  O     0.57627   0.68556   0.76650   0.00000  Uiso   1.00
O1318  O     0.42582   0.98180   0.73329   0.00000  Uiso   1.00
O1319  O     0.53852   0.76191   0.75314   0.00000  Uiso   1.00
O1320  O     0.56163   0.91420   0.75502   0.00000  Uiso   1.00
O1321  O     0.43837   0.75247   0.74498   0.00000  Uiso   1.00
O1322  O     0.42185   0.82597   0.80855   0.00000  Uiso   1.00
O1323  O     0.57815   0.84070   0.69145   0.00000  Uiso   1.00
O1324  O     0.52199   0.83540   0.81671   0.00000  Uiso   1.00
O1325  O     0.47801   0.83126   0.68329   0.00000  Uiso   1.00
O1326  O     0.47346   0.77488   0.60593   0.00000  Uiso   1.00
C1327  C     0.84765   0.93322   0.75251   0.00000  Uiso   1.00
C1328  C     0.87187   0.83583   0.66667   0.00000  Uiso   1.00
C1329  C     0.77051   0.82252   0.88065   0.00000  Uiso   1.00
C1330  C     0.89501   0.84034   0.61875   0.00000  Uiso   1.00
C1331  C     0.69314   0.77784   0.94173   0.00000  Uiso   1.00
C1332  C     0.97293   0.88074   0.55594   0.00000  Uiso   1.00
C1333  C     0.71163   0.78977   0.89755   0.00000  Uiso   1.00
C1334  C     0.95452   0.87088   0.60043   0.00000  Uiso   1.00
C1335  C     0.81018   0.84416   0.90860   0.00000  Uiso   1.00
C1336  C     0.85455   0.81767   0.59147   0.00000  Uiso   1.00
C1337  C     0.79728   0.82439   0.95093   0.00000  Uiso   1.00
C1338  C     0.81856   0.73355   0.74876   0.00000  Uiso   1.00
C1339  C     0.86774   0.83482   0.54814   0.00000  Uiso   1.00
C1340  C     0.73546   0.79497   0.96853   0.00000  Uiso   1.00
C1341  C     0.92998   0.86324   0.52975   0.00000  Uiso   1.00
C1342  C     0.84262   0.83483   0.97684   0.00000  Uiso   1.00
C1343  C     0.82241   0.82316   0.52207   0.00000  Uiso   1.00
C1344  C     0.82796   0.72877   0.58748   0.00000  Uiso   1.00
C1345  C     0.77197   0.68772   0.57877   0.00000  Uiso   1.00
C1346  C     0.83934   0.93274   0.91679   0.00000  Uiso   1.00
C1347  C     0.89786   0.97340   0.92173   0.00000  Uiso   1.00
C1348  C     0.90915   0.68052   0.81078   0.00000  Uiso   1.00
C1349  C     0.75720   0.80220   0.53993   0.00000  Uiso   1.00
C1350  C     0.89092   0.72795   0.83853   0.00000  Uiso   1.00
C1351  C     0.77327   0.98156   0.68705   0.00000  Uiso   1.00
C1352  C     0.72907   0.93606   0.67082   0.00000  Uiso   1.00
C1353  C     0.90786   0.85484   0.95856   0.00000  Uiso   1.00
C1354  C     0.71568   0.78516   0.51311   0.00000  Uiso   1.00
C1355  C     0.94976   0.87173   0.98498   0.00000  Uiso   1.00
C1356  C     0.85441   0.98910   0.75687   0.00000  Uiso   1.00
C1357  C     0.81138   0.67795   0.74650   0.00000  Uiso   1.00
C1358  C     0.79453   0.82982   0.83321   0.00000  Uiso   1.00
Cu1359 Cu    0.77404   0.82775   0.74517   0.00000  Uiso   1.00
Cu1360 Cu    0.89263   0.83892   0.75483   0.00000  Uiso   1.00
H1361  H     0.66697   0.76621   0.52773   0.00000  Uiso   1.00
H1362  H     0.99885   0.79469   0.71544   0.00000  Uiso   1.00
H1363  H     0.84829   0.71388   0.61108   0.00000  Uiso   1.00
H1364  H     0.86521   0.73405   0.55574   0.00000  Uiso   1.00
H1365  H     0.75586   0.69921   0.55149   0.00000  Uiso   1.00
H1366  H     0.78679   0.98320   0.56913   0.00000  Uiso   1.00
H1367  H     0.73162   0.68309   0.60850   0.00000  Uiso   1.00
H1368  H     0.80711   0.92639   0.95037   0.00000  Uiso   1.00
H1369  H     0.81402   0.94852   0.89686   0.00000  Uiso   1.00
H1370  H     0.93261   0.98044   0.88942   0.00000  Uiso   1.00
H1371  H     0.88359   0.67711   0.93582   0.00000  Uiso   1.00
H1372  H     0.99865   0.88990   0.96996   0.00000  Uiso   1.00
H1373  H     0.92115   0.95997   0.94424   0.00000  Uiso   1.00
H1374  H     0.95814   0.67892   0.81177   0.00000  Uiso   1.00
H1375  H     0.87728   0.97778   0.82590   0.00000  Uiso   1.00
H1376  H     0.84119   0.72956   0.83959   0.00000  Uiso   1.00
H1377  H     0.89449   0.72573   0.87255   0.00000  Uiso   1.00
H1378  H     0.92364   0.76406   0.82455   0.00000  Uiso   1.00
H1379  H     0.82303   0.97696   0.67113   0.00000  Uiso   1.00
H1380  H     0.76583   0.68493   0.67668   0.00000  Uiso   1.00
H1381  H     0.67926   0.94167   0.68204   0.00000  Uiso   1.00
H1382  H     0.74383   0.93329   0.63451   0.00000  Uiso   1.00
H1383  H     0.98662   0.88695   0.62058   0.00000  Uiso   1.00
H1384  H     0.73227   0.89916   0.68324   0.00000  Uiso   1.00
H1385  H     0.68007   0.77338   0.87664   0.00000  Uiso   1.00
H1386  H     0.97956   0.75438   0.95477   0.00000  Uiso   1.00
H1387  H     0.68700   0.90298   0.54218   0.00000  Uiso   1.00
H1388  H     0.73670   0.79862   0.57470   0.00000  Uiso   1.00
H1389  H     0.92794   0.85767   0.92366   0.00000  Uiso   1.00
H1390  H     0.66782   0.87200   0.78455   0.00000  Uiso   1.00
N1391  N     0.98173   0.84735   0.76212   0.00000  Uiso   1.00
N1392  N     0.68494   0.81932   0.73788   0.00000  Uiso   1.00
O1393  O     0.79482   0.90476   0.74686   0.00000  Uiso   1.00
O1394  O     0.85842   0.88709   0.89518   0.00000  Uiso   1.00
O1395  O     0.90961   0.68556   0.76650   0.00000  Uiso   1.00
O1396  O     0.75916   0.98180   0.73329   0.00000  Uiso   1.00
O1397  O     0.87185   0.76191   0.75314   0.00000  Uiso   1.00
O1398  O     0.89496   0.91420   0.75502   0.00000  Uiso   1.00
O1399  O     0.77171   0.75247   0.74498   0.00000  Uiso   1.00
O1400  O     0.75518   0.82597   0.80855   0.00000  Uiso   1.00
O1401  O     0.91149   0.84070   0.69145   0.00000  Uiso   1.00
O1402  O     0.85532   0.83540   0.81671   0.00000  Uiso   1.00
O1403  O     0.81134   0.83126   0.68329   0.00000  Uiso   1.00
O1404  O     0.80680   0.77488   0.60593   0.00000  Uiso   1.00
loop_
_geom_bond_atom_site_label_1
_geom_bond_atom_site_label_2
_geom_bond_distance
_geom_bond_site_symmetry_2
_ccdc_geom_bond_type
C1     O72     1.288   .     A
C1     C30     1.443   .     S
C1     O67     1.292   .     A
C2     C4      1.473   .     S
C2     O77     1.293   .     A
C2     O75     1.306   .     A
C3     C7      1.400   .     A
C3     C9      1.406   .     A
C3     C32     1.469   .     S
C4     C8      1.394   .     A
C4     C10     1.408   .     A
C5     C7      1.394   .     A
C5     C14     1.403   .     A
C5     H216    1.084   1_455 S
C6     C15     1.401   .     A
C6     C8      1.390   .     A
C6     H139    1.084   .     S
C7     H59     1.083   .     S
C8     H57     1.072   .     S
C9     C11     1.418   .     A
C9     O68     1.386   .     S
C10    O78     1.384   .     S
C10    C13     1.420   .     A
C11    C14     1.416   .     A
C11    C16     1.427   .     A
C12    O73     1.290   .     A
C12    O71     1.287   .     A
C12    C31     1.435   .     S
C13    C15     1.418   .     A
C13    C17     1.431   .     A
C14    C730    1.392   .     S
C15    C731    1.391   1_554 S
C16    C27     1.412   .     A
C16    C719    1.423   .     S
C17    C23     1.414   .     A
C17    C718    1.423   1_554 S
C18    H37     1.110   .     S
C18    C19     1.523   .     S
C18    O78     1.419   .     S
C18    H38     1.118   .     S
C19    H39     1.109   .     S
C19    H41     1.110   .     S
C19    H508    1.110   1_545 S
C20    H43     1.111   .     S
C20    O68     1.418   .     S
C20    H42     1.117   .     S
C20    C21     1.523   .     S
C21    H44     1.109   .     S
C21    H47     1.109   .     S
C21    H279    1.110   .     S
C22    H48     1.111   .     S
C22    O69     1.417   .     S
C22    C24     1.524   .     S
C22    H517    1.114   1_545 S
C23    H62     1.077   .     S
C23    C28     1.390   .     A
C24    H52     1.110   .     S
C24    H51     1.108   .     S
C24    H50     1.110   .     S
C25    H53     1.118   .     S
C25    C26     1.513   .     S
C25    O70     1.411   .     S
C25    H288    1.111   .     S
C26    H55     1.111   .     S
C26    H58     1.107   .     S
C26    H56     1.107   .     S
C27    C29     1.386   .     A
C27    H63     1.078   .     S
C28    H35     1.084   .     S
C28    C716    1.392   1_554 S
C29    H46     1.085   .     S
C29    C717    1.391   .     S
C30    C265    1.351   .     S
C30    O303    1.392   .     S
C31    C498    1.351   1_545 S
C31    O538    1.386   1_545 S
C32    O74     1.302   .     A
C32    O76     1.296   .     A
Cu33   N66     2.019   .     S
Cu33   Cu34    2.688   .     S
Cu33   O73     1.973   .     S
Cu33   O67     1.976   .     S
Cu33   O77     1.915   .     S
Cu33   O74     1.939   .     S
Cu34   O75     1.939   .     S
Cu34   N65     2.019   .     S
Cu34   O72     1.973   .     S
Cu34   O71     1.976   .     S
Cu34   O76     1.915   .     S
H36    N144    1.029   .     S
H40    C253    1.110   .     S
H45    C489    1.110   1_545 S
H49    C256    1.114   .     S
H54    C493    1.111   1_545 S
H60    C83     1.084   .     S
H61    C162    1.084   1_455 S
H64    N221    1.029   1_455 S
N65    H142    1.029   .     S
N65    N144    1.275   .     S
N66    H192    1.029   1_455 S
N66    N221    1.275   1_455 S
O69    C498    1.392   1_545 S
O70    C265    1.386   .     S
C79    O150    1.288   .     A
C79    C108    1.443   .     S
C79    O145    1.292   .     A
C80    C82     1.473   .     S
C80    O155    1.293   .     A
C80    O153    1.306   .     A
C81    C85     1.400   .     A
C81    C87     1.406   .     A
C81    C110    1.469   .     S
C82    C86     1.394   .     A
C82    C88     1.408   .     A
C83    C85     1.394   .     A
C83    C92     1.403   .     A
C84    C93     1.401   .     A
C84    C86     1.390   .     A
C84    H217    1.084   .     S
C85    H137    1.083   .     S
C86    H135    1.072   .     S
C87    C89     1.418   .     A
C87    O146    1.386   .     S
C88    O156    1.384   .     S
C88    C91     1.420   .     A
C89    C92     1.416   .     A
C89    C94     1.427   .     A
C90    O151    1.290   .     A
C90    O149    1.287   .     A
C90    C109    1.435   .     S
C91    C93     1.418   .     A
C91    C95     1.431   .     A
C92    C808    1.392   .     S
C93    C809    1.391   1_554 S
C94    C105    1.412   .     A
C94    C797    1.423   .     S
C95    C101    1.414   .     A
C95    C796    1.423   1_554 S
C96    H115    1.110   .     S
C96    C97     1.523   .     S
C96    O156    1.419   .     S
C96    H116    1.118   .     S
C97    H117    1.109   .     S
C97    H119    1.110   .     S
C97    H586    1.110   1_545 S
C98    H121    1.111   .     S
C98    O146    1.418   .     S
C98    H120    1.117   .     S
C98    C99     1.523   .     S
C99    H122    1.109   .     S
C99    H125    1.109   .     S
C99    H357    1.110   .     S
C100   H126    1.111   .     S
C100   O147    1.417   .     S
C100   C102    1.524   .     S
C100   H595    1.114   1_545 S
C101   H140    1.077   .     S
C101   C106    1.390   .     A
C102   H130    1.110   .     S
C102   H129    1.108   .     S
C102   H128    1.110   .     S
C103   H131    1.118   .     S
C103   C104    1.513   .     S
C103   O148    1.411   .     S
C103   H366    1.111   .     S
C104   H133    1.111   .     S
C104   H136    1.107   .     S
C104   H134    1.107   .     S
C105   C107    1.386   .     A
C105   H141    1.078   .     S
C106   H113    1.084   .     S
C106   C794    1.392   1_554 S
C107   H124    1.085   .     S
C107   C795    1.391   .     S
C108   C343    1.351   .     S
C108   O381    1.392   .     S
C109   C576    1.351   1_545 S
C109   O616    1.386   1_545 S
C110   O152    1.302   .     A
C110   O154    1.296   .     A
Cu111  N144    2.019   .     S
Cu111  Cu112   2.688   .     S
Cu111  O151    1.973   .     S
Cu111  O145    1.976   .     S
Cu111  O155    1.915   .     S
Cu111  O152    1.939   .     S
Cu112  O153    1.939   .     S
Cu112  N143    2.019   .     S
Cu112  O150    1.973   .     S
Cu112  O149    1.976   .     S
Cu112  O154    1.915   .     S
H114   N222    1.029   .     S
H118   C331    1.110   .     S
H123   C567    1.110   1_545 S
H127   C334    1.114   .     S
H132   C571    1.111   1_545 S
H138   C161    1.084   .     S
N143   H220    1.029   .     S
N143   N222    1.275   .     S
O147   C576    1.392   1_545 S
O148   C343    1.386   .     S
C157   O228    1.288   .     A
C157   C186    1.443   .     S
C157   O223    1.292   .     A
C158   C160    1.473   .     S
C158   O233    1.293   .     A
C158   O231    1.306   .     A
C159   C163    1.400   .     A
C159   C165    1.406   .     A
C159   C188    1.469   .     S
C160   C164    1.394   .     A
C160   C166    1.408   .     A
C161   C163    1.394   .     A
C161   C170    1.403   .     A
C162   C171    1.401   .     A
C162   C164    1.390   .     A
C162   H61     1.084   1_655 S
C163   H215    1.083   .     S
C164   H213    1.072   .     S
C165   C167    1.418   .     A
C165   O224    1.386   .     S
C166   O234    1.384   .     S
C166   C169    1.420   .     A
C167   C170    1.416   .     A
C167   C172    1.427   .     A
C168   O229    1.290   .     A
C168   O227    1.287   .     A
C168   C187    1.435   .     S
C169   C171    1.418   .     A
C169   C173    1.431   .     A
C170   C886    1.392   .     S
C171   C887    1.391   1_554 S
C172   C183    1.412   .     A
C172   C875    1.423   .     S
C173   C179    1.414   .     A
C173   C874    1.423   1_554 S
C174   H193    1.110   .     S
C174   C175    1.523   .     S
C174   O234    1.419   .     S
C174   H194    1.118   .     S
C175   H195    1.109   .     S
C175   H197    1.110   .     S
C175   H664    1.110   1_545 S
C176   H199    1.111   .     S
C176   O224    1.418   .     S
C176   H198    1.117   .     S
C176   C177    1.523   .     S
C177   H200    1.109   .     S
C177   H203    1.109   .     S
C177   H435    1.110   .     S
C178   H204    1.111   .     S
C178   O225    1.417   .     S
C178   C180    1.524   .     S
C178   H673    1.114   1_545 S
C179   H218    1.077   .     S
C179   C184    1.390   .     A
C180   H208    1.110   .     S
C180   H207    1.108   .     S
C180   H206    1.110   .     S
C181   H209    1.118   .     S
C181   C182    1.513   .     S
C181   O226    1.411   .     S
C181   H444    1.111   .     S
C182   H211    1.111   .     S
C182   H214    1.107   .     S
C182   H212    1.107   .     S
C183   C185    1.386   .     A
C183   H219    1.078   .     S
C184   H191    1.084   .     S
C184   C872    1.392   1_554 S
C185   H202    1.085   .     S
C185   C873    1.391   .     S
C186   C421    1.351   .     S
C186   O459    1.392   .     S
C187   C654    1.351   1_545 S
C187   O694    1.386   1_545 S
C188   O230    1.302   .     A
C188   O232    1.296   .     A
Cu189  N222    2.019   .     S
Cu189  Cu190   2.688   .     S
Cu189  O229    1.973   .     S
Cu189  O223    1.976   .     S
Cu189  O233    1.915   .     S
Cu189  O230    1.939   .     S
Cu190  O231    1.939   .     S
Cu190  N221    2.019   .     S
Cu190  O228    1.973   .     S
Cu190  O227    1.976   .     S
Cu190  O232    1.915   .     S
H192   N66     1.029   1_655 S
H196   C409    1.110   .     S
H201   C645    1.110   1_545 S
H205   C412    1.114   .     S
H210   C649    1.111   1_545 S
H216   C5      1.084   1_655 S
N221   H64     1.029   1_655 S
N221   N66     1.275   1_655 S
O225   C654    1.392   1_545 S
O226   C421    1.386   .     S
C235   O306    1.288   .     A
C235   C264    1.443   .     S
C235   O301    1.292   .     A
C236   C238    1.473   .     S
C236   O311    1.293   .     A
C236   O309    1.306   .     A
C237   C241    1.400   .     A
C237   C243    1.406   .     A
C237   C266    1.469   .     S
C238   C242    1.394   .     A
C238   C244    1.408   .     A
C239   C241    1.394   .     A
C239   C248    1.403   .     A
C239   H450    1.084   1_455 S
C240   C249    1.401   .     A
C240   C242    1.390   .     A
C240   H373    1.084   .     S
C241   H293    1.083   .     S
C242   H291    1.072   .     S
C243   C245    1.418   .     A
C243   O302    1.386   .     S
C244   O312    1.384   .     S
C244   C247    1.420   .     A
C245   C248    1.416   .     A
C245   C250    1.427   .     A
C246   O307    1.290   .     A
C246   O305    1.287   .     A
C246   C265    1.435   .     S
C247   C249    1.418   .     A
C247   C251    1.431   .     A
C248   C964    1.392   .     S
C249   C965    1.391   1_554 S
C250   C261    1.412   .     A
C250   C953    1.423   .     S
C251   C257    1.414   .     A
C251   C952    1.423   1_554 S
C252   H271    1.110   .     S
C252   C253    1.523   .     S
C252   O312    1.419   .     S
C252   H272    1.118   .     S
C253   H273    1.109   .     S
C253   H275    1.110   .     S
C254   H277    1.111   .     S
C254   O302    1.418   .     S
C254   H276    1.117   .     S
C254   C255    1.523   .     S
C255   H278    1.109   .     S
C255   H281    1.109   .     S
C255   H513    1.110   .     S
C256   H282    1.111   .     S
C256   O303    1.417   .     S
C256   C258    1.524   .     S
C257   H296    1.077   .     S
C257   C262    1.390   .     A
C258   H286    1.110   .     S
C258   H285    1.108   .     S
C258   H284    1.110   .     S
C259   H287    1.118   .     S
C259   C260    1.513   .     S
C259   O304    1.411   .     S
C259   H522    1.111   .     S
C260   H289    1.111   .     S
C260   H292    1.107   .     S
C260   H290    1.107   .     S
C261   C263    1.386   .     A
C261   H297    1.078   .     S
C262   H269    1.084   .     S
C262   C950    1.392   1_554 S
C263   H280    1.085   .     S
C263   C951    1.391   .     S
C264   C499    1.351   .     S
C264   O537    1.392   .     S
C266   O308    1.302   .     A
C266   O310    1.296   .     A
Cu267  N300    2.019   .     S
Cu267  Cu268   2.688   .     S
Cu267  O307    1.973   .     S
Cu267  O301    1.976   .     S
Cu267  O311    1.915   .     S
Cu267  O308    1.939   .     S
Cu268  O309    1.939   .     S
Cu268  N299    2.019   .     S
Cu268  O306    1.973   .     S
Cu268  O305    1.976   .     S
Cu268  O310    1.915   .     S
H270   N378    1.029   .     S
H274   C487    1.110   .     S
H283   C490    1.114   .     S
H294   C317    1.084   .     S
H295   C396    1.084   1_455 S
H298   N455    1.029   1_455 S
N299   H376    1.029   .     S
N299   N378    1.275   .     S
N300   H426    1.029   1_455 S
N300   N455    1.275   1_455 S
O304   C499    1.386   .     S
C313   O384    1.288   .     A
C313   C342    1.443   .     S
C313   O379    1.292   .     A
C314   C316    1.473   .     S
C314   O389    1.293   .     A
C314   O387    1.306   .     A
C315   C319    1.400   .     A
C315   C321    1.406   .     A
C315   C344    1.469   .     S
C316   C320    1.394   .     A
C316   C322    1.408   .     A
C317   C319    1.394   .     A
C317   C326    1.403   .     A
C318   C327    1.401   .     A
C318   C320    1.390   .     A
C318   H451    1.084   .     S
C319   H371    1.083   .     S
C320   H369    1.072   .     S
C321   C323    1.418   .     A
C321   O380    1.386   .     S
C322   O390    1.384   .     S
C322   C325    1.420   .     A
C323   C326    1.416   .     A
C323   C328    1.427   .     A
C324   O385    1.290   .     A
C324   O383    1.287   .     A
C324   C343    1.435   .     S
C325   C327    1.418   .     A
C325   C329    1.431   .     A
C326   C1042   1.392   .     S
C327   C1043   1.391   1_554 S
C328   C339    1.412   .     A
C328   C1031   1.423   .     S
C329   C335    1.414   .     A
C329   C1030   1.423   1_554 S
C330   H349    1.110   .     S
C330   C331    1.523   .     S
C330   O390    1.419   .     S
C330   H350    1.118   .     S
C331   H351    1.109   .     S
C331   H353    1.110   .     S
C332   H355    1.111   .     S
C332   O380    1.418   .     S
C332   H354    1.117   .     S
C332   C333    1.523   .     S
C333   H356    1.109   .     S
C333   H359    1.109   .     S
C333   H591    1.110   .     S
C334   H360    1.111   .     S
C334   O381    1.417   .     S
C334   C336    1.524   .     S
C335   H374    1.077   .     S
C335   C340    1.390   .     A
C336   H364    1.110   .     S
C336   H363    1.108   .     S
C336   H362    1.110   .     S
C337   H365    1.118   .     S
C337   C338    1.513   .     S
C337   O382    1.411   .     S
C337   H600    1.111   .     S
C338   H367    1.111   .     S
C338   H370    1.107   .     S
C338   H368    1.107   .     S
C339   C341    1.386   .     A
C339   H375    1.078   .     S
C340   H347    1.084   .     S
C340   C1028   1.392   1_554 S
C341   H358    1.085   .     S
C341   C1029   1.391   .     S
C342   C577    1.351   .     S
C342   O615    1.392   .     S
C344   O386    1.302   .     A
C344   O388    1.296   .     A
Cu345  N378    2.019   .     S
Cu345  Cu346   2.688   .     S
Cu345  O385    1.973   .     S
Cu345  O379    1.976   .     S
Cu345  O389    1.915   .     S
Cu345  O386    1.939   .     S
Cu346  O387    1.939   .     S
Cu346  N377    2.019   .     S
Cu346  O384    1.973   .     S
Cu346  O383    1.976   .     S
Cu346  O388    1.915   .     S
H348   N456    1.029   .     S
H352   C565    1.110   .     S
H361   C568    1.114   .     S
H372   C395    1.084   .     S
N377   H454    1.029   .     S
N377   N456    1.275   .     S
O382   C577    1.386   .     S
C391   O462    1.288   .     A
C391   C420    1.443   .     S
C391   O457    1.292   .     A
C392   C394    1.473   .     S
C392   O467    1.293   .     A
C392   O465    1.306   .     A
C393   C397    1.400   .     A
C393   C399    1.406   .     A
C393   C422    1.469   .     S
C394   C398    1.394   .     A
C394   C400    1.408   .     A
C395   C397    1.394   .     A
C395   C404    1.403   .     A
C396   C405    1.401   .     A
C396   C398    1.390   .     A
C396   H295    1.084   1_655 S
C397   H449    1.083   .     S
C398   H447    1.072   .     S
C399   C401    1.418   .     A
C399   O458    1.386   .     S
C400   O468    1.384   .     S
C400   C403    1.420   .     A
C401   C404    1.416   .     A
C401   C406    1.427   .     A
C402   O463    1.290   .     A
C402   O461    1.287   .     A
C402   C421    1.435   .     S
C403   C405    1.418   .     A
C403   C407    1.431   .     A
C404   C1120   1.392   .     S
C405   C1121   1.391   1_554 S
C406   C417    1.412   .     A
C406   C1109   1.423   .     S
C407   C413    1.414   .     A
C407   C1108   1.423   1_554 S
C408   H427    1.110   .     S
C408   C409    1.523   .     S
C408   O468    1.419   .     S
C408   H428    1.118   .     S
C409   H429    1.109   .     S
C409   H431    1.110   .     S
C410   H433    1.111   .     S
C410   O458    1.418   .     S
C410   H432    1.117   .     S
C410   C411    1.523   .     S
C411   H434    1.109   .     S
C411   H437    1.109   .     S
C411   H669    1.110   .     S
C412   H438    1.111   .     S
C412   O459    1.417   .     S
C412   C414    1.524   .     S
C413   H452    1.077   .     S
C413   C418    1.390   .     A
C414   H442    1.110   .     S
C414   H441    1.108   .     S
C414   H440    1.110   .     S
C415   H443    1.118   .     S
C415   C416    1.513   .     S
C415   O460    1.411   .     S
C415   H678    1.111   .     S
C416   H445    1.111   .     S
C416   H448    1.107   .     S
C416   H446    1.107   .     S
C417   C419    1.386   .     A
C417   H453    1.078   .     S
C418   H425    1.084   .     S
C418   C1106   1.392   1_554 S
C419   H436    1.085   .     S
C419   C1107   1.391   .     S
C420   C655    1.351   .     S
C420   O693    1.392   .     S
C422   O464    1.302   .     A
C422   O466    1.296   .     A
Cu423  N456    2.019   .     S
Cu423  Cu424   2.688   .     S
Cu423  O463    1.973   .     S
Cu423  O457    1.976   .     S
Cu423  O467    1.915   .     S
Cu423  O464    1.939   .     S
Cu424  O465    1.939   .     S
Cu424  N455    2.019   .     S
Cu424  O462    1.973   .     S
Cu424  O461    1.976   .     S
Cu424  O466    1.915   .     S
H426   N300    1.029   1_655 S
H430   C643    1.110   .     S
H439   C646    1.114   .     S
H450   C239    1.084   1_655 S
N455   H298    1.029   1_655 S
N455   N300    1.275   1_655 S
O460   C655    1.386   .     S
C469   O540    1.288   .     A
C469   C498    1.443   .     S
C469   O535    1.292   .     A
C470   C472    1.473   .     S
C470   O545    1.293   .     A
C470   O543    1.306   .     A
C471   C475    1.400   .     A
C471   C477    1.406   .     A
C471   C500    1.469   .     S
C472   C476    1.394   .     A
C472   C478    1.408   .     A
C473   C475    1.394   .     A
C473   C482    1.403   .     A
C473   H684    1.084   1_455 S
C474   C483    1.401   .     A
C474   C476    1.390   .     A
C474   H607    1.084   .     S
C475   H527    1.083   .     S
C476   H525    1.072   .     S
C477   C479    1.418   .     A
C477   O536    1.386   .     S
C478   O546    1.384   .     S
C478   C481    1.420   .     A
C479   C482    1.416   .     A
C479   C484    1.427   .     A
C480   O541    1.290   .     A
C480   O539    1.287   .     A
C480   C499    1.435   .     S
C481   C483    1.418   .     A
C481   C485    1.431   .     A
C482   C1198   1.392   .     S
C483   C1199   1.391   1_554 S
C484   C495    1.412   .     A
C484   C1187   1.423   .     S
C485   C491    1.414   .     A
C485   C1186   1.423   1_554 S
C486   H505    1.110   .     S
C486   C487    1.523   .     S
C486   O546    1.419   .     S
C486   H506    1.118   .     S
C487   H507    1.109   .     S
C487   H509    1.110   .     S
C488   H511    1.111   .     S
C488   O536    1.418   .     S
C488   H510    1.117   .     S
C488   C489    1.523   .     S
C489   H512    1.109   .     S
C489   H515    1.109   .     S
C489   H45     1.110   1_565 S
C490   H516    1.111   .     S
C490   O537    1.417   .     S
C490   C492    1.524   .     S
C491   H530    1.077   .     S
C491   C496    1.390   .     A
C492   H520    1.110   .     S
C492   H519    1.108   .     S
C492   H518    1.110   .     S
C493   H521    1.118   .     S
C493   C494    1.513   .     S
C493   O538    1.411   .     S
C493   H54     1.111   1_565 S
C494   H523    1.111   .     S
C494   H526    1.107   .     S
C494   H524    1.107   .     S
C495   C497    1.386   .     A
C495   H531    1.078   .     S
C496   H503    1.084   .     S
C496   C1184   1.392   1_554 S
C497   H514    1.085   .     S
C497   C1185   1.391   .     S
C498   C31     1.351   1_565 S
C498   O69     1.392   1_565 S
C500   O542    1.302   .     A
C500   O544    1.296   .     A
Cu501  N534    2.019   .     S
Cu501  Cu502   2.688   .     S
Cu501  O541    1.973   .     S
Cu501  O535    1.976   .     S
Cu501  O545    1.915   .     S
Cu501  O542    1.939   .     S
Cu502  O543    1.939   .     S
Cu502  N533    2.019   .     S
Cu502  O540    1.973   .     S
Cu502  O539    1.976   .     S
Cu502  O544    1.915   .     S
H504   N612    1.029   .     S
H508   C19     1.110   1_565 S
H517   C22     1.114   1_565 S
H528   C551    1.084   .     S
H529   C630    1.084   1_455 S
H532   N689    1.029   1_455 S
N533   H610    1.029   .     S
N533   N612    1.275   .     S
N534   H660    1.029   1_455 S
N534   N689    1.275   1_455 S
O538   C31     1.386   1_565 S
C547   O618    1.288   .     A
C547   C576    1.443   .     S
C547   O613    1.292   .     A
C548   C550    1.473   .     S
C548   O623    1.293   .     A
C548   O621    1.306   .     A
C549   C553    1.400   .     A
C549   C555    1.406   .     A
C549   C578    1.469   .     S
C550   C554    1.394   .     A
C550   C556    1.408   .     A
C551   C553    1.394   .     A
C551   C560    1.403   .     A
C552   C561    1.401   .     A
C552   C554    1.390   .     A
C552   H685    1.084   .     S
C553   H605    1.083   .     S
C554   H603    1.072   .     S
C555   C557    1.418   .     A
C555   O614    1.386   .     S
C556   O624    1.384   .     S
C556   C559    1.420   .     A
C557   C560    1.416   .     A
C557   C562    1.427   .     A
C558   O619    1.290   .     A
C558   O617    1.287   .     A
C558   C577    1.435   .     S
C559   C561    1.418   .     A
C559   C563    1.431   .     A
C560   C1276   1.392   .     S
C561   C1277   1.391   1_554 S
C562   C573    1.412   .     A
C562   C1265   1.423   .     S
C563   C569    1.414   .     A
C563   C1264   1.423   1_554 S
C564   H583    1.110   .     S
C564   C565    1.523   .     S
C564   O624    1.419   .     S
C564   H584    1.118   .     S
C565   H585    1.109   .     S
C565   H587    1.110   .     S
C566   H589    1.111   .     S
C566   O614    1.418   .     S
C566   H588    1.117   .     S
C566   C567    1.523   .     S
C567   H590    1.109   .     S
C567   H593    1.109   .     S
C567   H123    1.110   1_565 S
C568   H594    1.111   .     S
C568   O615    1.417   .     S
C568   C570    1.524   .     S
C569   H608    1.077   .     S
C569   C574    1.390   .     A
C570   H598    1.110   .     S
C570   H597    1.108   .     S
C570   H596    1.110   .     S
C571   H599    1.118   .     S
C571   C572    1.513   .     S
C571   O616    1.411   .     S
C571   H132    1.111   1_565 S
C572   H601    1.111   .     S
C572   H604    1.107   .     S
C572   H602    1.107   .     S
C573   C575    1.386   .     A
C573   H609    1.078   .     S
C574   H581    1.084   .     S
C574   C1262   1.392   1_554 S
C575   H592    1.085   .     S
C575   C1263   1.391   .     S
C576   C109    1.351   1_565 S
C576   O147    1.392   1_565 S
C578   O620    1.302   .     A
C578   O622    1.296   .     A
Cu579  N612    2.019   .     S
Cu579  Cu580   2.688   .     S
Cu579  O619    1.973   .     S
Cu579  O613    1.976   .     S
Cu579  O623    1.915   .     S
Cu579  O620    1.939   .     S
Cu580  O621    1.939   .     S
Cu580  N611    2.019   .     S
Cu580  O618    1.973   .     S
Cu580  O617    1.976   .     S
Cu580  O622    1.915   .     S
H582   N690    1.029   .     S
H586   C97     1.110   1_565 S
H595   C100    1.114   1_565 S
H606   C629    1.084   .     S
N611   H688    1.029   .     S
N611   N690    1.275   .     S
O616   C109    1.386   1_565 S
C625   O696    1.288   .     A
C625   C654    1.443   .     S
C625   O691    1.292   .     A
C626   C628    1.473   .     S
C626   O701    1.293   .     A
C626   O699    1.306   .     A
C627   C631    1.400   .     A
C627   C633    1.406   .     A
C627   C656    1.469   .     S
C628   C632    1.394   .     A
C628   C634    1.408   .     A
C629   C631    1.394   .     A
C629   C638    1.403   .     A
C630   C639    1.401   .     A
C630   C632    1.390   .     A
C630   H529    1.084   1_655 S
C631   H683    1.083   .     S
C632   H681    1.072   .     S
C633   C635    1.418   .     A
C633   O692    1.386   .     S
C634   O702    1.384   .     S
C634   C637    1.420   .     A
C635   C638    1.416   .     A
C635   C640    1.427   .     A
C636   O697    1.290   .     A
C636   O695    1.287   .     A
C636   C655    1.435   .     S
C637   C639    1.418   .     A
C637   C641    1.431   .     A
C638   C1354   1.392   .     S
C639   C1355   1.391   1_554 S
C640   C651    1.412   .     A
C640   C1343   1.423   .     S
C641   C647    1.414   .     A
C641   C1342   1.423   1_554 S
C642   H661    1.110   .     S
C642   C643    1.523   .     S
C642   O702    1.419   .     S
C642   H662    1.118   .     S
C643   H663    1.109   .     S
C643   H665    1.110   .     S
C644   H667    1.111   .     S
C644   O692    1.418   .     S
C644   H666    1.117   .     S
C644   C645    1.523   .     S
C645   H668    1.109   .     S
C645   H671    1.109   .     S
C645   H201    1.110   1_565 S
C646   H672    1.111   .     S
C646   O693    1.417   .     S
C646   C648    1.524   .     S
C647   H686    1.077   .     S
C647   C652    1.390   .     A
C648   H676    1.110   .     S
C648   H675    1.108   .     S
C648   H674    1.110   .     S
C649   H677    1.118   .     S
C649   C650    1.513   .     S
C649   O694    1.411   .     S
C649   H210    1.111   1_565 S
C650   H679    1.111   .     S
C650   H682    1.107   .     S
C650   H680    1.107   .     S
C651   C653    1.386   .     A
C651   H687    1.078   .     S
C652   H659    1.084   .     S
C652   C1340   1.392   1_554 S
C653   H670    1.085   .     S
C653   C1341   1.391   .     S
C654   C187    1.351   1_565 S
C654   O225    1.392   1_565 S
C656   O698    1.302   .     A
C656   O700    1.296   .     A
Cu657  N690    2.019   .     S
Cu657  Cu658   2.688   .     S
Cu657  O697    1.973   .     S
Cu657  O691    1.976   .     S
Cu657  O701    1.915   .     S
Cu657  O698    1.939   .     S
Cu658  O699    1.939   .     S
Cu658  N689    2.019   .     S
Cu658  O696    1.973   .     S
Cu658  O695    1.976   .     S
Cu658  O700    1.915   .     S
H660   N534    1.029   1_655 S
H664   C175    1.110   1_565 S
H673   C178    1.114   1_565 S
H684   C473    1.084   1_655 S
N689   H532    1.029   1_655 S
N689   N534    1.275   1_655 S
O694   C187    1.386   1_565 S
C703   O774    1.288   .     A
C703   C732    1.443   .     S
C703   O769    1.292   .     A
C704   C706    1.473   .     S
C704   O779    1.293   .     A
C704   O777    1.306   .     A
C705   C709    1.400   .     A
C705   C711    1.406   .     A
C705   C734    1.469   .     S
C706   C710    1.394   .     A
C706   C712    1.408   .     A
C707   C709    1.394   .     A
C707   C716    1.403   .     A
C707   H918    1.084   1_455 S
C708   C717    1.401   .     A
C708   C710    1.390   .     A
C708   H841    1.084   .     S
C709   H761    1.083   .     S
C710   H759    1.072   .     S
C711   C713    1.418   .     A
C711   O770    1.386   .     S
C712   O780    1.384   .     S
C712   C715    1.420   .     A
C713   C716    1.416   .     A
C713   C718    1.427   .     A
C714   O775    1.290   .     A
C714   O773    1.287   .     A
C714   C733    1.435   .     S
C715   C717    1.418   .     A
C715   C719    1.431   .     A
C716   C28     1.392   1_556 S
C718   C729    1.412   .     A
C718   C17     1.423   1_556 S
C719   C725    1.414   .     A
C720   H739    1.110   .     S
C720   C721    1.523   .     S
C720   O780    1.419   .     S
C720   H740    1.118   .     S
C721   H741    1.109   .     S
C721   H743    1.110   .     S
C721   H1210   1.110   1_545 S
C722   H745    1.111   .     S
C722   O770    1.418   .     S
C722   H744    1.117   .     S
C722   C723    1.523   .     S
C723   H746    1.109   .     S
C723   H749    1.109   .     S
C723   H981    1.110   .     S
C724   H750    1.111   .     S
C724   O771    1.417   .     S
C724   C726    1.524   .     S
C724   H1219   1.114   1_545 S
C725   H764    1.077   .     S
C725   C730    1.390   .     A
C726   H754    1.110   .     S
C726   H753    1.108   .     S
C726   H752    1.110   .     S
C727   H755    1.118   .     S
C727   C728    1.513   .     S
C727   O772    1.411   .     S
C727   H990    1.111   .     S
C728   H757    1.111   .     S
C728   H760    1.107   .     S
C728   H758    1.107   .     S
C729   C731    1.386   .     A
C729   H765    1.078   .     S
C730   H737    1.084   .     S
C731   H748    1.085   .     S
C731   C15     1.391   1_556 S
C732   C967    1.351   .     S
C732   O1005   1.392   .     S
C733   C1200   1.351   1_545 S
C733   O1240   1.386   1_545 S
C734   O776    1.302   .     A
C734   O778    1.296   .     A
Cu735  N768    2.019   .     S
Cu735  Cu736   2.688   .     S
Cu735  O775    1.973   .     S
Cu735  O769    1.976   .     S
Cu735  O779    1.915   .     S
Cu735  O776    1.939   .     S
Cu736  O777    1.939   .     S
Cu736  N767    2.019   .     S
Cu736  O774    1.973   .     S
Cu736  O773    1.976   .     S
Cu736  O778    1.915   .     S
H738   N846    1.029   .     S
H742   C955    1.110   .     S
H747   C1191   1.110   1_545 S
H751   C958    1.114   .     S
H756   C1195   1.111   1_545 S
H762   C785    1.084   .     S
H763   C864    1.084   1_455 S
H766   N923    1.029   1_455 S
N767   H844    1.029   .     S
N767   N846    1.275   .     S
N768   H894    1.029   1_455 S
N768   N923    1.275   1_455 S
O771   C1200   1.392   1_545 S
O772   C967    1.386   .     S
C781   O852    1.288   .     A
C781   C810    1.443   .     S
C781   O847    1.292   .     A
C782   C784    1.473   .     S
C782   O857    1.293   .     A
C782   O855    1.306   .     A
C783   C787    1.400   .     A
C783   C789    1.406   .     A
C783   C812    1.469   .     S
C784   C788    1.394   .     A
C784   C790    1.408   .     A
C785   C787    1.394   .     A
C785   C794    1.403   .     A
C786   C795    1.401   .     A
C786   C788    1.390   .     A
C786   H919    1.084   .     S
C787   H839    1.083   .     S
C788   H837    1.072   .     S
C789   C791    1.418   .     A
C789   O848    1.386   .     S
C790   O858    1.384   .     S
C790   C793    1.420   .     A
C791   C794    1.416   .     A
C791   C796    1.427   .     A
C792   O853    1.290   .     A
C792   O851    1.287   .     A
C792   C811    1.435   .     S
C793   C795    1.418   .     A
C793   C797    1.431   .     A
C794   C106    1.392   1_556 S
C796   C807    1.412   .     A
C796   C95     1.423   1_556 S
C797   C803    1.414   .     A
C798   H817    1.110   .     S
C798   C799    1.523   .     S
C798   O858    1.419   .     S
C798   H818    1.118   .     S
C799   H819    1.109   .     S
C799   H821    1.110   .     S
C799   H1288   1.110   1_545 S
C800   H823    1.111   .     S
C800   O848    1.418   .     S
C800   H822    1.117   .     S
C800   C801    1.523   .     S
C801   H824    1.109   .     S
C801   H827    1.109   .     S
C801   H1059   1.110   .     S
C802   H828    1.111   .     S
C802   O849    1.417   .     S
C802   C804    1.524   .     S
C802   H1297   1.114   1_545 S
C803   H842    1.077   .     S
C803   C808    1.390   .     A
C804   H832    1.110   .     S
C804   H831    1.108   .     S
C804   H830    1.110   .     S
C805   H833    1.118   .     S
C805   C806    1.513   .     S
C805   O850    1.411   .     S
C805   H1068   1.111   .     S
C806   H835    1.111   .     S
C806   H838    1.107   .     S
C806   H836    1.107   .     S
C807   C809    1.386   .     A
C807   H843    1.078   .     S
C808   H815    1.084   .     S
C809   H826    1.085   .     S
C809   C93     1.391   1_556 S
C810   C1045   1.351   .     S
C810   O1083   1.392   .     S
C811   C1278   1.351   1_545 S
C811   O1318   1.386   1_545 S
C812   O854    1.302   .     A
C812   O856    1.296   .     A
Cu813  N846    2.019   .     S
Cu813  Cu814   2.688   .     S
Cu813  O853    1.973   .     S
Cu813  O847    1.976   .     S
Cu813  O857    1.915   .     S
Cu813  O854    1.939   .     S
Cu814  O855    1.939   .     S
Cu814  N845    2.019   .     S
Cu814  O852    1.973   .     S
Cu814  O851    1.976   .     S
Cu814  O856    1.915   .     S
H816   N924    1.029   .     S
H820   C1033   1.110   .     S
H825   C1269   1.110   1_545 S
H829   C1036   1.114   .     S
H834   C1273   1.111   1_545 S
H840   C863    1.084   .     S
N845   H922    1.029   .     S
N845   N924    1.275   .     S
O849   C1278   1.392   1_545 S
O850   C1045   1.386   .     S
C859   O930    1.288   .     A
C859   C888    1.443   .     S
C859   O925    1.292   .     A
C860   C862    1.473   .     S
C860   O935    1.293   .     A
C860   O933    1.306   .     A
C861   C865    1.400   .     A
C861   C867    1.406   .     A
C861   C890    1.469   .     S
C862   C866    1.394   .     A
C862   C868    1.408   .     A
C863   C865    1.394   .     A
C863   C872    1.403   .     A
C864   C873    1.401   .     A
C864   C866    1.390   .     A
C864   H763    1.084   1_655 S
C865   H917    1.083   .     S
C866   H915    1.072   .     S
C867   C869    1.418   .     A
C867   O926    1.386   .     S
C868   O936    1.384   .     S
C868   C871    1.420   .     A
C869   C872    1.416   .     A
C869   C874    1.427   .     A
C870   O931    1.290   .     A
C870   O929    1.287   .     A
C870   C889    1.435   .     S
C871   C873    1.418   .     A
C871   C875    1.431   .     A
C872   C184    1.392   1_556 S
C874   C885    1.412   .     A
C874   C173    1.423   1_556 S
C875   C881    1.414   .     A
C876   H895    1.110   .     S
C876   C877    1.523   .     S
C876   O936    1.419   .     S
C876   H896    1.118   .     S
C877   H897    1.109   .     S
C877   H899    1.110   .     S
C877   H1366   1.110   1_545 S
C878   H901    1.111   .     S
C878   O926    1.418   .     S
C878   H900    1.117   .     S
C878   C879    1.523   .     S
C879   H902    1.109   .     S
C879   H905    1.109   .     S
C879   H1137   1.110   .     S
C880   H906    1.111   .     S
C880   O927    1.417   .     S
C880   C882    1.524   .     S
C880   H1375   1.114   1_545 S
C881   H920    1.077   .     S
C881   C886    1.390   .     A
C882   H910    1.110   .     S
C882   H909    1.108   .     S
C882   H908    1.110   .     S
C883   H911    1.118   .     S
C883   C884    1.513   .     S
C883   O928    1.411   .     S
C883   H1146   1.111   .     S
C884   H913    1.111   .     S
C884   H916    1.107   .     S
C884   H914    1.107   .     S
C885   C887    1.386   .     A
C885   H921    1.078   .     S
C886   H893    1.084   .     S
C887   H904    1.085   .     S
C887   C171    1.391   1_556 S
C888   C1123   1.351   .     S
C888   O1161   1.392   .     S
C889   C1356   1.351   1_545 S
C889   O1396   1.386   1_545 S
C890   O932    1.302   .     A
C890   O934    1.296   .     A
Cu891  N924    2.019   .     S
Cu891  Cu892   2.688   .     S
Cu891  O931    1.973   .     S
Cu891  O925    1.976   .     S
Cu891  O935    1.915   .     S
Cu891  O932    1.939   .     S
Cu892  O933    1.939   .     S
Cu892  N923    2.019   .     S
Cu892  O930    1.973   .     S
Cu892  O929    1.976   .     S
Cu892  O934    1.915   .     S
H894   N768    1.029   1_655 S
H898   C1111   1.110   .     S
H903   C1347   1.110   1_545 S
H907   C1114   1.114   .     S
H912   C1351   1.111   1_545 S
H918   C707    1.084   1_655 S
N923   H766    1.029   1_655 S
N923   N768    1.275   1_655 S
O927   C1356   1.392   1_545 S
O928   C1123   1.386   .     S
C937   O1008   1.288   .     A
C937   C966    1.443   .     S
C937   O1003   1.292   .     A
C938   C940    1.473   .     S
C938   O1013   1.293   .     A
C938   O1011   1.306   .     A
C939   C943    1.400   .     A
C939   C945    1.406   .     A
C939   C968    1.469   .     S
C940   C944    1.394   .     A
C940   C946    1.408   .     A
C941   C943    1.394   .     A
C941   C950    1.403   .     A
C941   H1152   1.084   1_455 S
C942   C951    1.401   .     A
C942   C944    1.390   .     A
C942   H1075   1.084   .     S
C943   H995    1.083   .     S
C944   H993    1.072   .     S
C945   C947    1.418   .     A
C945   O1004   1.386   .     S
C946   O1014   1.384   .     S
C946   C949    1.420   .     A
C947   C950    1.416   .     A
C947   C952    1.427   .     A
C948   O1009   1.290   .     A
C948   O1007   1.287   .     A
C948   C967    1.435   .     S
C949   C951    1.418   .     A
C949   C953    1.431   .     A
C950   C262    1.392   1_556 S
C952   C963    1.412   .     A
C952   C251    1.423   1_556 S
C953   C959    1.414   .     A
C954   H973    1.110   .     S
C954   C955    1.523   .     S
C954   O1014   1.419   .     S
C954   H974    1.118   .     S
C955   H975    1.109   .     S
C955   H977    1.110   .     S
C956   H979    1.111   .     S
C956   O1004   1.418   .     S
C956   H978    1.117   .     S
C956   C957    1.523   .     S
C957   H980    1.109   .     S
C957   H983    1.109   .     S
C957   H1215   1.110   .     S
C958   H984    1.111   .     S
C958   O1005   1.417   .     S
C958   C960    1.524   .     S
C959   H998    1.077   .     S
C959   C964    1.390   .     A
C960   H988    1.110   .     S
C960   H987    1.108   .     S
C960   H986    1.110   .     S
C961   H989    1.118   .     S
C961   C962    1.513   .     S
C961   O1006   1.411   .     S
C961   H1224   1.111   .     S
C962   H991    1.111   .     S
C962   H994    1.107   .     S
C962   H992    1.107   .     S
C963   C965    1.386   .     A
C963   H999    1.078   .     S
C964   H971    1.084   .     S
C965   H982    1.085   .     S
C965   C249    1.391   1_556 S
C966   C1201   1.351   .     S
C966   O1239   1.392   .     S
C968   O1010   1.302   .     A
C968   O1012   1.296   .     A
Cu969  N1002   2.019   .     S
Cu969  Cu970   2.688   .     S
Cu969  O1009   1.973   .     S
Cu969  O1003   1.976   .     S
Cu969  O1013   1.915   .     S
Cu969  O1010   1.939   .     S
Cu970  O1011   1.939   .     S
Cu970  N1001   2.019   .     S
Cu970  O1008   1.973   .     S
Cu970  O1007   1.976   .     S
Cu970  O1012   1.915   .     S
H972   N1080   1.029   .     S
H976   C1189   1.110   .     S
H985   C1192   1.114   .     S
H996   C1019   1.084   .     S
H997   C1098   1.084   1_455 S
H1000  N1157   1.029   1_455 S
N1001  H1078   1.029   .     S
N1001  N1080   1.275   .     S
N1002  H1128   1.029   1_455 S
N1002  N1157   1.275   1_455 S
O1006  C1201   1.386   .     S
C1015  O1086   1.288   .     A
C1015  C1044   1.443   .     S
C1015  O1081   1.292   .     A
C1016  C1018   1.473   .     S
C1016  O1091   1.293   .     A
C1016  O1089   1.306   .     A
C1017  C1021   1.400   .     A
C1017  C1023   1.406   .     A
C1017  C1046   1.469   .     S
C1018  C1022   1.394   .     A
C1018  C1024   1.408   .     A
C1019  C1021   1.394   .     A
C1019  C1028   1.403   .     A
C1020  C1029   1.401   .     A
C1020  C1022   1.390   .     A
C1020  H1153   1.084   .     S
C1021  H1073   1.083   .     S
C1022  H1071   1.072   .     S
C1023  C1025   1.418   .     A
C1023  O1082   1.386   .     S
C1024  O1092   1.384   .     S
C1024  C1027   1.420   .     A
C1025  C1028   1.416   .     A
C1025  C1030   1.427   .     A
C1026  O1087   1.290   .     A
C1026  O1085   1.287   .     A
C1026  C1045   1.435   .     S
C1027  C1029   1.418   .     A
C1027  C1031   1.431   .     A
C1028  C340    1.392   1_556 S
C1030  C1041   1.412   .     A
C1030  C329    1.423   1_556 S
C1031  C1037   1.414   .     A
C1032  H1051   1.110   .     S
C1032  C1033   1.523   .     S
C1032  O1092   1.419   .     S
C1032  H1052   1.118   .     S
C1033  H1053   1.109   .     S
C1033  H1055   1.110   .     S
C1034  H1057   1.111   .     S
C1034  O1082   1.418   .     S
C1034  H1056   1.117   .     S
C1034  C1035   1.523   .     S
C1035  H1058   1.109   .     S
C1035  H1061   1.109   .     S
C1035  H1293   1.110   .     S
C1036  H1062   1.111   .     S
C1036  O1083   1.417   .     S
C1036  C1038   1.524   .     S
C1037  H1076   1.077   .     S
C1037  C1042   1.390   .     A
C1038  H1066   1.110   .     S
C1038  H1065   1.108   .     S
C1038  H1064   1.110   .     S
C1039  H1067   1.118   .     S
C1039  C1040   1.513   .     S
C1039  O1084   1.411   .     S
C1039  H1302   1.111   .     S
C1040  H1069   1.111   .     S
C1040  H1072   1.107   .     S
C1040  H1070   1.107   .     S
C1041  C1043   1.386   .     A
C1041  H1077   1.078   .     S
C1042  H1049   1.084   .     S
C1043  H1060   1.085   .     S
C1043  C327    1.391   1_556 S
C1044  C1279   1.351   .     S
C1044  O1317   1.392   .     S
C1046  O1088   1.302   .     A
C1046  O1090   1.296   .     A
Cu1047 N1080   2.019   .     S
Cu1047 Cu1048  2.688   .     S
Cu1047 O1087   1.973   .     S
Cu1047 O1081   1.976   .     S
Cu1047 O1091   1.915   .     S
Cu1047 O1088   1.939   .     S
Cu1048 O1089   1.939   .     S
Cu1048 N1079   2.019   .     S
Cu1048 O1086   1.973   .     S
Cu1048 O1085   1.976   .     S
Cu1048 O1090   1.915   .     S
H1050  N1158   1.029   .     S
H1054  C1267   1.110   .     S
H1063  C1270   1.114   .     S
H1074  C1097   1.084   .     S
N1079  H1156   1.029   .     S
N1079  N1158   1.275   .     S
O1084  C1279   1.386   .     S
C1093  O1164   1.288   .     A
C1093  C1122   1.443   .     S
C1093  O1159   1.292   .     A
C1094  C1096   1.473   .     S
C1094  O1169   1.293   .     A
C1094  O1167   1.306   .     A
C1095  C1099   1.400   .     A
C1095  C1101   1.406   .     A
C1095  C1124   1.469   .     S
C1096  C1100   1.394   .     A
C1096  C1102   1.408   .     A
C1097  C1099   1.394   .     A
C1097  C1106   1.403   .     A
C1098  C1107   1.401   .     A
C1098  C1100   1.390   .     A
C1098  H997    1.084   1_655 S
C1099  H1151   1.083   .     S
C1100  H1149   1.072   .     S
C1101  C1103   1.418   .     A
C1101  O1160   1.386   .     S
C1102  O1170   1.384   .     S
C1102  C1105   1.420   .     A
C1103  C1106   1.416   .     A
C1103  C1108   1.427   .     A
C1104  O1165   1.290   .     A
C1104  O1163   1.287   .     A
C1104  C1123   1.435   .     S
C1105  C1107   1.418   .     A
C1105  C1109   1.431   .     A
C1106  C418    1.392   1_556 S
C1108  C1119   1.412   .     A
C1108  C407    1.423   1_556 S
C1109  C1115   1.414   .     A
C1110  H1129   1.110   .     S
C1110  C1111   1.523   .     S
C1110  O1170   1.419   .     S
C1110  H1130   1.118   .     S
C1111  H1131   1.109   .     S
C1111  H1133   1.110   .     S
C1112  H1135   1.111   .     S
C1112  O1160   1.418   .     S
C1112  H1134   1.117   .     S
C1112  C1113   1.523   .     S
C1113  H1136   1.109   .     S
C1113  H1139   1.109   .     S
C1113  H1371   1.110   .     S
C1114  H1140   1.111   .     S
C1114  O1161   1.417   .     S
C1114  C1116   1.524   .     S
C1115  H1154   1.077   .     S
C1115  C1120   1.390   .     A
C1116  H1144   1.110   .     S
C1116  H1143   1.108   .     S
C1116  H1142   1.110   .     S
C1117  H1145   1.118   .     S
C1117  C1118   1.513   .     S
C1117  O1162   1.411   .     S
C1117  H1380   1.111   .     S
C1118  H1147   1.111   .     S
C1118  H1150   1.107   .     S
C1118  H1148   1.107   .     S
C1119  C1121   1.386   .     A
C1119  H1155   1.078   .     S
C1120  H1127   1.084   .     S
C1121  H1138   1.085   .     S
C1121  C405    1.391   1_556 S
C1122  C1357   1.351   .     S
C1122  O1395   1.392   .     S
C1124  O1166   1.302   .     A
C1124  O1168   1.296   .     A
Cu1125 N1158   2.019   .     S
Cu1125 Cu1126  2.688   .     S
Cu1125 O1165   1.973   .     S
Cu1125 O1159   1.976   .     S
Cu1125 O1169   1.915   .     S
Cu1125 O1166   1.939   .     S
Cu1126 O1167   1.939   .     S
Cu1126 N1157   2.019   .     S
Cu1126 O1164   1.973   .     S
Cu1126 O1163   1.976   .     S
Cu1126 O1168   1.915   .     S
H1128  N1002   1.029   1_655 S
H1132  C1345   1.110   .     S
H1141  C1348   1.114   .     S
H1152  C941    1.084   1_655 S
N1157  H1000   1.029   1_655 S
N1157  N1002   1.275   1_655 S
O1162  C1357   1.386   .     S
C1171  O1242   1.288   .     A
C1171  C1200   1.443   .     S
C1171  O1237   1.292   .     A
C1172  C1174   1.473   .     S
C1172  O1247   1.293   .     A
C1172  O1245   1.306   .     A
C1173  C1177   1.400   .     A
C1173  C1179   1.406   .     A
C1173  C1202   1.469   .     S
C1174  C1178   1.394   .     A
C1174  C1180   1.408   .     A
C1175  C1177   1.394   .     A
C1175  C1184   1.403   .     A
C1175  H1386   1.084   1_455 S
C1176  C1185   1.401   .     A
C1176  C1178   1.390   .     A
C1176  H1309   1.084   .     S
C1177  H1229   1.083   .     S
C1178  H1227   1.072   .     S
C1179  C1181   1.418   .     A
C1179  O1238   1.386   .     S
C1180  O1248   1.384   .     S
C1180  C1183   1.420   .     A
C1181  C1184   1.416   .     A
C1181  C1186   1.427   .     A
C1182  O1243   1.290   .     A
C1182  O1241   1.287   .     A
C1182  C1201   1.435   .     S
C1183  C1185   1.418   .     A
C1183  C1187   1.431   .     A
C1184  C496    1.392   1_556 S
C1186  C1197   1.412   .     A
C1186  C485    1.423   1_556 S
C1187  C1193   1.414   .     A
C1188  H1207   1.110   .     S
C1188  C1189   1.523   .     S
C1188  O1248   1.419   .     S
C1188  H1208   1.118   .     S
C1189  H1209   1.109   .     S
C1189  H1211   1.110   .     S
C1190  H1213   1.111   .     S
C1190  O1238   1.418   .     S
C1190  H1212   1.117   .     S
C1190  C1191   1.523   .     S
C1191  H1214   1.109   .     S
C1191  H1217   1.109   .     S
C1191  H747    1.110   1_565 S
C1192  H1218   1.111   .     S
C1192  O1239   1.417   .     S
C1192  C1194   1.524   .     S
C1193  H1232   1.077   .     S
C1193  C1198   1.390   .     A
C1194  H1222   1.110   .     S
C1194  H1221   1.108   .     S
C1194  H1220   1.110   .     S
C1195  H1223   1.118   .     S
C1195  C1196   1.513   .     S
C1195  O1240   1.411   .     S
C1195  H756    1.111   1_565 S
C1196  H1225   1.111   .     S
C1196  H1228   1.107   .     S
C1196  H1226   1.107   .     S
C1197  C1199   1.386   .     A
C1197  H1233   1.078   .     S
C1198  H1205   1.084   .     S
C1199  H1216   1.085   .     S
C1199  C483    1.391   1_556 S
C1200  C733    1.351   1_565 S
C1200  O771    1.392   1_565 S
C1202  O1244   1.302   .     A
C1202  O1246   1.296   .     A
Cu1203 N1236   2.019   .     S
Cu1203 Cu1204  2.688   .     S
Cu1203 O1243   1.973   .     S
Cu1203 O1237   1.976   .     S
Cu1203 O1247   1.915   .     S
Cu1203 O1244   1.939   .     S
Cu1204 O1245   1.939   .     S
Cu1204 N1235   2.019   .     S
Cu1204 O1242   1.973   .     S
Cu1204 O1241   1.976   .     S
Cu1204 O1246   1.915   .     S
H1206  N1314   1.029   .     S
H1210  C721    1.110   1_565 S
H1219  C724    1.114   1_565 S
H1230  C1253   1.084   .     S
H1231  C1332   1.084   1_455 S
H1234  N1391   1.029   1_455 S
N1235  H1312   1.029   .     S
N1235  N1314   1.275   .     S
N1236  H1362   1.029   1_455 S
N1236  N1391   1.275   1_455 S
O1240  C733    1.386   1_565 S
C1249  O1320   1.288   .     A
C1249  C1278   1.443   .     S
C1249  O1315   1.292   .     A
C1250  C1252   1.473   .     S
C1250  O1325   1.293   .     A
C1250  O1323   1.306   .     A
C1251  C1255   1.400   .     A
C1251  C1257   1.406   .     A
C1251  C1280   1.469   .     S
C1252  C1256   1.394   .     A
C1252  C1258   1.408   .     A
C1253  C1255   1.394   .     A
C1253  C1262   1.403   .     A
C1254  C1263   1.401   .     A
C1254  C1256   1.390   .     A
C1254  H1387   1.084   .     S
C1255  H1307   1.083   .     S
C1256  H1305   1.072   .     S
C1257  C1259   1.418   .     A
C1257  O1316   1.386   .     S
C1258  O1326   1.384   .     S
C1258  C1261   1.420   .     A
C1259  C1262   1.416   .     A
C1259  C1264   1.427   .     A
C1260  O1321   1.290   .     A
C1260  O1319   1.287   .     A
C1260  C1279   1.435   .     S
C1261  C1263   1.418   .     A
C1261  C1265   1.431   .     A
C1262  C574    1.392   1_556 S
C1264  C1275   1.412   .     A
C1264  C563    1.423   1_556 S
C1265  C1271   1.414   .     A
C1266  H1285   1.110   .     S
C1266  C1267   1.523   .     S
C1266  O1326   1.419   .     S
C1266  H1286   1.118   .     S
C1267  H1287   1.109   .     S
C1267  H1289   1.110   .     S
C1268  H1291   1.111   .     S
C1268  O1316   1.418   .     S
C1268  H1290   1.117   .     S
C1268  C1269   1.523   .     S
C1269  H1292   1.109   .     S
C1269  H1295   1.109   .     S
C1269  H825    1.110   1_565 S
C1270  H1296   1.111   .     S
C1270  O1317   1.417   .     S
C1270  C1272   1.524   .     S
C1271  H1310   1.077   .     S
C1271  C1276   1.390   .     A
C1272  H1300   1.110   .     S
C1272  H1299   1.108   .     S
C1272  H1298   1.110   .     S
C1273  H1301   1.118   .     S
C1273  C1274   1.513   .     S
C1273  O1318   1.411   .     S
C1273  H834    1.111   1_565 S
C1274  H1303   1.111   .     S
C1274  H1306   1.107   .     S
C1274  H1304   1.107   .     S
C1275  C1277   1.386   .     A
C1275  H1311   1.078   .     S
C1276  H1283   1.084   .     S
C1277  H1294   1.085   .     S
C1277  C561    1.391   1_556 S
C1278  C811    1.351   1_565 S
C1278  O849    1.392   1_565 S
C1280  O1322   1.302   .     A
C1280  O1324   1.296   .     A
Cu1281 N1314   2.019   .     S
Cu1281 Cu1282  2.688   .     S
Cu1281 O1321   1.973   .     S
Cu1281 O1315   1.976   .     S
Cu1281 O1325   1.915   .     S
Cu1281 O1322   1.939   .     S
Cu1282 O1323   1.939   .     S
Cu1282 N1313   2.019   .     S
Cu1282 O1320   1.973   .     S
Cu1282 O1319   1.976   .     S
Cu1282 O1324   1.915   .     S
H1284  N1392   1.029   .     S
H1288  C799    1.110   1_565 S
H1297  C802    1.114   1_565 S
H1308  C1331   1.084   .     S
N1313  H1390   1.029   .     S
N1313  N1392   1.275   .     S
O1318  C811    1.386   1_565 S
C1327  O1398   1.288   .     A
C1327  C1356   1.443   .     S
C1327  O1393   1.292   .     A
C1328  C1330   1.473   .     S
C1328  O1403   1.293   .     A
C1328  O1401   1.306   .     A
C1329  C1333   1.400   .     A
C1329  C1335   1.406   .     A
C1329  C1358   1.469   .     S
C1330  C1334   1.394   .     A
C1330  C1336   1.408   .     A
C1331  C1333   1.394   .     A
C1331  C1340   1.403   .     A
C1332  C1341   1.401   .     A
C1332  C1334   1.390   .     A
C1332  H1231   1.084   1_655 S
C1333  H1385   1.083   .     S
C1334  H1383   1.072   .     S
C1335  C1337   1.418   .     A
C1335  O1394   1.386   .     S
C1336  O1404   1.384   .     S
C1336  C1339   1.420   .     A
C1337  C1340   1.416   .     A
C1337  C1342   1.427   .     A
C1338  O1399   1.290   .     A
C1338  O1397   1.287   .     A
C1338  C1357   1.435   .     S
C1339  C1341   1.418   .     A
C1339  C1343   1.431   .     A
C1340  C652    1.392   1_556 S
C1342  C1353   1.412   .     A
C1342  C641    1.423   1_556 S
C1343  C1349   1.414   .     A
C1344  H1363   1.110   .     S
C1344  C1345   1.523   .     S
C1344  O1404   1.419   .     S
C1344  H1364   1.118   .     S
C1345  H1365   1.109   .     S
C1345  H1367   1.110   .     S
C1346  H1369   1.111   .     S
C1346  O1394   1.418   .     S
C1346  H1368   1.117   .     S
C1346  C1347   1.523   .     S
C1347  H1370   1.109   .     S
C1347  H1373   1.109   .     S
C1347  H903    1.110   1_565 S
C1348  H1374   1.111   .     S
C1348  O1395   1.417   .     S
C1348  C1350   1.524   .     S
C1349  H1388   1.077   .     S
C1349  C1354   1.390   .     A
C1350  H1378   1.110   .     S
C1350  H1377   1.108   .     S
C1350  H1376   1.110   .     S
C1351  H1379   1.118   .     S
C1351  C1352   1.513   .     S
C1351  O1396   1.411   .     S
C1351  H912    1.111   1_565 S
C1352  H1381   1.111   .     S
C1352  H1384   1.107   .     S
C1352  H1382   1.107   .     S
C1353  C1355   1.386   .     A
C1353  H1389   1.078   .     S
C1354  H1361   1.084   .     S
C1355  H1372   1.085   .     S
C1355  C639    1.391   1_556 S
C1356  C889    1.351   1_565 S
C1356  O927    1.392   1_565 S
C1358  O1400   1.302   .     A
C1358  O1402   1.296   .     A
Cu1359 N1392   2.019   .     S
Cu1359 Cu1360  2.688   .     S
Cu1359 O1399   1.973   .     S
Cu1359 O1393   1.976   .     S
Cu1359 O1403   1.915   .     S
Cu1359 O1400   1.939   .     S
Cu1360 O1401   1.939   .     S
Cu1360 N1391   2.019   .     S
Cu1360 O1398   1.973   .     S
Cu1360 O1397   1.976   .     S
Cu1360 O1402   1.915   .     S
H1362  N1236   1.029   1_655 S
H1366  C877    1.110   1_565 S
H1375  C880    1.114   1_565 S
H1386  C1175   1.084   1_655 S
N1391  H1234   1.029   1_655 S
N1391  N1236   1.275   1_655 S
O1396  C889    1.386   1_565 S
