data_str_m2_o1_o16_pcu_sym.237
_audit_creation_date              2020-01-03
_audit_creation_method            'Materials Studio'
_symmetry_space_group_name_H-M    'P1'
_symmetry_Int_Tables_number       1
_symmetry_cell_setting            triclinic
loop_
_symmetry_equiv_pos_as_xyz
  x,y,z
_cell_length_a                    28.7202
_cell_length_b                    32.5811
_cell_length_c                    26.9080
_cell_angle_alpha                 91.1606
_cell_angle_beta                  73.3104
_cell_angle_gamma                 89.7230
loop_
_atom_site_label
_atom_site_type_symbol
_atom_site_fract_x
_atom_site_fract_y
_atom_site_fract_z
_atom_site_U_iso_or_equiv
_atom_site_adp_type
_atom_site_occupancy
C1     C     0.16663   0.24587   0.25019   0.00000  Uiso   1.00
C2     C     0.14599   0.18712   0.48858   0.00000  Uiso   1.00
C3     C     0.16092   0.18928   0.43377   0.00000  Uiso   1.00
C4     C     0.18205   0.18107   0.01465   0.00000  Uiso   1.00
C5     C     0.23162   0.18033   0.48537   0.00000  Uiso   1.00
C6     C     0.24505   0.19194   0.43375   0.00000  Uiso   1.00
C7     C     0.20954   0.19910   0.40941   0.00000  Uiso   1.00
C8     C     0.17068   0.17469   0.06824   0.00000  Uiso   1.00
C9     C     0.25618   0.16461   0.06167   0.00000  Uiso   1.00
C10    C     0.12629   0.18370   0.40574   0.00000  Uiso   1.00
C11    C     0.21009   0.31209   0.24094   0.00000  Uiso   1.00
C12    C     0.14096   0.17213   0.34950   0.00000  Uiso   1.00
C13    C     0.20904   0.02114   0.24267   0.00000  Uiso   1.00
C14    C     0.16480   0.04270   0.25424   0.00000  Uiso   1.00
C15    C     0.12059   0.02081   0.26690   0.00000  Uiso   1.00
C16    C     0.12192   0.31160   0.26501   0.00000  Uiso   1.00
C17    C     0.16638   0.29041   0.25160   0.00000  Uiso   1.00
C18    C     0.30254   0.19827   0.27248   0.00000  Uiso   1.00
C19    C     0.01830   0.19785   0.27349   0.00000  Uiso   1.00
C20    C     0.03211   0.13637   0.22487   0.00000  Uiso   1.00
C21    C     0.31636   0.13634   0.22442   0.00000  Uiso   1.00
C22    C     0.16600   0.08743   0.25188   0.00000  Uiso   1.00
C23    C     0.19266   0.16629   0.14985   0.00000  Uiso   1.00
C24    C     0.26753   0.17008   0.00843   0.00000  Uiso   1.00
C25    C     0.20729   0.16815   0.09259   0.00000  Uiso   1.00
C26    C     0.07690   0.18890   0.43266   0.00000  Uiso   1.00
C27    C     0.06270   0.19622   0.48614   0.00000  Uiso   1.00
C28    C     0.09612   0.19265   0.01442   0.00000  Uiso   1.00
Cu29   Cu    0.11978   0.16666   0.25000   0.00000  Uiso   1.00
Cu30   Cu    0.21355   0.16667   0.25000   0.00000  Uiso   1.00
H31    H     0.24325   0.03688   0.23431   0.00000  Uiso   1.00
H32    H     0.08793   0.29508   0.27477   0.00000  Uiso   1.00
H33    H     0.28027   0.22475   0.28815   0.00000  Uiso   1.00
H34    H     0.03153   0.22299   0.29235   0.00000  Uiso   1.00
H35    H     0.05671   0.11238   0.20419   0.00000  Uiso   1.00
H36    H     0.28283   0.19713   0.41295   0.00000  Uiso   1.00
H37    H     0.30461   0.16625   0.48451   0.00000  Uiso   1.00
H38    H     0.13337   0.17482   0.09178   0.00000  Uiso   1.00
H39    H     0.04939   0.18827   0.41231   0.00000  Uiso   1.00
H40    H     0.08228   0.19635   0.05600   0.00000  Uiso   1.00
H41    H     0.02550   0.20406   0.00627   0.00000  Uiso   1.00
N42    N     0.04931   0.16666   0.24998   0.00000  Uiso   1.00
N43    N     0.28402   0.16669   0.24999   0.00000  Uiso   1.00
O44    O     0.12708   0.22678   0.25000   0.00000  Uiso   1.00
O45    O     0.20627   0.22679   0.25000   0.00000  Uiso   1.00
O46    O     0.10775   0.16665   0.32549   0.00000  Uiso   1.00
O47    O     0.18694   0.16666   0.32549   0.00000  Uiso   1.00
O48    O     0.12706   0.10654   0.24999   0.00000  Uiso   1.00
O49    O     0.20625   0.10655   0.24999   0.00000  Uiso   1.00
O50    O     0.14640   0.16667   0.17451   0.00000  Uiso   1.00
O51    O     0.22559   0.16668   0.17451   0.00000  Uiso   1.00
Cl52   Cl    0.30512   0.15356   0.08638   0.00000  Uiso   1.00
Cl53   Cl    0.06235   0.04410   0.28769   0.00000  Uiso   1.00
Cl54   Cl    0.30069   0.09788   0.18603   0.00000  Uiso   1.00
F55    F     0.22119   0.22172   0.36615   0.00000  Uiso   1.00
F56    F     0.25400   0.29263   0.22792   0.00000  Uiso   1.00
C57    C     0.49996   0.24587   0.25019   0.00000  Uiso   1.00
C58    C     0.47933   0.18712   0.48858   0.00000  Uiso   1.00
C59    C     0.49425   0.18928   0.43377   0.00000  Uiso   1.00
C60    C     0.51538   0.18107   0.01465   0.00000  Uiso   1.00
C61    C     0.56496   0.18033   0.48537   0.00000  Uiso   1.00
C62    C     0.57838   0.19194   0.43375   0.00000  Uiso   1.00
C63    C     0.54288   0.19910   0.40941   0.00000  Uiso   1.00
C64    C     0.50402   0.17469   0.06824   0.00000  Uiso   1.00
C65    C     0.58952   0.16461   0.06167   0.00000  Uiso   1.00
C66    C     0.45963   0.18370   0.40574   0.00000  Uiso   1.00
C67    C     0.54343   0.31209   0.24094   0.00000  Uiso   1.00
C68    C     0.47430   0.17213   0.34950   0.00000  Uiso   1.00
C69    C     0.54238   0.02114   0.24267   0.00000  Uiso   1.00
C70    C     0.49814   0.04270   0.25424   0.00000  Uiso   1.00
C71    C     0.45392   0.02081   0.26690   0.00000  Uiso   1.00
C72    C     0.45525   0.31160   0.26501   0.00000  Uiso   1.00
C73    C     0.49971   0.29041   0.25160   0.00000  Uiso   1.00
C74    C     0.63588   0.19827   0.27248   0.00000  Uiso   1.00
C75    C     0.35163   0.19785   0.27349   0.00000  Uiso   1.00
C76    C     0.36544   0.13637   0.22487   0.00000  Uiso   1.00
C77    C     0.64969   0.13634   0.22442   0.00000  Uiso   1.00
C78    C     0.49934   0.08743   0.25188   0.00000  Uiso   1.00
C79    C     0.52599   0.16629   0.14985   0.00000  Uiso   1.00
C80    C     0.60087   0.17008   0.00843   0.00000  Uiso   1.00
C81    C     0.54063   0.16815   0.09259   0.00000  Uiso   1.00
C82    C     0.41024   0.18890   0.43266   0.00000  Uiso   1.00
C83    C     0.39603   0.19622   0.48614   0.00000  Uiso   1.00
C84    C     0.42946   0.19265   0.01442   0.00000  Uiso   1.00
Cu85   Cu    0.45311   0.16666   0.25000   0.00000  Uiso   1.00
Cu86   Cu    0.54689   0.16667   0.25000   0.00000  Uiso   1.00
H87    H     0.57658   0.03688   0.23431   0.00000  Uiso   1.00
H88    H     0.42126   0.29508   0.27477   0.00000  Uiso   1.00
H89    H     0.61360   0.22475   0.28815   0.00000  Uiso   1.00
H90    H     0.36486   0.22299   0.29235   0.00000  Uiso   1.00
H91    H     0.39004   0.11238   0.20419   0.00000  Uiso   1.00
H92    H     0.61616   0.19713   0.41295   0.00000  Uiso   1.00
H93    H     0.63794   0.16625   0.48451   0.00000  Uiso   1.00
H94    H     0.46670   0.17482   0.09178   0.00000  Uiso   1.00
H95    H     0.38273   0.18827   0.41231   0.00000  Uiso   1.00
H96    H     0.41561   0.19635   0.05600   0.00000  Uiso   1.00
H97    H     0.35883   0.20406   0.00627   0.00000  Uiso   1.00
N98    N     0.38265   0.16666   0.24998   0.00000  Uiso   1.00
N99    N     0.61735   0.16669   0.24999   0.00000  Uiso   1.00
O100   O     0.46042   0.22678   0.25000   0.00000  Uiso   1.00
O101   O     0.53961   0.22679   0.25000   0.00000  Uiso   1.00
O102   O     0.44108   0.16665   0.32549   0.00000  Uiso   1.00
O103   O     0.52027   0.16666   0.32549   0.00000  Uiso   1.00
O104   O     0.46039   0.10654   0.24999   0.00000  Uiso   1.00
O105   O     0.53958   0.10655   0.24999   0.00000  Uiso   1.00
O106   O     0.47973   0.16667   0.17451   0.00000  Uiso   1.00
O107   O     0.55892   0.16668   0.17451   0.00000  Uiso   1.00
Cl108  Cl    0.63845   0.15356   0.08638   0.00000  Uiso   1.00
Cl109  Cl    0.39568   0.04410   0.28769   0.00000  Uiso   1.00
Cl110  Cl    0.63403   0.09788   0.18603   0.00000  Uiso   1.00
F111   F     0.55452   0.22172   0.36615   0.00000  Uiso   1.00
F112   F     0.58733   0.29263   0.22792   0.00000  Uiso   1.00
C113   C     0.83330   0.24587   0.25019   0.00000  Uiso   1.00
C114   C     0.81266   0.18712   0.48858   0.00000  Uiso   1.00
C115   C     0.82758   0.18928   0.43377   0.00000  Uiso   1.00
C116   C     0.84872   0.18107   0.01465   0.00000  Uiso   1.00
C117   C     0.89829   0.18033   0.48537   0.00000  Uiso   1.00
C118   C     0.91171   0.19194   0.43375   0.00000  Uiso   1.00
C119   C     0.87621   0.19910   0.40941   0.00000  Uiso   1.00
C120   C     0.83735   0.17469   0.06824   0.00000  Uiso   1.00
C121   C     0.92285   0.16461   0.06167   0.00000  Uiso   1.00
C122   C     0.79296   0.18370   0.40574   0.00000  Uiso   1.00
C123   C     0.87676   0.31209   0.24094   0.00000  Uiso   1.00
C124   C     0.80763   0.17213   0.34950   0.00000  Uiso   1.00
C125   C     0.87571   0.02114   0.24267   0.00000  Uiso   1.00
C126   C     0.83147   0.04270   0.25424   0.00000  Uiso   1.00
C127   C     0.78725   0.02081   0.26690   0.00000  Uiso   1.00
C128   C     0.78858   0.31160   0.26501   0.00000  Uiso   1.00
C129   C     0.83304   0.29041   0.25160   0.00000  Uiso   1.00
C130   C     0.96921   0.19827   0.27248   0.00000  Uiso   1.00
C131   C     0.68496   0.19785   0.27349   0.00000  Uiso   1.00
C132   C     0.69878   0.13637   0.22487   0.00000  Uiso   1.00
C133   C     0.98302   0.13634   0.22442   0.00000  Uiso   1.00
C134   C     0.83267   0.08743   0.25188   0.00000  Uiso   1.00
C135   C     0.85932   0.16629   0.14985   0.00000  Uiso   1.00
C136   C     0.93420   0.17008   0.00843   0.00000  Uiso   1.00
C137   C     0.87396   0.16815   0.09259   0.00000  Uiso   1.00
C138   C     0.74357   0.18890   0.43266   0.00000  Uiso   1.00
C139   C     0.72937   0.19622   0.48614   0.00000  Uiso   1.00
C140   C     0.76279   0.19265   0.01442   0.00000  Uiso   1.00
Cu141  Cu    0.78645   0.16666   0.25000   0.00000  Uiso   1.00
Cu142  Cu    0.88022   0.16667   0.25000   0.00000  Uiso   1.00
H143   H     0.90992   0.03688   0.23431   0.00000  Uiso   1.00
H144   H     0.75459   0.29508   0.27477   0.00000  Uiso   1.00
H145   H     0.94693   0.22475   0.28815   0.00000  Uiso   1.00
H146   H     0.69820   0.22299   0.29235   0.00000  Uiso   1.00
H147   H     0.72337   0.11238   0.20419   0.00000  Uiso   1.00
H148   H     0.94950   0.19713   0.41295   0.00000  Uiso   1.00
H149   H     0.97127   0.16625   0.48451   0.00000  Uiso   1.00
H150   H     0.80004   0.17482   0.09178   0.00000  Uiso   1.00
H151   H     0.71606   0.18827   0.41231   0.00000  Uiso   1.00
H152   H     0.74895   0.19635   0.05600   0.00000  Uiso   1.00
H153   H     0.69217   0.20406   0.00627   0.00000  Uiso   1.00
N154   N     0.71598   0.16666   0.24998   0.00000  Uiso   1.00
N155   N     0.95069   0.16669   0.24999   0.00000  Uiso   1.00
O156   O     0.79375   0.22678   0.25000   0.00000  Uiso   1.00
O157   O     0.87294   0.22679   0.25000   0.00000  Uiso   1.00
O158   O     0.77441   0.16665   0.32549   0.00000  Uiso   1.00
O159   O     0.85360   0.16666   0.32549   0.00000  Uiso   1.00
O160   O     0.79373   0.10654   0.24999   0.00000  Uiso   1.00
O161   O     0.87292   0.10655   0.24999   0.00000  Uiso   1.00
O162   O     0.81306   0.16667   0.17451   0.00000  Uiso   1.00
O163   O     0.89225   0.16668   0.17451   0.00000  Uiso   1.00
Cl164  Cl    0.97178   0.15356   0.08638   0.00000  Uiso   1.00
Cl165  Cl    0.72902   0.04410   0.28769   0.00000  Uiso   1.00
Cl166  Cl    0.96736   0.09788   0.18603   0.00000  Uiso   1.00
F167   F     0.88785   0.22172   0.36615   0.00000  Uiso   1.00
F168   F     0.92067   0.29263   0.22792   0.00000  Uiso   1.00
C169   C     0.16663   0.57920   0.25019   0.00000  Uiso   1.00
C170   C     0.14599   0.52045   0.48858   0.00000  Uiso   1.00
C171   C     0.16092   0.52261   0.43377   0.00000  Uiso   1.00
C172   C     0.18205   0.51440   0.01465   0.00000  Uiso   1.00
C173   C     0.23162   0.51366   0.48537   0.00000  Uiso   1.00
C174   C     0.24505   0.52528   0.43375   0.00000  Uiso   1.00
C175   C     0.20954   0.53244   0.40941   0.00000  Uiso   1.00
C176   C     0.17068   0.50802   0.06824   0.00000  Uiso   1.00
C177   C     0.25618   0.49794   0.06167   0.00000  Uiso   1.00
C178   C     0.12629   0.51704   0.40574   0.00000  Uiso   1.00
C179   C     0.21009   0.64542   0.24094   0.00000  Uiso   1.00
C180   C     0.14096   0.50546   0.34950   0.00000  Uiso   1.00
C181   C     0.20904   0.35447   0.24267   0.00000  Uiso   1.00
C182   C     0.16480   0.37604   0.25424   0.00000  Uiso   1.00
C183   C     0.12059   0.35414   0.26690   0.00000  Uiso   1.00
C184   C     0.12192   0.64493   0.26501   0.00000  Uiso   1.00
C185   C     0.16638   0.62374   0.25160   0.00000  Uiso   1.00
C186   C     0.30254   0.53161   0.27248   0.00000  Uiso   1.00
C187   C     0.01830   0.53119   0.27349   0.00000  Uiso   1.00
C188   C     0.03211   0.46970   0.22487   0.00000  Uiso   1.00
C189   C     0.31636   0.46968   0.22442   0.00000  Uiso   1.00
C190   C     0.16600   0.42076   0.25188   0.00000  Uiso   1.00
C191   C     0.19266   0.49963   0.14985   0.00000  Uiso   1.00
C192   C     0.26753   0.50341   0.00843   0.00000  Uiso   1.00
C193   C     0.20729   0.50148   0.09259   0.00000  Uiso   1.00
C194   C     0.07690   0.52223   0.43266   0.00000  Uiso   1.00
C195   C     0.06270   0.52956   0.48614   0.00000  Uiso   1.00
C196   C     0.09612   0.52598   0.01442   0.00000  Uiso   1.00
Cu197  Cu    0.11978   0.49999   0.25000   0.00000  Uiso   1.00
Cu198  Cu    0.21355   0.50001   0.25000   0.00000  Uiso   1.00
H199   H     0.24325   0.37021   0.23431   0.00000  Uiso   1.00
H200   H     0.08793   0.62842   0.27477   0.00000  Uiso   1.00
H201   H     0.28027   0.55809   0.28815   0.00000  Uiso   1.00
H202   H     0.03153   0.55632   0.29235   0.00000  Uiso   1.00
H203   H     0.05671   0.44572   0.20419   0.00000  Uiso   1.00
H204   H     0.28283   0.53046   0.41295   0.00000  Uiso   1.00
H205   H     0.30461   0.49958   0.48451   0.00000  Uiso   1.00
H206   H     0.13337   0.50816   0.09178   0.00000  Uiso   1.00
H207   H     0.04939   0.52160   0.41231   0.00000  Uiso   1.00
H208   H     0.08228   0.52968   0.05600   0.00000  Uiso   1.00
H209   H     0.02550   0.53740   0.00627   0.00000  Uiso   1.00
N210   N     0.04931   0.49999   0.24998   0.00000  Uiso   1.00
N211   N     0.28402   0.50002   0.24999   0.00000  Uiso   1.00
O212   O     0.12708   0.56011   0.25000   0.00000  Uiso   1.00
O213   O     0.20627   0.56012   0.25000   0.00000  Uiso   1.00
O214   O     0.10775   0.49998   0.32549   0.00000  Uiso   1.00
O215   O     0.18694   0.49999   0.32549   0.00000  Uiso   1.00
O216   O     0.12706   0.43988   0.24999   0.00000  Uiso   1.00
O217   O     0.20625   0.43989   0.24999   0.00000  Uiso   1.00
O218   O     0.14640   0.50001   0.17451   0.00000  Uiso   1.00
O219   O     0.22559   0.50002   0.17451   0.00000  Uiso   1.00
Cl220  Cl    0.30512   0.48690   0.08638   0.00000  Uiso   1.00
Cl221  Cl    0.06235   0.37743   0.28769   0.00000  Uiso   1.00
Cl222  Cl    0.30069   0.43121   0.18603   0.00000  Uiso   1.00
F223   F     0.22119   0.55506   0.36615   0.00000  Uiso   1.00
F224   F     0.25400   0.62596   0.22792   0.00000  Uiso   1.00
C225   C     0.49996   0.57920   0.25019   0.00000  Uiso   1.00
C226   C     0.47933   0.52045   0.48858   0.00000  Uiso   1.00
C227   C     0.49425   0.52261   0.43377   0.00000  Uiso   1.00
C228   C     0.51538   0.51440   0.01465   0.00000  Uiso   1.00
C229   C     0.56496   0.51366   0.48537   0.00000  Uiso   1.00
C230   C     0.57838   0.52528   0.43375   0.00000  Uiso   1.00
C231   C     0.54288   0.53244   0.40941   0.00000  Uiso   1.00
C232   C     0.50402   0.50802   0.06824   0.00000  Uiso   1.00
C233   C     0.58952   0.49794   0.06167   0.00000  Uiso   1.00
C234   C     0.45963   0.51704   0.40574   0.00000  Uiso   1.00
C235   C     0.54343   0.64542   0.24094   0.00000  Uiso   1.00
C236   C     0.47430   0.50546   0.34950   0.00000  Uiso   1.00
C237   C     0.54238   0.35447   0.24267   0.00000  Uiso   1.00
C238   C     0.49814   0.37604   0.25424   0.00000  Uiso   1.00
C239   C     0.45392   0.35414   0.26690   0.00000  Uiso   1.00
C240   C     0.45525   0.64493   0.26501   0.00000  Uiso   1.00
C241   C     0.49971   0.62374   0.25160   0.00000  Uiso   1.00
C242   C     0.63588   0.53161   0.27248   0.00000  Uiso   1.00
C243   C     0.35163   0.53119   0.27349   0.00000  Uiso   1.00
C244   C     0.36544   0.46970   0.22487   0.00000  Uiso   1.00
C245   C     0.64969   0.46968   0.22442   0.00000  Uiso   1.00
C246   C     0.49934   0.42076   0.25188   0.00000  Uiso   1.00
C247   C     0.52599   0.49963   0.14985   0.00000  Uiso   1.00
C248   C     0.60087   0.50341   0.00843   0.00000  Uiso   1.00
C249   C     0.54063   0.50148   0.09259   0.00000  Uiso   1.00
C250   C     0.41024   0.52223   0.43266   0.00000  Uiso   1.00
C251   C     0.39603   0.52956   0.48614   0.00000  Uiso   1.00
C252   C     0.42946   0.52598   0.01442   0.00000  Uiso   1.00
Cu253  Cu    0.45311   0.49999   0.25000   0.00000  Uiso   1.00
Cu254  Cu    0.54689   0.50001   0.25000   0.00000  Uiso   1.00
H255   H     0.57658   0.37021   0.23431   0.00000  Uiso   1.00
H256   H     0.42126   0.62842   0.27477   0.00000  Uiso   1.00
H257   H     0.61360   0.55809   0.28815   0.00000  Uiso   1.00
H258   H     0.36486   0.55632   0.29235   0.00000  Uiso   1.00
H259   H     0.39004   0.44572   0.20419   0.00000  Uiso   1.00
H260   H     0.61616   0.53046   0.41295   0.00000  Uiso   1.00
H261   H     0.63794   0.49958   0.48451   0.00000  Uiso   1.00
H262   H     0.46670   0.50816   0.09178   0.00000  Uiso   1.00
H263   H     0.38273   0.52160   0.41231   0.00000  Uiso   1.00
H264   H     0.41561   0.52968   0.05600   0.00000  Uiso   1.00
H265   H     0.35883   0.53740   0.00627   0.00000  Uiso   1.00
N266   N     0.38265   0.49999   0.24998   0.00000  Uiso   1.00
N267   N     0.61735   0.50002   0.24999   0.00000  Uiso   1.00
O268   O     0.46042   0.56011   0.25000   0.00000  Uiso   1.00
O269   O     0.53961   0.56012   0.25000   0.00000  Uiso   1.00
O270   O     0.44108   0.49998   0.32549   0.00000  Uiso   1.00
O271   O     0.52027   0.49999   0.32549   0.00000  Uiso   1.00
O272   O     0.46039   0.43988   0.24999   0.00000  Uiso   1.00
O273   O     0.53958   0.43989   0.24999   0.00000  Uiso   1.00
O274   O     0.47973   0.50001   0.17451   0.00000  Uiso   1.00
O275   O     0.55892   0.50002   0.17451   0.00000  Uiso   1.00
Cl276  Cl    0.63845   0.48690   0.08638   0.00000  Uiso   1.00
Cl277  Cl    0.39568   0.37743   0.28769   0.00000  Uiso   1.00
Cl278  Cl    0.63403   0.43121   0.18603   0.00000  Uiso   1.00
F279   F     0.55452   0.55506   0.36615   0.00000  Uiso   1.00
F280   F     0.58733   0.62596   0.22792   0.00000  Uiso   1.00
C281   C     0.83330   0.57920   0.25019   0.00000  Uiso   1.00
C282   C     0.81266   0.52045   0.48858   0.00000  Uiso   1.00
C283   C     0.82758   0.52261   0.43377   0.00000  Uiso   1.00
C284   C     0.84872   0.51440   0.01465   0.00000  Uiso   1.00
C285   C     0.89829   0.51366   0.48537   0.00000  Uiso   1.00
C286   C     0.91171   0.52528   0.43375   0.00000  Uiso   1.00
C287   C     0.87621   0.53244   0.40941   0.00000  Uiso   1.00
C288   C     0.83735   0.50802   0.06824   0.00000  Uiso   1.00
C289   C     0.92285   0.49794   0.06167   0.00000  Uiso   1.00
C290   C     0.79296   0.51704   0.40574   0.00000  Uiso   1.00
C291   C     0.87676   0.64542   0.24094   0.00000  Uiso   1.00
C292   C     0.80763   0.50546   0.34950   0.00000  Uiso   1.00
C293   C     0.87571   0.35447   0.24267   0.00000  Uiso   1.00
C294   C     0.83147   0.37604   0.25424   0.00000  Uiso   1.00
C295   C     0.78725   0.35414   0.26690   0.00000  Uiso   1.00
C296   C     0.78858   0.64493   0.26501   0.00000  Uiso   1.00
C297   C     0.83304   0.62374   0.25160   0.00000  Uiso   1.00
C298   C     0.96921   0.53161   0.27248   0.00000  Uiso   1.00
C299   C     0.68496   0.53119   0.27349   0.00000  Uiso   1.00
C300   C     0.69878   0.46970   0.22487   0.00000  Uiso   1.00
C301   C     0.98302   0.46968   0.22442   0.00000  Uiso   1.00
C302   C     0.83267   0.42076   0.25188   0.00000  Uiso   1.00
C303   C     0.85932   0.49963   0.14985   0.00000  Uiso   1.00
C304   C     0.93420   0.50341   0.00843   0.00000  Uiso   1.00
C305   C     0.87396   0.50148   0.09259   0.00000  Uiso   1.00
C306   C     0.74357   0.52223   0.43266   0.00000  Uiso   1.00
C307   C     0.72937   0.52956   0.48614   0.00000  Uiso   1.00
C308   C     0.76279   0.52598   0.01442   0.00000  Uiso   1.00
Cu309  Cu    0.78645   0.49999   0.25000   0.00000  Uiso   1.00
Cu310  Cu    0.88022   0.50001   0.25000   0.00000  Uiso   1.00
H311   H     0.90992   0.37021   0.23431   0.00000  Uiso   1.00
H312   H     0.75459   0.62842   0.27477   0.00000  Uiso   1.00
H313   H     0.94693   0.55809   0.28815   0.00000  Uiso   1.00
H314   H     0.69820   0.55632   0.29235   0.00000  Uiso   1.00
H315   H     0.72337   0.44572   0.20419   0.00000  Uiso   1.00
H316   H     0.94950   0.53046   0.41295   0.00000  Uiso   1.00
H317   H     0.97127   0.49958   0.48451   0.00000  Uiso   1.00
H318   H     0.80004   0.50816   0.09178   0.00000  Uiso   1.00
H319   H     0.71606   0.52160   0.41231   0.00000  Uiso   1.00
H320   H     0.74895   0.52968   0.05600   0.00000  Uiso   1.00
H321   H     0.69217   0.53740   0.00627   0.00000  Uiso   1.00
N322   N     0.71598   0.49999   0.24998   0.00000  Uiso   1.00
N323   N     0.95069   0.50002   0.24999   0.00000  Uiso   1.00
O324   O     0.79375   0.56011   0.25000   0.00000  Uiso   1.00
O325   O     0.87294   0.56012   0.25000   0.00000  Uiso   1.00
O326   O     0.77441   0.49998   0.32549   0.00000  Uiso   1.00
O327   O     0.85360   0.49999   0.32549   0.00000  Uiso   1.00
O328   O     0.79373   0.43988   0.24999   0.00000  Uiso   1.00
O329   O     0.87292   0.43989   0.24999   0.00000  Uiso   1.00
O330   O     0.81306   0.50001   0.17451   0.00000  Uiso   1.00
O331   O     0.89225   0.50002   0.17451   0.00000  Uiso   1.00
Cl332  Cl    0.97178   0.48690   0.08638   0.00000  Uiso   1.00
Cl333  Cl    0.72902   0.37743   0.28769   0.00000  Uiso   1.00
Cl334  Cl    0.96736   0.43121   0.18603   0.00000  Uiso   1.00
F335   F     0.88785   0.55506   0.36615   0.00000  Uiso   1.00
F336   F     0.92067   0.62596   0.22792   0.00000  Uiso   1.00
C337   C     0.16663   0.91253   0.25019   0.00000  Uiso   1.00
C338   C     0.14599   0.85379   0.48858   0.00000  Uiso   1.00
C339   C     0.16092   0.85594   0.43377   0.00000  Uiso   1.00
C340   C     0.18205   0.84774   0.01465   0.00000  Uiso   1.00
C341   C     0.23162   0.84700   0.48537   0.00000  Uiso   1.00
C342   C     0.24505   0.85861   0.43375   0.00000  Uiso   1.00
C343   C     0.20954   0.86577   0.40941   0.00000  Uiso   1.00
C344   C     0.17068   0.84135   0.06824   0.00000  Uiso   1.00
C345   C     0.25618   0.83127   0.06167   0.00000  Uiso   1.00
C346   C     0.12629   0.85037   0.40574   0.00000  Uiso   1.00
C347   C     0.21009   0.97875   0.24094   0.00000  Uiso   1.00
C348   C     0.14096   0.83879   0.34950   0.00000  Uiso   1.00
C349   C     0.20904   0.68780   0.24267   0.00000  Uiso   1.00
C350   C     0.16480   0.70937   0.25424   0.00000  Uiso   1.00
C351   C     0.12059   0.68748   0.26690   0.00000  Uiso   1.00
C352   C     0.12192   0.97826   0.26501   0.00000  Uiso   1.00
C353   C     0.16638   0.95708   0.25160   0.00000  Uiso   1.00
C354   C     0.30254   0.86494   0.27248   0.00000  Uiso   1.00
C355   C     0.01830   0.86452   0.27349   0.00000  Uiso   1.00
C356   C     0.03211   0.80303   0.22487   0.00000  Uiso   1.00
C357   C     0.31636   0.80301   0.22442   0.00000  Uiso   1.00
C358   C     0.16600   0.75409   0.25188   0.00000  Uiso   1.00
C359   C     0.19266   0.83296   0.14985   0.00000  Uiso   1.00
C360   C     0.26753   0.83675   0.00843   0.00000  Uiso   1.00
C361   C     0.20729   0.83482   0.09259   0.00000  Uiso   1.00
C362   C     0.07690   0.85557   0.43266   0.00000  Uiso   1.00
C363   C     0.06270   0.86289   0.48614   0.00000  Uiso   1.00
C364   C     0.09612   0.85931   0.01442   0.00000  Uiso   1.00
Cu365  Cu    0.11978   0.83333   0.25000   0.00000  Uiso   1.00
Cu366  Cu    0.21355   0.83334   0.25000   0.00000  Uiso   1.00
H367   H     0.24325   0.70355   0.23431   0.00000  Uiso   1.00
H368   H     0.08793   0.96175   0.27477   0.00000  Uiso   1.00
H369   H     0.28027   0.89142   0.28815   0.00000  Uiso   1.00
H370   H     0.03153   0.88965   0.29235   0.00000  Uiso   1.00
H371   H     0.05671   0.77905   0.20419   0.00000  Uiso   1.00
H372   H     0.28283   0.86380   0.41295   0.00000  Uiso   1.00
H373   H     0.30461   0.83291   0.48451   0.00000  Uiso   1.00
H374   H     0.13337   0.84149   0.09178   0.00000  Uiso   1.00
H375   H     0.04939   0.85494   0.41231   0.00000  Uiso   1.00
H376   H     0.08228   0.86302   0.05600   0.00000  Uiso   1.00
H377   H     0.02550   0.87073   0.00627   0.00000  Uiso   1.00
N378   N     0.04931   0.83332   0.24998   0.00000  Uiso   1.00
N379   N     0.28402   0.83335   0.24999   0.00000  Uiso   1.00
O380   O     0.12708   0.89345   0.25000   0.00000  Uiso   1.00
O381   O     0.20627   0.89346   0.25000   0.00000  Uiso   1.00
O382   O     0.10775   0.83332   0.32549   0.00000  Uiso   1.00
O383   O     0.18694   0.83333   0.32549   0.00000  Uiso   1.00
O384   O     0.12706   0.77321   0.24999   0.00000  Uiso   1.00
O385   O     0.20625   0.77322   0.24999   0.00000  Uiso   1.00
O386   O     0.14640   0.83334   0.17451   0.00000  Uiso   1.00
O387   O     0.22559   0.83335   0.17451   0.00000  Uiso   1.00
Cl388  Cl    0.30512   0.82023   0.08638   0.00000  Uiso   1.00
Cl389  Cl    0.06235   0.71077   0.28769   0.00000  Uiso   1.00
Cl390  Cl    0.30069   0.76454   0.18603   0.00000  Uiso   1.00
F391   F     0.22119   0.88839   0.36615   0.00000  Uiso   1.00
F392   F     0.25400   0.95929   0.22792   0.00000  Uiso   1.00
C393   C     0.49996   0.91253   0.25019   0.00000  Uiso   1.00
C394   C     0.47933   0.85379   0.48858   0.00000  Uiso   1.00
C395   C     0.49425   0.85594   0.43377   0.00000  Uiso   1.00
C396   C     0.51538   0.84774   0.01465   0.00000  Uiso   1.00
C397   C     0.56496   0.84700   0.48537   0.00000  Uiso   1.00
C398   C     0.57838   0.85861   0.43375   0.00000  Uiso   1.00
C399   C     0.54288   0.86577   0.40941   0.00000  Uiso   1.00
C400   C     0.50402   0.84135   0.06824   0.00000  Uiso   1.00
C401   C     0.58952   0.83127   0.06167   0.00000  Uiso   1.00
C402   C     0.45963   0.85037   0.40574   0.00000  Uiso   1.00
C403   C     0.54343   0.97875   0.24094   0.00000  Uiso   1.00
C404   C     0.47430   0.83879   0.34950   0.00000  Uiso   1.00
C405   C     0.54238   0.68780   0.24267   0.00000  Uiso   1.00
C406   C     0.49814   0.70937   0.25424   0.00000  Uiso   1.00
C407   C     0.45392   0.68748   0.26690   0.00000  Uiso   1.00
C408   C     0.45525   0.97826   0.26501   0.00000  Uiso   1.00
C409   C     0.49971   0.95708   0.25160   0.00000  Uiso   1.00
C410   C     0.63588   0.86494   0.27248   0.00000  Uiso   1.00
C411   C     0.35163   0.86452   0.27349   0.00000  Uiso   1.00
C412   C     0.36544   0.80303   0.22487   0.00000  Uiso   1.00
C413   C     0.64969   0.80301   0.22442   0.00000  Uiso   1.00
C414   C     0.49934   0.75409   0.25188   0.00000  Uiso   1.00
C415   C     0.52599   0.83296   0.14985   0.00000  Uiso   1.00
C416   C     0.60087   0.83675   0.00843   0.00000  Uiso   1.00
C417   C     0.54063   0.83482   0.09259   0.00000  Uiso   1.00
C418   C     0.41024   0.85557   0.43266   0.00000  Uiso   1.00
C419   C     0.39603   0.86289   0.48614   0.00000  Uiso   1.00
C420   C     0.42946   0.85931   0.01442   0.00000  Uiso   1.00
Cu421  Cu    0.45311   0.83333   0.25000   0.00000  Uiso   1.00
Cu422  Cu    0.54689   0.83334   0.25000   0.00000  Uiso   1.00
H423   H     0.57658   0.70355   0.23431   0.00000  Uiso   1.00
H424   H     0.42126   0.96175   0.27477   0.00000  Uiso   1.00
H425   H     0.61360   0.89142   0.28815   0.00000  Uiso   1.00
H426   H     0.36486   0.88965   0.29235   0.00000  Uiso   1.00
H427   H     0.39004   0.77905   0.20419   0.00000  Uiso   1.00
H428   H     0.61616   0.86380   0.41295   0.00000  Uiso   1.00
H429   H     0.63794   0.83291   0.48451   0.00000  Uiso   1.00
H430   H     0.46670   0.84149   0.09178   0.00000  Uiso   1.00
H431   H     0.38273   0.85494   0.41231   0.00000  Uiso   1.00
H432   H     0.41561   0.86302   0.05600   0.00000  Uiso   1.00
H433   H     0.35883   0.87073   0.00627   0.00000  Uiso   1.00
N434   N     0.38265   0.83332   0.24998   0.00000  Uiso   1.00
N435   N     0.61735   0.83335   0.24999   0.00000  Uiso   1.00
O436   O     0.46042   0.89345   0.25000   0.00000  Uiso   1.00
O437   O     0.53961   0.89346   0.25000   0.00000  Uiso   1.00
O438   O     0.44108   0.83332   0.32549   0.00000  Uiso   1.00
O439   O     0.52027   0.83333   0.32549   0.00000  Uiso   1.00
O440   O     0.46039   0.77321   0.24999   0.00000  Uiso   1.00
O441   O     0.53958   0.77322   0.24999   0.00000  Uiso   1.00
O442   O     0.47973   0.83334   0.17451   0.00000  Uiso   1.00
O443   O     0.55892   0.83335   0.17451   0.00000  Uiso   1.00
Cl444  Cl    0.63845   0.82023   0.08638   0.00000  Uiso   1.00
Cl445  Cl    0.39568   0.71077   0.28769   0.00000  Uiso   1.00
Cl446  Cl    0.63403   0.76454   0.18603   0.00000  Uiso   1.00
F447   F     0.55452   0.88839   0.36615   0.00000  Uiso   1.00
F448   F     0.58733   0.95929   0.22792   0.00000  Uiso   1.00
C449   C     0.83330   0.91253   0.25019   0.00000  Uiso   1.00
C450   C     0.81266   0.85379   0.48858   0.00000  Uiso   1.00
C451   C     0.82758   0.85594   0.43377   0.00000  Uiso   1.00
C452   C     0.84872   0.84774   0.01465   0.00000  Uiso   1.00
C453   C     0.89829   0.84700   0.48537   0.00000  Uiso   1.00
C454   C     0.91171   0.85861   0.43375   0.00000  Uiso   1.00
C455   C     0.87621   0.86577   0.40941   0.00000  Uiso   1.00
C456   C     0.83735   0.84135   0.06824   0.00000  Uiso   1.00
C457   C     0.92285   0.83127   0.06167   0.00000  Uiso   1.00
C458   C     0.79296   0.85037   0.40574   0.00000  Uiso   1.00
C459   C     0.87676   0.97875   0.24094   0.00000  Uiso   1.00
C460   C     0.80763   0.83879   0.34950   0.00000  Uiso   1.00
C461   C     0.87571   0.68780   0.24267   0.00000  Uiso   1.00
C462   C     0.83147   0.70937   0.25424   0.00000  Uiso   1.00
C463   C     0.78725   0.68748   0.26690   0.00000  Uiso   1.00
C464   C     0.78858   0.97826   0.26501   0.00000  Uiso   1.00
C465   C     0.83304   0.95708   0.25160   0.00000  Uiso   1.00
C466   C     0.96921   0.86494   0.27248   0.00000  Uiso   1.00
C467   C     0.68496   0.86452   0.27349   0.00000  Uiso   1.00
C468   C     0.69878   0.80303   0.22487   0.00000  Uiso   1.00
C469   C     0.98302   0.80301   0.22442   0.00000  Uiso   1.00
C470   C     0.83267   0.75409   0.25188   0.00000  Uiso   1.00
C471   C     0.85932   0.83296   0.14985   0.00000  Uiso   1.00
C472   C     0.93420   0.83675   0.00843   0.00000  Uiso   1.00
C473   C     0.87396   0.83482   0.09259   0.00000  Uiso   1.00
C474   C     0.74357   0.85557   0.43266   0.00000  Uiso   1.00
C475   C     0.72937   0.86289   0.48614   0.00000  Uiso   1.00
C476   C     0.76279   0.85931   0.01442   0.00000  Uiso   1.00
Cu477  Cu    0.78645   0.83333   0.25000   0.00000  Uiso   1.00
Cu478  Cu    0.88022   0.83334   0.25000   0.00000  Uiso   1.00
H479   H     0.90992   0.70355   0.23431   0.00000  Uiso   1.00
H480   H     0.75459   0.96175   0.27477   0.00000  Uiso   1.00
H481   H     0.94693   0.89142   0.28815   0.00000  Uiso   1.00
H482   H     0.69820   0.88965   0.29235   0.00000  Uiso   1.00
H483   H     0.72337   0.77905   0.20419   0.00000  Uiso   1.00
H484   H     0.94950   0.86380   0.41295   0.00000  Uiso   1.00
H485   H     0.97127   0.83291   0.48451   0.00000  Uiso   1.00
H486   H     0.80004   0.84149   0.09178   0.00000  Uiso   1.00
H487   H     0.71606   0.85494   0.41231   0.00000  Uiso   1.00
H488   H     0.74895   0.86302   0.05600   0.00000  Uiso   1.00
H489   H     0.69217   0.87073   0.00627   0.00000  Uiso   1.00
N490   N     0.71598   0.83332   0.24998   0.00000  Uiso   1.00
N491   N     0.95069   0.83335   0.24999   0.00000  Uiso   1.00
O492   O     0.79375   0.89345   0.25000   0.00000  Uiso   1.00
O493   O     0.87294   0.89346   0.25000   0.00000  Uiso   1.00
O494   O     0.77441   0.83332   0.32549   0.00000  Uiso   1.00
O495   O     0.85360   0.83333   0.32549   0.00000  Uiso   1.00
O496   O     0.79373   0.77321   0.24999   0.00000  Uiso   1.00
O497   O     0.87292   0.77322   0.24999   0.00000  Uiso   1.00
O498   O     0.81306   0.83334   0.17451   0.00000  Uiso   1.00
O499   O     0.89225   0.83335   0.17451   0.00000  Uiso   1.00
Cl500  Cl    0.97178   0.82023   0.08638   0.00000  Uiso   1.00
Cl501  Cl    0.72902   0.71077   0.28769   0.00000  Uiso   1.00
Cl502  Cl    0.96736   0.76454   0.18603   0.00000  Uiso   1.00
F503   F     0.88785   0.88839   0.36615   0.00000  Uiso   1.00
F504   F     0.92067   0.95929   0.22792   0.00000  Uiso   1.00
C505   C     0.16663   0.24587   0.75019   0.00000  Uiso   1.00
C506   C     0.14599   0.18712   0.98858   0.00000  Uiso   1.00
C507   C     0.16092   0.18928   0.93377   0.00000  Uiso   1.00
C508   C     0.18205   0.18107   0.51465   0.00000  Uiso   1.00
C509   C     0.23162   0.18033   0.98537   0.00000  Uiso   1.00
C510   C     0.24505   0.19194   0.93375   0.00000  Uiso   1.00
C511   C     0.20954   0.19910   0.90941   0.00000  Uiso   1.00
C512   C     0.17068   0.17469   0.56824   0.00000  Uiso   1.00
C513   C     0.25618   0.16461   0.56167   0.00000  Uiso   1.00
C514   C     0.12629   0.18370   0.90574   0.00000  Uiso   1.00
C515   C     0.21009   0.31209   0.74094   0.00000  Uiso   1.00
C516   C     0.14096   0.17213   0.84950   0.00000  Uiso   1.00
C517   C     0.20904   0.02114   0.74267   0.00000  Uiso   1.00
C518   C     0.16480   0.04270   0.75424   0.00000  Uiso   1.00
C519   C     0.12059   0.02081   0.76690   0.00000  Uiso   1.00
C520   C     0.12192   0.31160   0.76501   0.00000  Uiso   1.00
C521   C     0.16638   0.29041   0.75160   0.00000  Uiso   1.00
C522   C     0.30254   0.19827   0.77248   0.00000  Uiso   1.00
C523   C     0.01830   0.19785   0.77349   0.00000  Uiso   1.00
C524   C     0.03211   0.13637   0.72487   0.00000  Uiso   1.00
C525   C     0.31636   0.13634   0.72442   0.00000  Uiso   1.00
C526   C     0.16600   0.08743   0.75188   0.00000  Uiso   1.00
C527   C     0.19266   0.16629   0.64985   0.00000  Uiso   1.00
C528   C     0.26753   0.17008   0.50843   0.00000  Uiso   1.00
C529   C     0.20729   0.16815   0.59259   0.00000  Uiso   1.00
C530   C     0.07690   0.18890   0.93266   0.00000  Uiso   1.00
C531   C     0.06270   0.19622   0.98614   0.00000  Uiso   1.00
C532   C     0.09612   0.19265   0.51442   0.00000  Uiso   1.00
Cu533  Cu    0.11978   0.16666   0.75000   0.00000  Uiso   1.00
Cu534  Cu    0.21355   0.16667   0.75000   0.00000  Uiso   1.00
H535   H     0.24325   0.03688   0.73431   0.00000  Uiso   1.00
H536   H     0.08793   0.29508   0.77477   0.00000  Uiso   1.00
H537   H     0.28027   0.22475   0.78815   0.00000  Uiso   1.00
H538   H     0.03153   0.22299   0.79235   0.00000  Uiso   1.00
H539   H     0.05671   0.11238   0.70419   0.00000  Uiso   1.00
H540   H     0.28283   0.19713   0.91295   0.00000  Uiso   1.00
H541   H     0.30461   0.16625   0.98451   0.00000  Uiso   1.00
H542   H     0.13337   0.17482   0.59178   0.00000  Uiso   1.00
H543   H     0.04939   0.18827   0.91231   0.00000  Uiso   1.00
H544   H     0.08228   0.19635   0.55600   0.00000  Uiso   1.00
H545   H     0.02550   0.20406   0.50627   0.00000  Uiso   1.00
N546   N     0.04931   0.16666   0.74998   0.00000  Uiso   1.00
N547   N     0.28402   0.16669   0.74999   0.00000  Uiso   1.00
O548   O     0.12708   0.22678   0.75000   0.00000  Uiso   1.00
O549   O     0.20627   0.22679   0.75000   0.00000  Uiso   1.00
O550   O     0.10775   0.16665   0.82549   0.00000  Uiso   1.00
O551   O     0.18694   0.16666   0.82549   0.00000  Uiso   1.00
O552   O     0.12706   0.10654   0.74999   0.00000  Uiso   1.00
O553   O     0.20625   0.10655   0.74999   0.00000  Uiso   1.00
O554   O     0.14640   0.16667   0.67451   0.00000  Uiso   1.00
O555   O     0.22559   0.16668   0.67451   0.00000  Uiso   1.00
Cl556  Cl    0.30512   0.15356   0.58638   0.00000  Uiso   1.00
Cl557  Cl    0.06235   0.04410   0.78769   0.00000  Uiso   1.00
Cl558  Cl    0.30069   0.09788   0.68603   0.00000  Uiso   1.00
F559   F     0.22119   0.22172   0.86615   0.00000  Uiso   1.00
F560   F     0.25400   0.29263   0.72792   0.00000  Uiso   1.00
C561   C     0.49996   0.24587   0.75019   0.00000  Uiso   1.00
C562   C     0.47933   0.18712   0.98858   0.00000  Uiso   1.00
C563   C     0.49425   0.18928   0.93377   0.00000  Uiso   1.00
C564   C     0.51538   0.18107   0.51465   0.00000  Uiso   1.00
C565   C     0.56496   0.18033   0.98537   0.00000  Uiso   1.00
C566   C     0.57838   0.19194   0.93375   0.00000  Uiso   1.00
C567   C     0.54288   0.19910   0.90941   0.00000  Uiso   1.00
C568   C     0.50402   0.17469   0.56824   0.00000  Uiso   1.00
C569   C     0.58952   0.16461   0.56167   0.00000  Uiso   1.00
C570   C     0.45963   0.18370   0.90574   0.00000  Uiso   1.00
C571   C     0.54343   0.31209   0.74094   0.00000  Uiso   1.00
C572   C     0.47430   0.17213   0.84950   0.00000  Uiso   1.00
C573   C     0.54238   0.02114   0.74267   0.00000  Uiso   1.00
C574   C     0.49814   0.04270   0.75424   0.00000  Uiso   1.00
C575   C     0.45392   0.02081   0.76690   0.00000  Uiso   1.00
C576   C     0.45525   0.31160   0.76501   0.00000  Uiso   1.00
C577   C     0.49971   0.29041   0.75160   0.00000  Uiso   1.00
C578   C     0.63588   0.19827   0.77248   0.00000  Uiso   1.00
C579   C     0.35163   0.19785   0.77349   0.00000  Uiso   1.00
C580   C     0.36544   0.13637   0.72487   0.00000  Uiso   1.00
C581   C     0.64969   0.13634   0.72442   0.00000  Uiso   1.00
C582   C     0.49934   0.08743   0.75188   0.00000  Uiso   1.00
C583   C     0.52599   0.16629   0.64985   0.00000  Uiso   1.00
C584   C     0.60087   0.17008   0.50843   0.00000  Uiso   1.00
C585   C     0.54063   0.16815   0.59259   0.00000  Uiso   1.00
C586   C     0.41024   0.18890   0.93266   0.00000  Uiso   1.00
C587   C     0.39603   0.19622   0.98614   0.00000  Uiso   1.00
C588   C     0.42946   0.19265   0.51442   0.00000  Uiso   1.00
Cu589  Cu    0.45311   0.16666   0.75000   0.00000  Uiso   1.00
Cu590  Cu    0.54689   0.16667   0.75000   0.00000  Uiso   1.00
H591   H     0.57658   0.03688   0.73431   0.00000  Uiso   1.00
H592   H     0.42126   0.29508   0.77477   0.00000  Uiso   1.00
H593   H     0.61360   0.22475   0.78815   0.00000  Uiso   1.00
H594   H     0.36486   0.22299   0.79235   0.00000  Uiso   1.00
H595   H     0.39004   0.11238   0.70419   0.00000  Uiso   1.00
H596   H     0.61616   0.19713   0.91295   0.00000  Uiso   1.00
H597   H     0.63794   0.16625   0.98451   0.00000  Uiso   1.00
H598   H     0.46670   0.17482   0.59178   0.00000  Uiso   1.00
H599   H     0.38273   0.18827   0.91231   0.00000  Uiso   1.00
H600   H     0.41561   0.19635   0.55600   0.00000  Uiso   1.00
H601   H     0.35883   0.20406   0.50627   0.00000  Uiso   1.00
N602   N     0.38265   0.16666   0.74998   0.00000  Uiso   1.00
N603   N     0.61735   0.16669   0.74999   0.00000  Uiso   1.00
O604   O     0.46042   0.22678   0.75000   0.00000  Uiso   1.00
O605   O     0.53961   0.22679   0.75000   0.00000  Uiso   1.00
O606   O     0.44108   0.16665   0.82549   0.00000  Uiso   1.00
O607   O     0.52027   0.16666   0.82549   0.00000  Uiso   1.00
O608   O     0.46039   0.10654   0.74999   0.00000  Uiso   1.00
O609   O     0.53958   0.10655   0.74999   0.00000  Uiso   1.00
O610   O     0.47973   0.16667   0.67451   0.00000  Uiso   1.00
O611   O     0.55892   0.16668   0.67451   0.00000  Uiso   1.00
Cl612  Cl    0.63845   0.15356   0.58638   0.00000  Uiso   1.00
Cl613  Cl    0.39568   0.04410   0.78769   0.00000  Uiso   1.00
Cl614  Cl    0.63403   0.09788   0.68603   0.00000  Uiso   1.00
F615   F     0.55452   0.22172   0.86615   0.00000  Uiso   1.00
F616   F     0.58733   0.29263   0.72792   0.00000  Uiso   1.00
C617   C     0.83330   0.24587   0.75019   0.00000  Uiso   1.00
C618   C     0.81266   0.18712   0.98858   0.00000  Uiso   1.00
C619   C     0.82758   0.18928   0.93377   0.00000  Uiso   1.00
C620   C     0.84872   0.18107   0.51465   0.00000  Uiso   1.00
C621   C     0.89829   0.18033   0.98537   0.00000  Uiso   1.00
C622   C     0.91171   0.19194   0.93375   0.00000  Uiso   1.00
C623   C     0.87621   0.19910   0.90941   0.00000  Uiso   1.00
C624   C     0.83735   0.17469   0.56824   0.00000  Uiso   1.00
C625   C     0.92285   0.16461   0.56167   0.00000  Uiso   1.00
C626   C     0.79296   0.18370   0.90574   0.00000  Uiso   1.00
C627   C     0.87676   0.31209   0.74094   0.00000  Uiso   1.00
C628   C     0.80763   0.17213   0.84950   0.00000  Uiso   1.00
C629   C     0.87571   0.02114   0.74267   0.00000  Uiso   1.00
C630   C     0.83147   0.04270   0.75424   0.00000  Uiso   1.00
C631   C     0.78725   0.02081   0.76690   0.00000  Uiso   1.00
C632   C     0.78858   0.31160   0.76501   0.00000  Uiso   1.00
C633   C     0.83304   0.29041   0.75160   0.00000  Uiso   1.00
C634   C     0.96921   0.19827   0.77248   0.00000  Uiso   1.00
C635   C     0.68496   0.19785   0.77349   0.00000  Uiso   1.00
C636   C     0.69878   0.13637   0.72487   0.00000  Uiso   1.00
C637   C     0.98302   0.13634   0.72442   0.00000  Uiso   1.00
C638   C     0.83267   0.08743   0.75188   0.00000  Uiso   1.00
C639   C     0.85932   0.16629   0.64985   0.00000  Uiso   1.00
C640   C     0.93420   0.17008   0.50843   0.00000  Uiso   1.00
C641   C     0.87396   0.16815   0.59259   0.00000  Uiso   1.00
C642   C     0.74357   0.18890   0.93266   0.00000  Uiso   1.00
C643   C     0.72937   0.19622   0.98614   0.00000  Uiso   1.00
C644   C     0.76279   0.19265   0.51442   0.00000  Uiso   1.00
Cu645  Cu    0.78645   0.16666   0.75000   0.00000  Uiso   1.00
Cu646  Cu    0.88022   0.16667   0.75000   0.00000  Uiso   1.00
H647   H     0.90992   0.03688   0.73431   0.00000  Uiso   1.00
H648   H     0.75459   0.29508   0.77477   0.00000  Uiso   1.00
H649   H     0.94693   0.22475   0.78815   0.00000  Uiso   1.00
H650   H     0.69820   0.22299   0.79235   0.00000  Uiso   1.00
H651   H     0.72337   0.11238   0.70419   0.00000  Uiso   1.00
H652   H     0.94950   0.19713   0.91295   0.00000  Uiso   1.00
H653   H     0.97127   0.16625   0.98451   0.00000  Uiso   1.00
H654   H     0.80004   0.17482   0.59178   0.00000  Uiso   1.00
H655   H     0.71606   0.18827   0.91231   0.00000  Uiso   1.00
H656   H     0.74895   0.19635   0.55600   0.00000  Uiso   1.00
H657   H     0.69217   0.20406   0.50627   0.00000  Uiso   1.00
N658   N     0.71598   0.16666   0.74998   0.00000  Uiso   1.00
N659   N     0.95069   0.16669   0.74999   0.00000  Uiso   1.00
O660   O     0.79375   0.22678   0.75000   0.00000  Uiso   1.00
O661   O     0.87294   0.22679   0.75000   0.00000  Uiso   1.00
O662   O     0.77441   0.16665   0.82549   0.00000  Uiso   1.00
O663   O     0.85360   0.16666   0.82549   0.00000  Uiso   1.00
O664   O     0.79373   0.10654   0.74999   0.00000  Uiso   1.00
O665   O     0.87292   0.10655   0.74999   0.00000  Uiso   1.00
O666   O     0.81306   0.16667   0.67451   0.00000  Uiso   1.00
O667   O     0.89225   0.16668   0.67451   0.00000  Uiso   1.00
Cl668  Cl    0.97178   0.15356   0.58638   0.00000  Uiso   1.00
Cl669  Cl    0.72902   0.04410   0.78769   0.00000  Uiso   1.00
Cl670  Cl    0.96736   0.09788   0.68603   0.00000  Uiso   1.00
F671   F     0.88785   0.22172   0.86615   0.00000  Uiso   1.00
F672   F     0.92067   0.29263   0.72792   0.00000  Uiso   1.00
C673   C     0.16663   0.57920   0.75019   0.00000  Uiso   1.00
C674   C     0.14599   0.52045   0.98858   0.00000  Uiso   1.00
C675   C     0.16092   0.52261   0.93377   0.00000  Uiso   1.00
C676   C     0.18205   0.51440   0.51465   0.00000  Uiso   1.00
C677   C     0.23162   0.51366   0.98537   0.00000  Uiso   1.00
C678   C     0.24505   0.52528   0.93375   0.00000  Uiso   1.00
C679   C     0.20954   0.53244   0.90941   0.00000  Uiso   1.00
C680   C     0.17068   0.50802   0.56824   0.00000  Uiso   1.00
C681   C     0.25618   0.49794   0.56167   0.00000  Uiso   1.00
C682   C     0.12629   0.51704   0.90574   0.00000  Uiso   1.00
C683   C     0.21009   0.64542   0.74094   0.00000  Uiso   1.00
C684   C     0.14096   0.50546   0.84950   0.00000  Uiso   1.00
C685   C     0.20904   0.35447   0.74267   0.00000  Uiso   1.00
C686   C     0.16480   0.37604   0.75424   0.00000  Uiso   1.00
C687   C     0.12059   0.35414   0.76690   0.00000  Uiso   1.00
C688   C     0.12192   0.64493   0.76501   0.00000  Uiso   1.00
C689   C     0.16638   0.62374   0.75160   0.00000  Uiso   1.00
C690   C     0.30254   0.53161   0.77248   0.00000  Uiso   1.00
C691   C     0.01830   0.53119   0.77349   0.00000  Uiso   1.00
C692   C     0.03211   0.46970   0.72487   0.00000  Uiso   1.00
C693   C     0.31636   0.46968   0.72442   0.00000  Uiso   1.00
C694   C     0.16600   0.42076   0.75188   0.00000  Uiso   1.00
C695   C     0.19266   0.49963   0.64985   0.00000  Uiso   1.00
C696   C     0.26753   0.50341   0.50843   0.00000  Uiso   1.00
C697   C     0.20729   0.50148   0.59259   0.00000  Uiso   1.00
C698   C     0.07690   0.52223   0.93266   0.00000  Uiso   1.00
C699   C     0.06270   0.52956   0.98614   0.00000  Uiso   1.00
C700   C     0.09612   0.52598   0.51442   0.00000  Uiso   1.00
Cu701  Cu    0.11978   0.49999   0.75000   0.00000  Uiso   1.00
Cu702  Cu    0.21355   0.50001   0.75000   0.00000  Uiso   1.00
H703   H     0.24325   0.37021   0.73431   0.00000  Uiso   1.00
H704   H     0.08793   0.62842   0.77477   0.00000  Uiso   1.00
H705   H     0.28027   0.55809   0.78815   0.00000  Uiso   1.00
H706   H     0.03153   0.55632   0.79235   0.00000  Uiso   1.00
H707   H     0.05671   0.44572   0.70419   0.00000  Uiso   1.00
H708   H     0.28283   0.53046   0.91295   0.00000  Uiso   1.00
H709   H     0.30461   0.49958   0.98451   0.00000  Uiso   1.00
H710   H     0.13337   0.50816   0.59178   0.00000  Uiso   1.00
H711   H     0.04939   0.52160   0.91231   0.00000  Uiso   1.00
H712   H     0.08228   0.52968   0.55600   0.00000  Uiso   1.00
H713   H     0.02550   0.53740   0.50627   0.00000  Uiso   1.00
N714   N     0.04931   0.49999   0.74998   0.00000  Uiso   1.00
N715   N     0.28402   0.50002   0.74999   0.00000  Uiso   1.00
O716   O     0.12708   0.56011   0.75000   0.00000  Uiso   1.00
O717   O     0.20627   0.56012   0.75000   0.00000  Uiso   1.00
O718   O     0.10775   0.49998   0.82549   0.00000  Uiso   1.00
O719   O     0.18694   0.49999   0.82549   0.00000  Uiso   1.00
O720   O     0.12706   0.43988   0.74999   0.00000  Uiso   1.00
O721   O     0.20625   0.43989   0.74999   0.00000  Uiso   1.00
O722   O     0.14640   0.50001   0.67451   0.00000  Uiso   1.00
O723   O     0.22559   0.50002   0.67451   0.00000  Uiso   1.00
Cl724  Cl    0.30512   0.48690   0.58638   0.00000  Uiso   1.00
Cl725  Cl    0.06235   0.37743   0.78769   0.00000  Uiso   1.00
Cl726  Cl    0.30069   0.43121   0.68603   0.00000  Uiso   1.00
F727   F     0.22119   0.55506   0.86615   0.00000  Uiso   1.00
F728   F     0.25400   0.62596   0.72792   0.00000  Uiso   1.00
C729   C     0.49996   0.57920   0.75019   0.00000  Uiso   1.00
C730   C     0.47933   0.52045   0.98858   0.00000  Uiso   1.00
C731   C     0.49425   0.52261   0.93377   0.00000  Uiso   1.00
C732   C     0.51538   0.51440   0.51465   0.00000  Uiso   1.00
C733   C     0.56496   0.51366   0.98537   0.00000  Uiso   1.00
C734   C     0.57838   0.52528   0.93375   0.00000  Uiso   1.00
C735   C     0.54288   0.53244   0.90941   0.00000  Uiso   1.00
C736   C     0.50402   0.50802   0.56824   0.00000  Uiso   1.00
C737   C     0.58952   0.49794   0.56167   0.00000  Uiso   1.00
C738   C     0.45963   0.51704   0.90574   0.00000  Uiso   1.00
C739   C     0.54343   0.64542   0.74094   0.00000  Uiso   1.00
C740   C     0.47430   0.50546   0.84950   0.00000  Uiso   1.00
C741   C     0.54238   0.35447   0.74267   0.00000  Uiso   1.00
C742   C     0.49814   0.37604   0.75424   0.00000  Uiso   1.00
C743   C     0.45392   0.35414   0.76690   0.00000  Uiso   1.00
C744   C     0.45525   0.64493   0.76501   0.00000  Uiso   1.00
C745   C     0.49971   0.62374   0.75160   0.00000  Uiso   1.00
C746   C     0.63588   0.53161   0.77248   0.00000  Uiso   1.00
C747   C     0.35163   0.53119   0.77349   0.00000  Uiso   1.00
C748   C     0.36544   0.46970   0.72487   0.00000  Uiso   1.00
C749   C     0.64969   0.46968   0.72442   0.00000  Uiso   1.00
C750   C     0.49934   0.42076   0.75188   0.00000  Uiso   1.00
C751   C     0.52599   0.49963   0.64985   0.00000  Uiso   1.00
C752   C     0.60087   0.50341   0.50843   0.00000  Uiso   1.00
C753   C     0.54063   0.50148   0.59259   0.00000  Uiso   1.00
C754   C     0.41024   0.52223   0.93266   0.00000  Uiso   1.00
C755   C     0.39603   0.52956   0.98614   0.00000  Uiso   1.00
C756   C     0.42946   0.52598   0.51442   0.00000  Uiso   1.00
Cu757  Cu    0.45311   0.49999   0.75000   0.00000  Uiso   1.00
Cu758  Cu    0.54689   0.50001   0.75000   0.00000  Uiso   1.00
H759   H     0.57658   0.37021   0.73431   0.00000  Uiso   1.00
H760   H     0.42126   0.62842   0.77477   0.00000  Uiso   1.00
H761   H     0.61360   0.55809   0.78815   0.00000  Uiso   1.00
H762   H     0.36486   0.55632   0.79235   0.00000  Uiso   1.00
H763   H     0.39004   0.44572   0.70419   0.00000  Uiso   1.00
H764   H     0.61616   0.53046   0.91295   0.00000  Uiso   1.00
H765   H     0.63794   0.49958   0.98451   0.00000  Uiso   1.00
H766   H     0.46670   0.50816   0.59178   0.00000  Uiso   1.00
H767   H     0.38273   0.52160   0.91231   0.00000  Uiso   1.00
H768   H     0.41561   0.52968   0.55600   0.00000  Uiso   1.00
H769   H     0.35883   0.53740   0.50627   0.00000  Uiso   1.00
N770   N     0.38265   0.49999   0.74998   0.00000  Uiso   1.00
N771   N     0.61735   0.50002   0.74999   0.00000  Uiso   1.00
O772   O     0.46042   0.56011   0.75000   0.00000  Uiso   1.00
O773   O     0.53961   0.56012   0.75000   0.00000  Uiso   1.00
O774   O     0.44108   0.49998   0.82549   0.00000  Uiso   1.00
O775   O     0.52027   0.49999   0.82549   0.00000  Uiso   1.00
O776   O     0.46039   0.43988   0.74999   0.00000  Uiso   1.00
O777   O     0.53958   0.43989   0.74999   0.00000  Uiso   1.00
O778   O     0.47973   0.50001   0.67451   0.00000  Uiso   1.00
O779   O     0.55892   0.50002   0.67451   0.00000  Uiso   1.00
Cl780  Cl    0.63845   0.48690   0.58638   0.00000  Uiso   1.00
Cl781  Cl    0.39568   0.37743   0.78769   0.00000  Uiso   1.00
Cl782  Cl    0.63403   0.43121   0.68603   0.00000  Uiso   1.00
F783   F     0.55452   0.55506   0.86615   0.00000  Uiso   1.00
F784   F     0.58733   0.62596   0.72792   0.00000  Uiso   1.00
C785   C     0.83330   0.57920   0.75019   0.00000  Uiso   1.00
C786   C     0.81266   0.52045   0.98858   0.00000  Uiso   1.00
C787   C     0.82758   0.52261   0.93377   0.00000  Uiso   1.00
C788   C     0.84872   0.51440   0.51465   0.00000  Uiso   1.00
C789   C     0.89829   0.51366   0.98537   0.00000  Uiso   1.00
C790   C     0.91171   0.52528   0.93375   0.00000  Uiso   1.00
C791   C     0.87621   0.53244   0.90941   0.00000  Uiso   1.00
C792   C     0.83735   0.50802   0.56824   0.00000  Uiso   1.00
C793   C     0.92285   0.49794   0.56167   0.00000  Uiso   1.00
C794   C     0.79296   0.51704   0.90574   0.00000  Uiso   1.00
C795   C     0.87676   0.64542   0.74094   0.00000  Uiso   1.00
C796   C     0.80763   0.50546   0.84950   0.00000  Uiso   1.00
C797   C     0.87571   0.35447   0.74267   0.00000  Uiso   1.00
C798   C     0.83147   0.37604   0.75424   0.00000  Uiso   1.00
C799   C     0.78725   0.35414   0.76690   0.00000  Uiso   1.00
C800   C     0.78858   0.64493   0.76501   0.00000  Uiso   1.00
C801   C     0.83304   0.62374   0.75160   0.00000  Uiso   1.00
C802   C     0.96921   0.53161   0.77248   0.00000  Uiso   1.00
C803   C     0.68496   0.53119   0.77349   0.00000  Uiso   1.00
C804   C     0.69878   0.46970   0.72487   0.00000  Uiso   1.00
C805   C     0.98302   0.46968   0.72442   0.00000  Uiso   1.00
C806   C     0.83267   0.42076   0.75188   0.00000  Uiso   1.00
C807   C     0.85932   0.49963   0.64985   0.00000  Uiso   1.00
C808   C     0.93420   0.50341   0.50843   0.00000  Uiso   1.00
C809   C     0.87396   0.50148   0.59259   0.00000  Uiso   1.00
C810   C     0.74357   0.52223   0.93266   0.00000  Uiso   1.00
C811   C     0.72937   0.52956   0.98614   0.00000  Uiso   1.00
C812   C     0.76279   0.52598   0.51442   0.00000  Uiso   1.00
Cu813  Cu    0.78645   0.49999   0.75000   0.00000  Uiso   1.00
Cu814  Cu    0.88022   0.50001   0.75000   0.00000  Uiso   1.00
H815   H     0.90992   0.37021   0.73431   0.00000  Uiso   1.00
H816   H     0.75459   0.62842   0.77477   0.00000  Uiso   1.00
H817   H     0.94693   0.55809   0.78815   0.00000  Uiso   1.00
H818   H     0.69820   0.55632   0.79235   0.00000  Uiso   1.00
H819   H     0.72337   0.44572   0.70419   0.00000  Uiso   1.00
H820   H     0.94950   0.53046   0.91295   0.00000  Uiso   1.00
H821   H     0.97127   0.49958   0.98451   0.00000  Uiso   1.00
H822   H     0.80004   0.50816   0.59178   0.00000  Uiso   1.00
H823   H     0.71606   0.52160   0.91231   0.00000  Uiso   1.00
H824   H     0.74895   0.52968   0.55600   0.00000  Uiso   1.00
H825   H     0.69217   0.53740   0.50627   0.00000  Uiso   1.00
N826   N     0.71598   0.49999   0.74998   0.00000  Uiso   1.00
N827   N     0.95069   0.50002   0.74999   0.00000  Uiso   1.00
O828   O     0.79375   0.56011   0.75000   0.00000  Uiso   1.00
O829   O     0.87294   0.56012   0.75000   0.00000  Uiso   1.00
O830   O     0.77441   0.49998   0.82549   0.00000  Uiso   1.00
O831   O     0.85360   0.49999   0.82549   0.00000  Uiso   1.00
O832   O     0.79373   0.43988   0.74999   0.00000  Uiso   1.00
O833   O     0.87292   0.43989   0.74999   0.00000  Uiso   1.00
O834   O     0.81306   0.50001   0.67451   0.00000  Uiso   1.00
O835   O     0.89225   0.50002   0.67451   0.00000  Uiso   1.00
Cl836  Cl    0.97178   0.48690   0.58638   0.00000  Uiso   1.00
Cl837  Cl    0.72902   0.37743   0.78769   0.00000  Uiso   1.00
Cl838  Cl    0.96736   0.43121   0.68603   0.00000  Uiso   1.00
F839   F     0.88785   0.55506   0.86615   0.00000  Uiso   1.00
F840   F     0.92067   0.62596   0.72792   0.00000  Uiso   1.00
C841   C     0.16663   0.91253   0.75019   0.00000  Uiso   1.00
C842   C     0.14599   0.85379   0.98858   0.00000  Uiso   1.00
C843   C     0.16092   0.85594   0.93377   0.00000  Uiso   1.00
C844   C     0.18205   0.84774   0.51465   0.00000  Uiso   1.00
C845   C     0.23162   0.84700   0.98537   0.00000  Uiso   1.00
C846   C     0.24505   0.85861   0.93375   0.00000  Uiso   1.00
C847   C     0.20954   0.86577   0.90941   0.00000  Uiso   1.00
C848   C     0.17068   0.84135   0.56824   0.00000  Uiso   1.00
C849   C     0.25618   0.83127   0.56167   0.00000  Uiso   1.00
C850   C     0.12629   0.85037   0.90574   0.00000  Uiso   1.00
C851   C     0.21009   0.97875   0.74094   0.00000  Uiso   1.00
C852   C     0.14096   0.83879   0.84950   0.00000  Uiso   1.00
C853   C     0.20904   0.68780   0.74267   0.00000  Uiso   1.00
C854   C     0.16480   0.70937   0.75424   0.00000  Uiso   1.00
C855   C     0.12059   0.68748   0.76690   0.00000  Uiso   1.00
C856   C     0.12192   0.97826   0.76501   0.00000  Uiso   1.00
C857   C     0.16638   0.95708   0.75160   0.00000  Uiso   1.00
C858   C     0.30254   0.86494   0.77248   0.00000  Uiso   1.00
C859   C     0.01830   0.86452   0.77349   0.00000  Uiso   1.00
C860   C     0.03211   0.80303   0.72487   0.00000  Uiso   1.00
C861   C     0.31636   0.80301   0.72442   0.00000  Uiso   1.00
C862   C     0.16600   0.75409   0.75188   0.00000  Uiso   1.00
C863   C     0.19266   0.83296   0.64985   0.00000  Uiso   1.00
C864   C     0.26753   0.83675   0.50843   0.00000  Uiso   1.00
C865   C     0.20729   0.83482   0.59259   0.00000  Uiso   1.00
C866   C     0.07690   0.85557   0.93266   0.00000  Uiso   1.00
C867   C     0.06270   0.86289   0.98614   0.00000  Uiso   1.00
C868   C     0.09612   0.85931   0.51442   0.00000  Uiso   1.00
Cu869  Cu    0.11978   0.83333   0.75000   0.00000  Uiso   1.00
Cu870  Cu    0.21355   0.83334   0.75000   0.00000  Uiso   1.00
H871   H     0.24325   0.70355   0.73431   0.00000  Uiso   1.00
H872   H     0.08793   0.96175   0.77477   0.00000  Uiso   1.00
H873   H     0.28027   0.89142   0.78815   0.00000  Uiso   1.00
H874   H     0.03153   0.88965   0.79235   0.00000  Uiso   1.00
H875   H     0.05671   0.77905   0.70419   0.00000  Uiso   1.00
H876   H     0.28283   0.86380   0.91295   0.00000  Uiso   1.00
H877   H     0.30461   0.83291   0.98451   0.00000  Uiso   1.00
H878   H     0.13337   0.84149   0.59178   0.00000  Uiso   1.00
H879   H     0.04939   0.85494   0.91231   0.00000  Uiso   1.00
H880   H     0.08228   0.86302   0.55600   0.00000  Uiso   1.00
H881   H     0.02550   0.87073   0.50627   0.00000  Uiso   1.00
N882   N     0.04931   0.83332   0.74998   0.00000  Uiso   1.00
N883   N     0.28402   0.83335   0.74999   0.00000  Uiso   1.00
O884   O     0.12708   0.89345   0.75000   0.00000  Uiso   1.00
O885   O     0.20627   0.89346   0.75000   0.00000  Uiso   1.00
O886   O     0.10775   0.83332   0.82549   0.00000  Uiso   1.00
O887   O     0.18694   0.83333   0.82549   0.00000  Uiso   1.00
O888   O     0.12706   0.77321   0.74999   0.00000  Uiso   1.00
O889   O     0.20625   0.77322   0.74999   0.00000  Uiso   1.00
O890   O     0.14640   0.83334   0.67451   0.00000  Uiso   1.00
O891   O     0.22559   0.83335   0.67451   0.00000  Uiso   1.00
Cl892  Cl    0.30512   0.82023   0.58638   0.00000  Uiso   1.00
Cl893  Cl    0.06235   0.71077   0.78769   0.00000  Uiso   1.00
Cl894  Cl    0.30069   0.76454   0.68603   0.00000  Uiso   1.00
F895   F     0.22119   0.88839   0.86615   0.00000  Uiso   1.00
F896   F     0.25400   0.95929   0.72792   0.00000  Uiso   1.00
C897   C     0.49996   0.91253   0.75019   0.00000  Uiso   1.00
C898   C     0.47933   0.85379   0.98858   0.00000  Uiso   1.00
C899   C     0.49425   0.85594   0.93377   0.00000  Uiso   1.00
C900   C     0.51538   0.84774   0.51465   0.00000  Uiso   1.00
C901   C     0.56496   0.84700   0.98537   0.00000  Uiso   1.00
C902   C     0.57838   0.85861   0.93375   0.00000  Uiso   1.00
C903   C     0.54288   0.86577   0.90941   0.00000  Uiso   1.00
C904   C     0.50402   0.84135   0.56824   0.00000  Uiso   1.00
C905   C     0.58952   0.83127   0.56167   0.00000  Uiso   1.00
C906   C     0.45963   0.85037   0.90574   0.00000  Uiso   1.00
C907   C     0.54343   0.97875   0.74094   0.00000  Uiso   1.00
C908   C     0.47430   0.83879   0.84950   0.00000  Uiso   1.00
C909   C     0.54238   0.68780   0.74267   0.00000  Uiso   1.00
C910   C     0.49814   0.70937   0.75424   0.00000  Uiso   1.00
C911   C     0.45392   0.68748   0.76690   0.00000  Uiso   1.00
C912   C     0.45525   0.97826   0.76501   0.00000  Uiso   1.00
C913   C     0.49971   0.95708   0.75160   0.00000  Uiso   1.00
C914   C     0.63588   0.86494   0.77248   0.00000  Uiso   1.00
C915   C     0.35163   0.86452   0.77349   0.00000  Uiso   1.00
C916   C     0.36544   0.80303   0.72487   0.00000  Uiso   1.00
C917   C     0.64969   0.80301   0.72442   0.00000  Uiso   1.00
C918   C     0.49934   0.75409   0.75188   0.00000  Uiso   1.00
C919   C     0.52599   0.83296   0.64985   0.00000  Uiso   1.00
C920   C     0.60087   0.83675   0.50843   0.00000  Uiso   1.00
C921   C     0.54063   0.83482   0.59259   0.00000  Uiso   1.00
C922   C     0.41024   0.85557   0.93266   0.00000  Uiso   1.00
C923   C     0.39603   0.86289   0.98614   0.00000  Uiso   1.00
C924   C     0.42946   0.85931   0.51442   0.00000  Uiso   1.00
Cu925  Cu    0.45311   0.83333   0.75000   0.00000  Uiso   1.00
Cu926  Cu    0.54689   0.83334   0.75000   0.00000  Uiso   1.00
H927   H     0.57658   0.70355   0.73431   0.00000  Uiso   1.00
H928   H     0.42126   0.96175   0.77477   0.00000  Uiso   1.00
H929   H     0.61360   0.89142   0.78815   0.00000  Uiso   1.00
H930   H     0.36486   0.88965   0.79235   0.00000  Uiso   1.00
H931   H     0.39004   0.77905   0.70419   0.00000  Uiso   1.00
H932   H     0.61616   0.86380   0.91295   0.00000  Uiso   1.00
H933   H     0.63794   0.83291   0.98451   0.00000  Uiso   1.00
H934   H     0.46670   0.84149   0.59178   0.00000  Uiso   1.00
H935   H     0.38273   0.85494   0.91231   0.00000  Uiso   1.00
H936   H     0.41561   0.86302   0.55600   0.00000  Uiso   1.00
H937   H     0.35883   0.87073   0.50627   0.00000  Uiso   1.00
N938   N     0.38265   0.83332   0.74998   0.00000  Uiso   1.00
N939   N     0.61735   0.83335   0.74999   0.00000  Uiso   1.00
O940   O     0.46042   0.89345   0.75000   0.00000  Uiso   1.00
O941   O     0.53961   0.89346   0.75000   0.00000  Uiso   1.00
O942   O     0.44108   0.83332   0.82549   0.00000  Uiso   1.00
O943   O     0.52027   0.83333   0.82549   0.00000  Uiso   1.00
O944   O     0.46039   0.77321   0.74999   0.00000  Uiso   1.00
O945   O     0.53958   0.77322   0.74999   0.00000  Uiso   1.00
O946   O     0.47973   0.83334   0.67451   0.00000  Uiso   1.00
O947   O     0.55892   0.83335   0.67451   0.00000  Uiso   1.00
Cl948  Cl    0.63845   0.82023   0.58638   0.00000  Uiso   1.00
Cl949  Cl    0.39568   0.71077   0.78769   0.00000  Uiso   1.00
Cl950  Cl    0.63403   0.76454   0.68603   0.00000  Uiso   1.00
F951   F     0.55452   0.88839   0.86615   0.00000  Uiso   1.00
F952   F     0.58733   0.95929   0.72792   0.00000  Uiso   1.00
C953   C     0.83330   0.91253   0.75019   0.00000  Uiso   1.00
C954   C     0.81266   0.85379   0.98858   0.00000  Uiso   1.00
C955   C     0.82758   0.85594   0.93377   0.00000  Uiso   1.00
C956   C     0.84872   0.84774   0.51465   0.00000  Uiso   1.00
C957   C     0.89829   0.84700   0.98537   0.00000  Uiso   1.00
C958   C     0.91171   0.85861   0.93375   0.00000  Uiso   1.00
C959   C     0.87621   0.86577   0.90941   0.00000  Uiso   1.00
C960   C     0.83735   0.84135   0.56824   0.00000  Uiso   1.00
C961   C     0.92285   0.83127   0.56167   0.00000  Uiso   1.00
C962   C     0.79296   0.85037   0.90574   0.00000  Uiso   1.00
C963   C     0.87676   0.97875   0.74094   0.00000  Uiso   1.00
C964   C     0.80763   0.83879   0.84950   0.00000  Uiso   1.00
C965   C     0.87571   0.68780   0.74267   0.00000  Uiso   1.00
C966   C     0.83147   0.70937   0.75424   0.00000  Uiso   1.00
C967   C     0.78725   0.68748   0.76690   0.00000  Uiso   1.00
C968   C     0.78858   0.97826   0.76501   0.00000  Uiso   1.00
C969   C     0.83304   0.95708   0.75160   0.00000  Uiso   1.00
C970   C     0.96921   0.86494   0.77248   0.00000  Uiso   1.00
C971   C     0.68496   0.86452   0.77349   0.00000  Uiso   1.00
C972   C     0.69878   0.80303   0.72487   0.00000  Uiso   1.00
C973   C     0.98302   0.80301   0.72442   0.00000  Uiso   1.00
C974   C     0.83267   0.75409   0.75188   0.00000  Uiso   1.00
C975   C     0.85932   0.83296   0.64985   0.00000  Uiso   1.00
C976   C     0.93420   0.83675   0.50843   0.00000  Uiso   1.00
C977   C     0.87396   0.83482   0.59259   0.00000  Uiso   1.00
C978   C     0.74357   0.85557   0.93266   0.00000  Uiso   1.00
C979   C     0.72937   0.86289   0.98614   0.00000  Uiso   1.00
C980   C     0.76279   0.85931   0.51442   0.00000  Uiso   1.00
Cu981  Cu    0.78645   0.83333   0.75000   0.00000  Uiso   1.00
Cu982  Cu    0.88022   0.83334   0.75000   0.00000  Uiso   1.00
H983   H     0.90992   0.70355   0.73431   0.00000  Uiso   1.00
H984   H     0.75459   0.96175   0.77477   0.00000  Uiso   1.00
H985   H     0.94693   0.89142   0.78815   0.00000  Uiso   1.00
H986   H     0.69820   0.88965   0.79235   0.00000  Uiso   1.00
H987   H     0.72337   0.77905   0.70419   0.00000  Uiso   1.00
H988   H     0.94950   0.86380   0.91295   0.00000  Uiso   1.00
H989   H     0.97127   0.83291   0.98451   0.00000  Uiso   1.00
H990   H     0.80004   0.84149   0.59178   0.00000  Uiso   1.00
H991   H     0.71606   0.85494   0.91231   0.00000  Uiso   1.00
H992   H     0.74895   0.86302   0.55600   0.00000  Uiso   1.00
H993   H     0.69217   0.87073   0.50627   0.00000  Uiso   1.00
N994   N     0.71598   0.83332   0.74998   0.00000  Uiso   1.00
N995   N     0.95069   0.83335   0.74999   0.00000  Uiso   1.00
O996   O     0.79375   0.89345   0.75000   0.00000  Uiso   1.00
O997   O     0.87294   0.89346   0.75000   0.00000  Uiso   1.00
O998   O     0.77441   0.83332   0.82549   0.00000  Uiso   1.00
O999   O     0.85360   0.83333   0.82549   0.00000  Uiso   1.00
O1000  O     0.79373   0.77321   0.74999   0.00000  Uiso   1.00
O1001  O     0.87292   0.77322   0.74999   0.00000  Uiso   1.00
O1002  O     0.81306   0.83334   0.67451   0.00000  Uiso   1.00
O1003  O     0.89225   0.83335   0.67451   0.00000  Uiso   1.00
Cl1004 Cl    0.97178   0.82023   0.58638   0.00000  Uiso   1.00
Cl1005 Cl    0.72902   0.71077   0.78769   0.00000  Uiso   1.00
Cl1006 Cl    0.96736   0.76454   0.68603   0.00000  Uiso   1.00
F1007  F     0.88785   0.88839   0.86615   0.00000  Uiso   1.00
F1008  F     0.92067   0.95929   0.72792   0.00000  Uiso   1.00
loop_
_geom_bond_atom_site_label_1
_geom_bond_atom_site_label_2
_geom_bond_distance
_geom_bond_site_symmetry_2
_ccdc_geom_bond_type
C1     O45     1.293   .     A
C1     O44     1.299   .     A
C1     C17     1.451   .     S
C2     C3      1.416   .     A
C2     C508    1.423   .     S
C2     C532    1.410   .     S
C3     C10     1.420   .     A
C3     C7      1.403   .     A
C4     C8      1.404   .     A
C4     C506    1.423   1_554 S
C4     C509    1.415   1_554 S
C5     C6      1.391   .     A
C5     C508    1.415   .     S
C5     C528    1.390   .     S
C6     C7      1.382   .     A
C6     H36     1.084   .     S
C7     F55     1.350   .     S
C8     C25     1.407   .     A
C8     H38     1.077   .     S
C9     C24     1.390   .     A
C9     C25     1.414   .     A
C9     Cl52    1.757   .     S
C10    C26     1.403   .     A
C10    C12     1.490   .     S
C11    C17     1.403   .     A
C11    F56     1.358   .     S
C11    C181    1.381   .     S
C12    O47     1.302   .     A
C12    O46     1.308   .     A
C13    C14     1.400   .     A
C13    H31     1.078   .     S
C13    C347    1.381   1_545 S
C14    C22     1.460   .     S
C14    C15     1.417   .     A
C15    Cl53    1.766   .     S
C15    C352    1.386   1_545 S
C16    H32     1.084   .     S
C16    C17     1.398   .     A
C16    C183    1.386   .     S
C18    H33     1.075   .     S
C18    N43     1.369   .     A
C18    C75     1.418   .     S
C19    N42     1.367   .     A
C19    H34     1.081   .     S
C19    C130    1.418   1_455 S
C20    N42     1.358   .     A
C20    H35     1.082   .     S
C20    C133    1.413   1_455 S
C21    Cl54    1.749   .     S
C21    N43     1.382   .     A
C21    C76     1.413   .     S
C22    O48     1.292   .     A
C22    O49     1.304   .     A
C23    O51     1.302   .     A
C23    C25     1.479   .     S
C23    O50     1.303   .     A
C24    C509    1.390   1_554 S
C24    H541    1.080   1_554 S
C26    C27     1.394   .     A
C26    H39     1.083   .     S
C27    C532    1.391   .     S
C27    H545    1.077   .     S
C28    H40     1.078   .     S
C28    C531    1.391   1_554 S
C28    C506    1.410   1_554 S
Cu29   N42     2.024   .     S
Cu29   O46     1.960   .     S
Cu29   Cu30    2.693   .     S
Cu29   O50     1.954   .     S
Cu29   O44     1.971   .     S
Cu29   O48     1.969   .     S
Cu30   O51     1.960   .     S
Cu30   O45     1.969   .     S
Cu30   O49     1.971   .     S
Cu30   N43     2.024   .     S
Cu30   O47     1.954   .     S
H37    C528    1.080   .     S
H41    C531    1.077   1_554 S
C57    O101    1.293   .     A
C57    O100    1.299   .     A
C57    C73     1.451   .     S
C58    C59     1.416   .     A
C58    C564    1.423   .     S
C58    C588    1.410   .     S
C59    C66     1.420   .     A
C59    C63     1.403   .     A
C60    C64     1.404   .     A
C60    C562    1.423   1_554 S
C60    C565    1.415   1_554 S
C61    C62     1.391   .     A
C61    C564    1.415   .     S
C61    C584    1.390   .     S
C62    C63     1.382   .     A
C62    H92     1.084   .     S
C63    F111    1.350   .     S
C64    C81     1.407   .     A
C64    H94     1.077   .     S
C65    C80     1.390   .     A
C65    C81     1.414   .     A
C65    Cl108   1.757   .     S
C66    C82     1.403   .     A
C66    C68     1.490   .     S
C67    C73     1.403   .     A
C67    F112    1.358   .     S
C67    C237    1.381   .     S
C68    O103    1.302   .     A
C68    O102    1.308   .     A
C69    C70     1.400   .     A
C69    H87     1.078   .     S
C69    C403    1.381   1_545 S
C70    C78     1.460   .     S
C70    C71     1.417   .     A
C71    Cl109   1.766   .     S
C71    C408    1.386   1_545 S
C72    H88     1.084   .     S
C72    C73     1.398   .     A
C72    C239    1.386   .     S
C74    H89     1.075   .     S
C74    N99     1.369   .     A
C74    C131    1.418   .     S
C75    N98     1.367   .     A
C75    H90     1.081   .     S
C76    N98     1.358   .     A
C76    H91     1.082   .     S
C77    Cl110   1.749   .     S
C77    N99     1.382   .     A
C77    C132    1.413   .     S
C78    O104    1.292   .     A
C78    O105    1.304   .     A
C79    O107    1.302   .     A
C79    C81     1.479   .     S
C79    O106    1.303   .     A
C80    C565    1.390   1_554 S
C80    H597    1.080   1_554 S
C82    C83     1.394   .     A
C82    H95     1.083   .     S
C83    C588    1.391   .     S
C83    H601    1.077   .     S
C84    H96     1.078   .     S
C84    C587    1.391   1_554 S
C84    C562    1.410   1_554 S
Cu85   N98     2.024   .     S
Cu85   O102    1.960   .     S
Cu85   Cu86    2.693   .     S
Cu85   O106    1.954   .     S
Cu85   O100    1.971   .     S
Cu85   O104    1.969   .     S
Cu86   O107    1.960   .     S
Cu86   O101    1.969   .     S
Cu86   O105    1.971   .     S
Cu86   N99     2.024   .     S
Cu86   O103    1.954   .     S
H93    C584    1.080   .     S
H97    C587    1.077   1_554 S
C113   O157    1.293   .     A
C113   O156    1.299   .     A
C113   C129    1.451   .     S
C114   C115    1.416   .     A
C114   C620    1.423   .     S
C114   C644    1.410   .     S
C115   C122    1.420   .     A
C115   C119    1.403   .     A
C116   C120    1.404   .     A
C116   C618    1.423   1_554 S
C116   C621    1.415   1_554 S
C117   C118    1.391   .     A
C117   C620    1.415   .     S
C117   C640    1.390   .     S
C118   C119    1.382   .     A
C118   H148    1.084   .     S
C119   F167    1.350   .     S
C120   C137    1.407   .     A
C120   H150    1.077   .     S
C121   C136    1.390   .     A
C121   C137    1.414   .     A
C121   Cl164   1.757   .     S
C122   C138    1.403   .     A
C122   C124    1.490   .     S
C123   C129    1.403   .     A
C123   F168    1.358   .     S
C123   C293    1.381   .     S
C124   O159    1.302   .     A
C124   O158    1.308   .     A
C125   C126    1.400   .     A
C125   H143    1.078   .     S
C125   C459    1.381   1_545 S
C126   C134    1.460   .     S
C126   C127    1.417   .     A
C127   Cl165   1.766   .     S
C127   C464    1.386   1_545 S
C128   H144    1.084   .     S
C128   C129    1.398   .     A
C128   C295    1.386   .     S
C130   H145    1.075   .     S
C130   N155    1.369   .     A
C130   C19     1.418   1_655 S
C131   N154    1.367   .     A
C131   H146    1.081   .     S
C132   N154    1.358   .     A
C132   H147    1.082   .     S
C133   Cl166   1.749   .     S
C133   N155    1.382   .     A
C133   C20     1.413   1_655 S
C134   O160    1.292   .     A
C134   O161    1.304   .     A
C135   O163    1.302   .     A
C135   C137    1.479   .     S
C135   O162    1.303   .     A
C136   C621    1.390   1_554 S
C136   H653    1.080   1_554 S
C138   C139    1.394   .     A
C138   H151    1.083   .     S
C139   C644    1.391   .     S
C139   H657    1.077   .     S
C140   H152    1.078   .     S
C140   C643    1.391   1_554 S
C140   C618    1.410   1_554 S
Cu141  N154    2.024   .     S
Cu141  O158    1.960   .     S
Cu141  Cu142   2.693   .     S
Cu141  O162    1.954   .     S
Cu141  O156    1.971   .     S
Cu141  O160    1.969   .     S
Cu142  O163    1.960   .     S
Cu142  O157    1.969   .     S
Cu142  O161    1.971   .     S
Cu142  N155    2.024   .     S
Cu142  O159    1.954   .     S
H149   C640    1.080   .     S
H153   C643    1.077   1_554 S
C169   O213    1.293   .     A
C169   O212    1.299   .     A
C169   C185    1.451   .     S
C170   C171    1.416   .     A
C170   C676    1.423   .     S
C170   C700    1.410   .     S
C171   C178    1.420   .     A
C171   C175    1.403   .     A
C172   C176    1.404   .     A
C172   C674    1.423   1_554 S
C172   C677    1.415   1_554 S
C173   C174    1.391   .     A
C173   C676    1.415   .     S
C173   C696    1.390   .     S
C174   C175    1.382   .     A
C174   H204    1.084   .     S
C175   F223    1.350   .     S
C176   C193    1.407   .     A
C176   H206    1.077   .     S
C177   C192    1.390   .     A
C177   C193    1.414   .     A
C177   Cl220   1.757   .     S
C178   C194    1.403   .     A
C178   C180    1.490   .     S
C179   C185    1.403   .     A
C179   F224    1.358   .     S
C179   C349    1.381   .     S
C180   O215    1.302   .     A
C180   O214    1.308   .     A
C181   C182    1.400   .     A
C181   H199    1.078   .     S
C182   C190    1.460   .     S
C182   C183    1.417   .     A
C183   Cl221   1.766   .     S
C184   H200    1.084   .     S
C184   C185    1.398   .     A
C184   C351    1.386   .     S
C186   H201    1.075   .     S
C186   N211    1.369   .     A
C186   C243    1.418   .     S
C187   N210    1.367   .     A
C187   H202    1.081   .     S
C187   C298    1.418   1_455 S
C188   N210    1.358   .     A
C188   H203    1.082   .     S
C188   C301    1.413   1_455 S
C189   Cl222   1.749   .     S
C189   N211    1.382   .     A
C189   C244    1.413   .     S
C190   O216    1.292   .     A
C190   O217    1.304   .     A
C191   O219    1.302   .     A
C191   C193    1.479   .     S
C191   O218    1.303   .     A
C192   C677    1.390   1_554 S
C192   H709    1.080   1_554 S
C194   C195    1.394   .     A
C194   H207    1.083   .     S
C195   C700    1.391   .     S
C195   H713    1.077   .     S
C196   H208    1.078   .     S
C196   C699    1.391   1_554 S
C196   C674    1.410   1_554 S
Cu197  N210    2.024   .     S
Cu197  O214    1.960   .     S
Cu197  Cu198   2.693   .     S
Cu197  O218    1.954   .     S
Cu197  O212    1.971   .     S
Cu197  O216    1.969   .     S
Cu198  O219    1.960   .     S
Cu198  O213    1.969   .     S
Cu198  O217    1.971   .     S
Cu198  N211    2.024   .     S
Cu198  O215    1.954   .     S
H205   C696    1.080   .     S
H209   C699    1.077   1_554 S
C225   O269    1.293   .     A
C225   O268    1.299   .     A
C225   C241    1.451   .     S
C226   C227    1.416   .     A
C226   C732    1.423   .     S
C226   C756    1.410   .     S
C227   C234    1.420   .     A
C227   C231    1.403   .     A
C228   C232    1.404   .     A
C228   C730    1.423   1_554 S
C228   C733    1.415   1_554 S
C229   C230    1.391   .     A
C229   C732    1.415   .     S
C229   C752    1.390   .     S
C230   C231    1.382   .     A
C230   H260    1.084   .     S
C231   F279    1.350   .     S
C232   C249    1.407   .     A
C232   H262    1.077   .     S
C233   C248    1.390   .     A
C233   C249    1.414   .     A
C233   Cl276   1.757   .     S
C234   C250    1.403   .     A
C234   C236    1.490   .     S
C235   C241    1.403   .     A
C235   F280    1.358   .     S
C235   C405    1.381   .     S
C236   O271    1.302   .     A
C236   O270    1.308   .     A
C237   C238    1.400   .     A
C237   H255    1.078   .     S
C238   C246    1.460   .     S
C238   C239    1.417   .     A
C239   Cl277   1.766   .     S
C240   H256    1.084   .     S
C240   C241    1.398   .     A
C240   C407    1.386   .     S
C242   H257    1.075   .     S
C242   N267    1.369   .     A
C242   C299    1.418   .     S
C243   N266    1.367   .     A
C243   H258    1.081   .     S
C244   N266    1.358   .     A
C244   H259    1.082   .     S
C245   Cl278   1.749   .     S
C245   N267    1.382   .     A
C245   C300    1.413   .     S
C246   O272    1.292   .     A
C246   O273    1.304   .     A
C247   O275    1.302   .     A
C247   C249    1.479   .     S
C247   O274    1.303   .     A
C248   C733    1.390   1_554 S
C248   H765    1.080   1_554 S
C250   C251    1.394   .     A
C250   H263    1.083   .     S
C251   C756    1.391   .     S
C251   H769    1.077   .     S
C252   H264    1.078   .     S
C252   C755    1.391   1_554 S
C252   C730    1.410   1_554 S
Cu253  N266    2.024   .     S
Cu253  O270    1.960   .     S
Cu253  Cu254   2.693   .     S
Cu253  O274    1.954   .     S
Cu253  O268    1.971   .     S
Cu253  O272    1.969   .     S
Cu254  O275    1.960   .     S
Cu254  O269    1.969   .     S
Cu254  O273    1.971   .     S
Cu254  N267    2.024   .     S
Cu254  O271    1.954   .     S
H261   C752    1.080   .     S
H265   C755    1.077   1_554 S
C281   O325    1.293   .     A
C281   O324    1.299   .     A
C281   C297    1.451   .     S
C282   C283    1.416   .     A
C282   C788    1.423   .     S
C282   C812    1.410   .     S
C283   C290    1.420   .     A
C283   C287    1.403   .     A
C284   C288    1.404   .     A
C284   C786    1.423   1_554 S
C284   C789    1.415   1_554 S
C285   C286    1.391   .     A
C285   C788    1.415   .     S
C285   C808    1.390   .     S
C286   C287    1.382   .     A
C286   H316    1.084   .     S
C287   F335    1.350   .     S
C288   C305    1.407   .     A
C288   H318    1.077   .     S
C289   C304    1.390   .     A
C289   C305    1.414   .     A
C289   Cl332   1.757   .     S
C290   C306    1.403   .     A
C290   C292    1.490   .     S
C291   C297    1.403   .     A
C291   F336    1.358   .     S
C291   C461    1.381   .     S
C292   O327    1.302   .     A
C292   O326    1.308   .     A
C293   C294    1.400   .     A
C293   H311    1.078   .     S
C294   C302    1.460   .     S
C294   C295    1.417   .     A
C295   Cl333   1.766   .     S
C296   H312    1.084   .     S
C296   C297    1.398   .     A
C296   C463    1.386   .     S
C298   H313    1.075   .     S
C298   N323    1.369   .     A
C298   C187    1.418   1_655 S
C299   N322    1.367   .     A
C299   H314    1.081   .     S
C300   N322    1.358   .     A
C300   H315    1.082   .     S
C301   Cl334   1.749   .     S
C301   N323    1.382   .     A
C301   C188    1.413   1_655 S
C302   O328    1.292   .     A
C302   O329    1.304   .     A
C303   O331    1.302   .     A
C303   C305    1.479   .     S
C303   O330    1.303   .     A
C304   C789    1.390   1_554 S
C304   H821    1.080   1_554 S
C306   C307    1.394   .     A
C306   H319    1.083   .     S
C307   C812    1.391   .     S
C307   H825    1.077   .     S
C308   H320    1.078   .     S
C308   C811    1.391   1_554 S
C308   C786    1.410   1_554 S
Cu309  N322    2.024   .     S
Cu309  O326    1.960   .     S
Cu309  Cu310   2.693   .     S
Cu309  O330    1.954   .     S
Cu309  O324    1.971   .     S
Cu309  O328    1.969   .     S
Cu310  O331    1.960   .     S
Cu310  O325    1.969   .     S
Cu310  O329    1.971   .     S
Cu310  N323    2.024   .     S
Cu310  O327    1.954   .     S
H317   C808    1.080   .     S
H321   C811    1.077   1_554 S
C337   O381    1.293   .     A
C337   O380    1.299   .     A
C337   C353    1.451   .     S
C338   C339    1.416   .     A
C338   C844    1.423   .     S
C338   C868    1.410   .     S
C339   C346    1.420   .     A
C339   C343    1.403   .     A
C340   C344    1.404   .     A
C340   C842    1.423   1_554 S
C340   C845    1.415   1_554 S
C341   C342    1.391   .     A
C341   C844    1.415   .     S
C341   C864    1.390   .     S
C342   C343    1.382   .     A
C342   H372    1.084   .     S
C343   F391    1.350   .     S
C344   C361    1.407   .     A
C344   H374    1.077   .     S
C345   C360    1.390   .     A
C345   C361    1.414   .     A
C345   Cl388   1.757   .     S
C346   C362    1.403   .     A
C346   C348    1.490   .     S
C347   C353    1.403   .     A
C347   F392    1.358   .     S
C347   C13     1.381   1_565 S
C348   O383    1.302   .     A
C348   O382    1.308   .     A
C349   C350    1.400   .     A
C349   H367    1.078   .     S
C350   C358    1.460   .     S
C350   C351    1.417   .     A
C351   Cl389   1.766   .     S
C352   H368    1.084   .     S
C352   C353    1.398   .     A
C352   C15     1.386   1_565 S
C354   H369    1.075   .     S
C354   N379    1.369   .     A
C354   C411    1.418   .     S
C355   N378    1.367   .     A
C355   H370    1.081   .     S
C355   C466    1.418   1_455 S
C356   N378    1.358   .     A
C356   H371    1.082   .     S
C356   C469    1.413   1_455 S
C357   Cl390   1.749   .     S
C357   N379    1.382   .     A
C357   C412    1.413   .     S
C358   O384    1.292   .     A
C358   O385    1.304   .     A
C359   O387    1.302   .     A
C359   C361    1.479   .     S
C359   O386    1.303   .     A
C360   C845    1.390   1_554 S
C360   H877    1.080   1_554 S
C362   C363    1.394   .     A
C362   H375    1.083   .     S
C363   C868    1.391   .     S
C363   H881    1.077   .     S
C364   H376    1.078   .     S
C364   C867    1.391   1_554 S
C364   C842    1.410   1_554 S
Cu365  N378    2.024   .     S
Cu365  O382    1.960   .     S
Cu365  Cu366   2.693   .     S
Cu365  O386    1.954   .     S
Cu365  O380    1.971   .     S
Cu365  O384    1.969   .     S
Cu366  O387    1.960   .     S
Cu366  O381    1.969   .     S
Cu366  O385    1.971   .     S
Cu366  N379    2.024   .     S
Cu366  O383    1.954   .     S
H373   C864    1.080   .     S
H377   C867    1.077   1_554 S
C393   O437    1.293   .     A
C393   O436    1.299   .     A
C393   C409    1.451   .     S
C394   C395    1.416   .     A
C394   C900    1.423   .     S
C394   C924    1.410   .     S
C395   C402    1.420   .     A
C395   C399    1.403   .     A
C396   C400    1.404   .     A
C396   C898    1.423   1_554 S
C396   C901    1.415   1_554 S
C397   C398    1.391   .     A
C397   C900    1.415   .     S
C397   C920    1.390   .     S
C398   C399    1.382   .     A
C398   H428    1.084   .     S
C399   F447    1.350   .     S
C400   C417    1.407   .     A
C400   H430    1.077   .     S
C401   C416    1.390   .     A
C401   C417    1.414   .     A
C401   Cl444   1.757   .     S
C402   C418    1.403   .     A
C402   C404    1.490   .     S
C403   C409    1.403   .     A
C403   F448    1.358   .     S
C403   C69     1.381   1_565 S
C404   O439    1.302   .     A
C404   O438    1.308   .     A
C405   C406    1.400   .     A
C405   H423    1.078   .     S
C406   C414    1.460   .     S
C406   C407    1.417   .     A
C407   Cl445   1.766   .     S
C408   H424    1.084   .     S
C408   C409    1.398   .     A
C408   C71     1.386   1_565 S
C410   H425    1.075   .     S
C410   N435    1.369   .     A
C410   C467    1.418   .     S
C411   N434    1.367   .     A
C411   H426    1.081   .     S
C412   N434    1.358   .     A
C412   H427    1.082   .     S
C413   Cl446   1.749   .     S
C413   N435    1.382   .     A
C413   C468    1.413   .     S
C414   O440    1.292   .     A
C414   O441    1.304   .     A
C415   O443    1.302   .     A
C415   C417    1.479   .     S
C415   O442    1.303   .     A
C416   C901    1.390   1_554 S
C416   H933    1.080   1_554 S
C418   C419    1.394   .     A
C418   H431    1.083   .     S
C419   C924    1.391   .     S
C419   H937    1.077   .     S
C420   H432    1.078   .     S
C420   C923    1.391   1_554 S
C420   C898    1.410   1_554 S
Cu421  N434    2.024   .     S
Cu421  O438    1.960   .     S
Cu421  Cu422   2.693   .     S
Cu421  O442    1.954   .     S
Cu421  O436    1.971   .     S
Cu421  O440    1.969   .     S
Cu422  O443    1.960   .     S
Cu422  O437    1.969   .     S
Cu422  O441    1.971   .     S
Cu422  N435    2.024   .     S
Cu422  O439    1.954   .     S
H429   C920    1.080   .     S
H433   C923    1.077   1_554 S
C449   O493    1.293   .     A
C449   O492    1.299   .     A
C449   C465    1.451   .     S
C450   C451    1.416   .     A
C450   C956    1.423   .     S
C450   C980    1.410   .     S
C451   C458    1.420   .     A
C451   C455    1.403   .     A
C452   C456    1.404   .     A
C452   C954    1.423   1_554 S
C452   C957    1.415   1_554 S
C453   C454    1.391   .     A
C453   C956    1.415   .     S
C453   C976    1.390   .     S
C454   C455    1.382   .     A
C454   H484    1.084   .     S
C455   F503    1.350   .     S
C456   C473    1.407   .     A
C456   H486    1.077   .     S
C457   C472    1.390   .     A
C457   C473    1.414   .     A
C457   Cl500   1.757   .     S
C458   C474    1.403   .     A
C458   C460    1.490   .     S
C459   C465    1.403   .     A
C459   F504    1.358   .     S
C459   C125    1.381   1_565 S
C460   O495    1.302   .     A
C460   O494    1.308   .     A
C461   C462    1.400   .     A
C461   H479    1.078   .     S
C462   C470    1.460   .     S
C462   C463    1.417   .     A
C463   Cl501   1.766   .     S
C464   H480    1.084   .     S
C464   C465    1.398   .     A
C464   C127    1.386   1_565 S
C466   H481    1.075   .     S
C466   N491    1.369   .     A
C466   C355    1.418   1_655 S
C467   N490    1.367   .     A
C467   H482    1.081   .     S
C468   N490    1.358   .     A
C468   H483    1.082   .     S
C469   Cl502   1.749   .     S
C469   N491    1.382   .     A
C469   C356    1.413   1_655 S
C470   O496    1.292   .     A
C470   O497    1.304   .     A
C471   O499    1.302   .     A
C471   C473    1.479   .     S
C471   O498    1.303   .     A
C472   C957    1.390   1_554 S
C472   H989    1.080   1_554 S
C474   C475    1.394   .     A
C474   H487    1.083   .     S
C475   C980    1.391   .     S
C475   H993    1.077   .     S
C476   H488    1.078   .     S
C476   C979    1.391   1_554 S
C476   C954    1.410   1_554 S
Cu477  N490    2.024   .     S
Cu477  O494    1.960   .     S
Cu477  Cu478   2.693   .     S
Cu477  O498    1.954   .     S
Cu477  O492    1.971   .     S
Cu477  O496    1.969   .     S
Cu478  O499    1.960   .     S
Cu478  O493    1.969   .     S
Cu478  O497    1.971   .     S
Cu478  N491    2.024   .     S
Cu478  O495    1.954   .     S
H485   C976    1.080   .     S
H489   C979    1.077   1_554 S
C505   O549    1.293   .     A
C505   O548    1.299   .     A
C505   C521    1.451   .     S
C506   C507    1.416   .     A
C506   C4      1.423   1_556 S
C506   C28     1.410   1_556 S
C507   C514    1.420   .     A
C507   C511    1.403   .     A
C508   C512    1.404   .     A
C509   C510    1.391   .     A
C509   C4      1.415   1_556 S
C509   C24     1.390   1_556 S
C510   C511    1.382   .     A
C510   H540    1.084   .     S
C511   F559    1.350   .     S
C512   C529    1.407   .     A
C512   H542    1.077   .     S
C513   C528    1.390   .     A
C513   C529    1.414   .     A
C513   Cl556   1.757   .     S
C514   C530    1.403   .     A
C514   C516    1.490   .     S
C515   C521    1.403   .     A
C515   F560    1.358   .     S
C515   C685    1.381   .     S
C516   O551    1.302   .     A
C516   O550    1.308   .     A
C517   C518    1.400   .     A
C517   H535    1.078   .     S
C517   C851    1.381   1_545 S
C518   C526    1.460   .     S
C518   C519    1.417   .     A
C519   Cl557   1.766   .     S
C519   C856    1.386   1_545 S
C520   H536    1.084   .     S
C520   C521    1.398   .     A
C520   C687    1.386   .     S
C522   H537    1.075   .     S
C522   N547    1.369   .     A
C522   C579    1.418   .     S
C523   N546    1.367   .     A
C523   H538    1.081   .     S
C523   C634    1.418   1_455 S
C524   N546    1.358   .     A
C524   H539    1.082   .     S
C524   C637    1.413   1_455 S
C525   Cl558   1.749   .     S
C525   N547    1.382   .     A
C525   C580    1.413   .     S
C526   O552    1.292   .     A
C526   O553    1.304   .     A
C527   O555    1.302   .     A
C527   C529    1.479   .     S
C527   O554    1.303   .     A
C530   C531    1.394   .     A
C530   H543    1.083   .     S
C531   C28     1.391   1_556 S
C531   H41     1.077   1_556 S
C532   H544    1.078   .     S
Cu533  N546    2.024   .     S
Cu533  O550    1.960   .     S
Cu533  Cu534   2.693   .     S
Cu533  O554    1.954   .     S
Cu533  O548    1.971   .     S
Cu533  O552    1.969   .     S
Cu534  O555    1.960   .     S
Cu534  O549    1.969   .     S
Cu534  O553    1.971   .     S
Cu534  N547    2.024   .     S
Cu534  O551    1.954   .     S
H541   C24     1.080   1_556 S
C561   O605    1.293   .     A
C561   O604    1.299   .     A
C561   C577    1.451   .     S
C562   C563    1.416   .     A
C562   C60     1.423   1_556 S
C562   C84     1.410   1_556 S
C563   C570    1.420   .     A
C563   C567    1.403   .     A
C564   C568    1.404   .     A
C565   C566    1.391   .     A
C565   C60     1.415   1_556 S
C565   C80     1.390   1_556 S
C566   C567    1.382   .     A
C566   H596    1.084   .     S
C567   F615    1.350   .     S
C568   C585    1.407   .     A
C568   H598    1.077   .     S
C569   C584    1.390   .     A
C569   C585    1.414   .     A
C569   Cl612   1.757   .     S
C570   C586    1.403   .     A
C570   C572    1.490   .     S
C571   C577    1.403   .     A
C571   F616    1.358   .     S
C571   C741    1.381   .     S
C572   O607    1.302   .     A
C572   O606    1.308   .     A
C573   C574    1.400   .     A
C573   H591    1.078   .     S
C573   C907    1.381   1_545 S
C574   C582    1.460   .     S
C574   C575    1.417   .     A
C575   Cl613   1.766   .     S
C575   C912    1.386   1_545 S
C576   H592    1.084   .     S
C576   C577    1.398   .     A
C576   C743    1.386   .     S
C578   H593    1.075   .     S
C578   N603    1.369   .     A
C578   C635    1.418   .     S
C579   N602    1.367   .     A
C579   H594    1.081   .     S
C580   N602    1.358   .     A
C580   H595    1.082   .     S
C581   Cl614   1.749   .     S
C581   N603    1.382   .     A
C581   C636    1.413   .     S
C582   O608    1.292   .     A
C582   O609    1.304   .     A
C583   O611    1.302   .     A
C583   C585    1.479   .     S
C583   O610    1.303   .     A
C586   C587    1.394   .     A
C586   H599    1.083   .     S
C587   C84     1.391   1_556 S
C587   H97     1.077   1_556 S
C588   H600    1.078   .     S
Cu589  N602    2.024   .     S
Cu589  O606    1.960   .     S
Cu589  Cu590   2.693   .     S
Cu589  O610    1.954   .     S
Cu589  O604    1.971   .     S
Cu589  O608    1.969   .     S
Cu590  O611    1.960   .     S
Cu590  O605    1.969   .     S
Cu590  O609    1.971   .     S
Cu590  N603    2.024   .     S
Cu590  O607    1.954   .     S
H597   C80     1.080   1_556 S
C617   O661    1.293   .     A
C617   O660    1.299   .     A
C617   C633    1.451   .     S
C618   C619    1.416   .     A
C618   C116    1.423   1_556 S
C618   C140    1.410   1_556 S
C619   C626    1.420   .     A
C619   C623    1.403   .     A
C620   C624    1.404   .     A
C621   C622    1.391   .     A
C621   C116    1.415   1_556 S
C621   C136    1.390   1_556 S
C622   C623    1.382   .     A
C622   H652    1.084   .     S
C623   F671    1.350   .     S
C624   C641    1.407   .     A
C624   H654    1.077   .     S
C625   C640    1.390   .     A
C625   C641    1.414   .     A
C625   Cl668   1.757   .     S
C626   C642    1.403   .     A
C626   C628    1.490   .     S
C627   C633    1.403   .     A
C627   F672    1.358   .     S
C627   C797    1.381   .     S
C628   O663    1.302   .     A
C628   O662    1.308   .     A
C629   C630    1.400   .     A
C629   H647    1.078   .     S
C629   C963    1.381   1_545 S
C630   C638    1.460   .     S
C630   C631    1.417   .     A
C631   Cl669   1.766   .     S
C631   C968    1.386   1_545 S
C632   H648    1.084   .     S
C632   C633    1.398   .     A
C632   C799    1.386   .     S
C634   H649    1.075   .     S
C634   N659    1.369   .     A
C634   C523    1.418   1_655 S
C635   N658    1.367   .     A
C635   H650    1.081   .     S
C636   N658    1.358   .     A
C636   H651    1.082   .     S
C637   Cl670   1.749   .     S
C637   N659    1.382   .     A
C637   C524    1.413   1_655 S
C638   O664    1.292   .     A
C638   O665    1.304   .     A
C639   O667    1.302   .     A
C639   C641    1.479   .     S
C639   O666    1.303   .     A
C642   C643    1.394   .     A
C642   H655    1.083   .     S
C643   C140    1.391   1_556 S
C643   H153    1.077   1_556 S
C644   H656    1.078   .     S
Cu645  N658    2.024   .     S
Cu645  O662    1.960   .     S
Cu645  Cu646   2.693   .     S
Cu645  O666    1.954   .     S
Cu645  O660    1.971   .     S
Cu645  O664    1.969   .     S
Cu646  O667    1.960   .     S
Cu646  O661    1.969   .     S
Cu646  O665    1.971   .     S
Cu646  N659    2.024   .     S
Cu646  O663    1.954   .     S
H653   C136    1.080   1_556 S
C673   O717    1.293   .     A
C673   O716    1.299   .     A
C673   C689    1.451   .     S
C674   C675    1.416   .     A
C674   C172    1.423   1_556 S
C674   C196    1.410   1_556 S
C675   C682    1.420   .     A
C675   C679    1.403   .     A
C676   C680    1.404   .     A
C677   C678    1.391   .     A
C677   C172    1.415   1_556 S
C677   C192    1.390   1_556 S
C678   C679    1.382   .     A
C678   H708    1.084   .     S
C679   F727    1.350   .     S
C680   C697    1.407   .     A
C680   H710    1.077   .     S
C681   C696    1.390   .     A
C681   C697    1.414   .     A
C681   Cl724   1.757   .     S
C682   C698    1.403   .     A
C682   C684    1.490   .     S
C683   C689    1.403   .     A
C683   F728    1.358   .     S
C683   C853    1.381   .     S
C684   O719    1.302   .     A
C684   O718    1.308   .     A
C685   C686    1.400   .     A
C685   H703    1.078   .     S
C686   C694    1.460   .     S
C686   C687    1.417   .     A
C687   Cl725   1.766   .     S
C688   H704    1.084   .     S
C688   C689    1.398   .     A
C688   C855    1.386   .     S
C690   H705    1.075   .     S
C690   N715    1.369   .     A
C690   C747    1.418   .     S
C691   N714    1.367   .     A
C691   H706    1.081   .     S
C691   C802    1.418   1_455 S
C692   N714    1.358   .     A
C692   H707    1.082   .     S
C692   C805    1.413   1_455 S
C693   Cl726   1.749   .     S
C693   N715    1.382   .     A
C693   C748    1.413   .     S
C694   O720    1.292   .     A
C694   O721    1.304   .     A
C695   O723    1.302   .     A
C695   C697    1.479   .     S
C695   O722    1.303   .     A
C698   C699    1.394   .     A
C698   H711    1.083   .     S
C699   C196    1.391   1_556 S
C699   H209    1.077   1_556 S
C700   H712    1.078   .     S
Cu701  N714    2.024   .     S
Cu701  O718    1.960   .     S
Cu701  Cu702   2.693   .     S
Cu701  O722    1.954   .     S
Cu701  O716    1.971   .     S
Cu701  O720    1.969   .     S
Cu702  O723    1.960   .     S
Cu702  O717    1.969   .     S
Cu702  O721    1.971   .     S
Cu702  N715    2.024   .     S
Cu702  O719    1.954   .     S
H709   C192    1.080   1_556 S
C729   O773    1.293   .     A
C729   O772    1.299   .     A
C729   C745    1.451   .     S
C730   C731    1.416   .     A
C730   C228    1.423   1_556 S
C730   C252    1.410   1_556 S
C731   C738    1.420   .     A
C731   C735    1.403   .     A
C732   C736    1.404   .     A
C733   C734    1.391   .     A
C733   C228    1.415   1_556 S
C733   C248    1.390   1_556 S
C734   C735    1.382   .     A
C734   H764    1.084   .     S
C735   F783    1.350   .     S
C736   C753    1.407   .     A
C736   H766    1.077   .     S
C737   C752    1.390   .     A
C737   C753    1.414   .     A
C737   Cl780   1.757   .     S
C738   C754    1.403   .     A
C738   C740    1.490   .     S
C739   C745    1.403   .     A
C739   F784    1.358   .     S
C739   C909    1.381   .     S
C740   O775    1.302   .     A
C740   O774    1.308   .     A
C741   C742    1.400   .     A
C741   H759    1.078   .     S
C742   C750    1.460   .     S
C742   C743    1.417   .     A
C743   Cl781   1.766   .     S
C744   H760    1.084   .     S
C744   C745    1.398   .     A
C744   C911    1.386   .     S
C746   H761    1.075   .     S
C746   N771    1.369   .     A
C746   C803    1.418   .     S
C747   N770    1.367   .     A
C747   H762    1.081   .     S
C748   N770    1.358   .     A
C748   H763    1.082   .     S
C749   Cl782   1.749   .     S
C749   N771    1.382   .     A
C749   C804    1.413   .     S
C750   O776    1.292   .     A
C750   O777    1.304   .     A
C751   O779    1.302   .     A
C751   C753    1.479   .     S
C751   O778    1.303   .     A
C754   C755    1.394   .     A
C754   H767    1.083   .     S
C755   C252    1.391   1_556 S
C755   H265    1.077   1_556 S
C756   H768    1.078   .     S
Cu757  N770    2.024   .     S
Cu757  O774    1.960   .     S
Cu757  Cu758   2.693   .     S
Cu757  O778    1.954   .     S
Cu757  O772    1.971   .     S
Cu757  O776    1.969   .     S
Cu758  O779    1.960   .     S
Cu758  O773    1.969   .     S
Cu758  O777    1.971   .     S
Cu758  N771    2.024   .     S
Cu758  O775    1.954   .     S
H765   C248    1.080   1_556 S
C785   O829    1.293   .     A
C785   O828    1.299   .     A
C785   C801    1.451   .     S
C786   C787    1.416   .     A
C786   C284    1.423   1_556 S
C786   C308    1.410   1_556 S
C787   C794    1.420   .     A
C787   C791    1.403   .     A
C788   C792    1.404   .     A
C789   C790    1.391   .     A
C789   C284    1.415   1_556 S
C789   C304    1.390   1_556 S
C790   C791    1.382   .     A
C790   H820    1.084   .     S
C791   F839    1.350   .     S
C792   C809    1.407   .     A
C792   H822    1.077   .     S
C793   C808    1.390   .     A
C793   C809    1.414   .     A
C793   Cl836   1.757   .     S
C794   C810    1.403   .     A
C794   C796    1.490   .     S
C795   C801    1.403   .     A
C795   F840    1.358   .     S
C795   C965    1.381   .     S
C796   O831    1.302   .     A
C796   O830    1.308   .     A
C797   C798    1.400   .     A
C797   H815    1.078   .     S
C798   C806    1.460   .     S
C798   C799    1.417   .     A
C799   Cl837   1.766   .     S
C800   H816    1.084   .     S
C800   C801    1.398   .     A
C800   C967    1.386   .     S
C802   H817    1.075   .     S
C802   N827    1.369   .     A
C802   C691    1.418   1_655 S
C803   N826    1.367   .     A
C803   H818    1.081   .     S
C804   N826    1.358   .     A
C804   H819    1.082   .     S
C805   Cl838   1.749   .     S
C805   N827    1.382   .     A
C805   C692    1.413   1_655 S
C806   O832    1.292   .     A
C806   O833    1.304   .     A
C807   O835    1.302   .     A
C807   C809    1.479   .     S
C807   O834    1.303   .     A
C810   C811    1.394   .     A
C810   H823    1.083   .     S
C811   C308    1.391   1_556 S
C811   H321    1.077   1_556 S
C812   H824    1.078   .     S
Cu813  N826    2.024   .     S
Cu813  O830    1.960   .     S
Cu813  Cu814   2.693   .     S
Cu813  O834    1.954   .     S
Cu813  O828    1.971   .     S
Cu813  O832    1.969   .     S
Cu814  O835    1.960   .     S
Cu814  O829    1.969   .     S
Cu814  O833    1.971   .     S
Cu814  N827    2.024   .     S
Cu814  O831    1.954   .     S
H821   C304    1.080   1_556 S
C841   O885    1.293   .     A
C841   O884    1.299   .     A
C841   C857    1.451   .     S
C842   C843    1.416   .     A
C842   C340    1.423   1_556 S
C842   C364    1.410   1_556 S
C843   C850    1.420   .     A
C843   C847    1.403   .     A
C844   C848    1.404   .     A
C845   C846    1.391   .     A
C845   C340    1.415   1_556 S
C845   C360    1.390   1_556 S
C846   C847    1.382   .     A
C846   H876    1.084   .     S
C847   F895    1.350   .     S
C848   C865    1.407   .     A
C848   H878    1.077   .     S
C849   C864    1.390   .     A
C849   C865    1.414   .     A
C849   Cl892   1.757   .     S
C850   C866    1.403   .     A
C850   C852    1.490   .     S
C851   C857    1.403   .     A
C851   F896    1.358   .     S
C851   C517    1.381   1_565 S
C852   O887    1.302   .     A
C852   O886    1.308   .     A
C853   C854    1.400   .     A
C853   H871    1.078   .     S
C854   C862    1.460   .     S
C854   C855    1.417   .     A
C855   Cl893   1.766   .     S
C856   H872    1.084   .     S
C856   C857    1.398   .     A
C856   C519    1.386   1_565 S
C858   H873    1.075   .     S
C858   N883    1.369   .     A
C858   C915    1.418   .     S
C859   N882    1.367   .     A
C859   H874    1.081   .     S
C859   C970    1.418   1_455 S
C860   N882    1.358   .     A
C860   H875    1.082   .     S
C860   C973    1.413   1_455 S
C861   Cl894   1.749   .     S
C861   N883    1.382   .     A
C861   C916    1.413   .     S
C862   O888    1.292   .     A
C862   O889    1.304   .     A
C863   O891    1.302   .     A
C863   C865    1.479   .     S
C863   O890    1.303   .     A
C866   C867    1.394   .     A
C866   H879    1.083   .     S
C867   C364    1.391   1_556 S
C867   H377    1.077   1_556 S
C868   H880    1.078   .     S
Cu869  N882    2.024   .     S
Cu869  O886    1.960   .     S
Cu869  Cu870   2.693   .     S
Cu869  O890    1.954   .     S
Cu869  O884    1.971   .     S
Cu869  O888    1.969   .     S
Cu870  O891    1.960   .     S
Cu870  O885    1.969   .     S
Cu870  O889    1.971   .     S
Cu870  N883    2.024   .     S
Cu870  O887    1.954   .     S
H877   C360    1.080   1_556 S
C897   O941    1.293   .     A
C897   O940    1.299   .     A
C897   C913    1.451   .     S
C898   C899    1.416   .     A
C898   C396    1.423   1_556 S
C898   C420    1.410   1_556 S
C899   C906    1.420   .     A
C899   C903    1.403   .     A
C900   C904    1.404   .     A
C901   C902    1.391   .     A
C901   C396    1.415   1_556 S
C901   C416    1.390   1_556 S
C902   C903    1.382   .     A
C902   H932    1.084   .     S
C903   F951    1.350   .     S
C904   C921    1.407   .     A
C904   H934    1.077   .     S
C905   C920    1.390   .     A
C905   C921    1.414   .     A
C905   Cl948   1.757   .     S
C906   C922    1.403   .     A
C906   C908    1.490   .     S
C907   C913    1.403   .     A
C907   F952    1.358   .     S
C907   C573    1.381   1_565 S
C908   O943    1.302   .     A
C908   O942    1.308   .     A
C909   C910    1.400   .     A
C909   H927    1.078   .     S
C910   C918    1.460   .     S
C910   C911    1.417   .     A
C911   Cl949   1.766   .     S
C912   H928    1.084   .     S
C912   C913    1.398   .     A
C912   C575    1.386   1_565 S
C914   H929    1.075   .     S
C914   N939    1.369   .     A
C914   C971    1.418   .     S
C915   N938    1.367   .     A
C915   H930    1.081   .     S
C916   N938    1.358   .     A
C916   H931    1.082   .     S
C917   Cl950   1.749   .     S
C917   N939    1.382   .     A
C917   C972    1.413   .     S
C918   O944    1.292   .     A
C918   O945    1.304   .     A
C919   O947    1.302   .     A
C919   C921    1.479   .     S
C919   O946    1.303   .     A
C922   C923    1.394   .     A
C922   H935    1.083   .     S
C923   C420    1.391   1_556 S
C923   H433    1.077   1_556 S
C924   H936    1.078   .     S
Cu925  N938    2.024   .     S
Cu925  O942    1.960   .     S
Cu925  Cu926   2.693   .     S
Cu925  O946    1.954   .     S
Cu925  O940    1.971   .     S
Cu925  O944    1.969   .     S
Cu926  O947    1.960   .     S
Cu926  O941    1.969   .     S
Cu926  O945    1.971   .     S
Cu926  N939    2.024   .     S
Cu926  O943    1.954   .     S
H933   C416    1.080   1_556 S
C953   O997    1.293   .     A
C953   O996    1.299   .     A
C953   C969    1.451   .     S
C954   C955    1.416   .     A
C954   C452    1.423   1_556 S
C954   C476    1.410   1_556 S
C955   C962    1.420   .     A
C955   C959    1.403   .     A
C956   C960    1.404   .     A
C957   C958    1.391   .     A
C957   C452    1.415   1_556 S
C957   C472    1.390   1_556 S
C958   C959    1.382   .     A
C958   H988    1.084   .     S
C959   F1007   1.350   .     S
C960   C977    1.407   .     A
C960   H990    1.077   .     S
C961   C976    1.390   .     A
C961   C977    1.414   .     A
C961   Cl1004  1.757   .     S
C962   C978    1.403   .     A
C962   C964    1.490   .     S
C963   C969    1.403   .     A
C963   F1008   1.358   .     S
C963   C629    1.381   1_565 S
C964   O999    1.302   .     A
C964   O998    1.308   .     A
C965   C966    1.400   .     A
C965   H983    1.078   .     S
C966   C974    1.460   .     S
C966   C967    1.417   .     A
C967   Cl1005  1.766   .     S
C968   H984    1.084   .     S
C968   C969    1.398   .     A
C968   C631    1.386   1_565 S
C970   H985    1.075   .     S
C970   N995    1.369   .     A
C970   C859    1.418   1_655 S
C971   N994    1.367   .     A
C971   H986    1.081   .     S
C972   N994    1.358   .     A
C972   H987    1.082   .     S
C973   Cl1006  1.749   .     S
C973   N995    1.382   .     A
C973   C860    1.413   1_655 S
C974   O1000   1.292   .     A
C974   O1001   1.304   .     A
C975   O1003   1.302   .     A
C975   C977    1.479   .     S
C975   O1002   1.303   .     A
C978   C979    1.394   .     A
C978   H991    1.083   .     S
C979   C476    1.391   1_556 S
C979   H489    1.077   1_556 S
C980   H992    1.078   .     S
Cu981  N994    2.024   .     S
Cu981  O998    1.960   .     S
Cu981  Cu982   2.693   .     S
Cu981  O1002   1.954   .     S
Cu981  O996    1.971   .     S
Cu981  O1000   1.969   .     S
Cu982  O1003   1.960   .     S
Cu982  O997    1.969   .     S
Cu982  O1001   1.971   .     S
Cu982  N995    2.024   .     S
Cu982  O999    1.954   .     S
H989   C472    1.080   1_556 S
