data_str_m2_o1_o2_pcu_sym.116
_audit_creation_date              2020-01-03
_audit_creation_method            'Materials Studio'
_symmetry_space_group_name_H-M    'P1'
_symmetry_Int_Tables_number       1
_symmetry_cell_setting            triclinic
loop_
_symmetry_equiv_pos_as_xyz
  x,y,z
_cell_length_a                    32.2979
_cell_length_b                    28.5286
_cell_length_c                    30.4107
_cell_angle_alpha                 90.0029
_cell_angle_beta                  90.2220
_cell_angle_gamma                 89.9923
loop_
_atom_site_label
_atom_site_type_symbol
_atom_site_fract_x
_atom_site_fract_y
_atom_site_fract_z
_atom_site_U_iso_or_equiv
_atom_site_adp_type
_atom_site_occupancy
C1     C     0.08746   0.16667   0.25003   0.00000  Uiso   1.00
C2     C     0.24587   0.16666   0.24997   0.00000  Uiso   1.00
C3     C     0.16660   0.16662   0.16483   0.00000  Uiso   1.00
C4     C     0.16662   0.16663   0.33517   0.00000  Uiso   1.00
C5     C     0.13618   0.02482   0.22883   0.00000  Uiso   1.00
C6     C     0.19730   0.30855   0.27091   0.00000  Uiso   1.00
C7     C     0.19715   0.02481   0.27117   0.00000  Uiso   1.00
C8     C     0.13603   0.30856   0.22910   0.00000  Uiso   1.00
C9     C     0.02149   0.16557   0.20977   0.00000  Uiso   1.00
C10    C     0.31187   0.16695   0.29024   0.00000  Uiso   1.00
C11    C     0.31162   0.16642   0.20974   0.00000  Uiso   1.00
C12    C     0.02174   0.16782   0.29025   0.00000  Uiso   1.00
C13    C     0.15044   0.20419   0.04669   0.00000  Uiso   1.00
C14    C     0.15073   0.12740   0.45279   0.00000  Uiso   1.00
C15    C     0.18203   0.20429   0.45341   0.00000  Uiso   1.00
C16    C     0.18179   0.12731   0.04710   0.00000  Uiso   1.00
C17    C     0.15021   0.20492   0.09236   0.00000  Uiso   1.00
C18    C     0.15037   0.12732   0.40707   0.00000  Uiso   1.00
C19    C     0.18244   0.20506   0.40774   0.00000  Uiso   1.00
C20    C     0.18232   0.12720   0.09283   0.00000  Uiso   1.00
C21    C     0.16645   0.16631   0.11635   0.00000  Uiso   1.00
C22    C     0.16644   0.16639   0.38365   0.00000  Uiso   1.00
C23    C     0.16611   0.16566   0.02402   0.00000  Uiso   1.00
C24    C     0.16634   0.16571   0.47597   0.00000  Uiso   1.00
C25    C     0.29047   0.16667   0.24998   0.00000  Uiso   1.00
C26    C     0.04287   0.16668   0.25002   0.00000  Uiso   1.00
Cu27   Cu    0.16667   0.21355   0.25000   0.00000  Uiso   1.00
Cu28   Cu    0.16667   0.11978   0.25000   0.00000  Uiso   1.00
H29    H     0.11184   0.04348   0.21171   0.00000  Uiso   1.00
H30    H     0.22195   0.28993   0.28751   0.00000  Uiso   1.00
H31    H     0.22149   0.04346   0.28830   0.00000  Uiso   1.00
H32    H     0.11137   0.28995   0.21252   0.00000  Uiso   1.00
H33    H     0.13765   0.23364   0.02866   0.00000  Uiso   1.00
H34    H     0.13801   0.09772   0.47041   0.00000  Uiso   1.00
H35    H     0.19469   0.23375   0.47151   0.00000  Uiso   1.00
H36    H     0.19442   0.09764   0.02940   0.00000  Uiso   1.00
N37    N     0.16667   0.28402   0.25000   0.00000  Uiso   1.00
N38    N     0.16667   0.04931   0.25000   0.00000  Uiso   1.00
O39    O     0.10655   0.20625   0.24999   0.00000  Uiso   1.00
O40    O     0.22679   0.12709   0.25000   0.00000  Uiso   1.00
O41    O     0.22679   0.20625   0.25000   0.00000  Uiso   1.00
O42    O     0.10655   0.12709   0.24999   0.00000  Uiso   1.00
O43    O     0.16666   0.20626   0.18573   0.00000  Uiso   1.00
O44    O     0.16667   0.12707   0.31427   0.00000  Uiso   1.00
O45    O     0.16667   0.20626   0.31427   0.00000  Uiso   1.00
O46    O     0.16666   0.12707   0.18573   0.00000  Uiso   1.00
Br47   Br    0.12517   0.25942   0.11835   0.00000  Uiso   1.00
Br48   Br    0.12546   0.07303   0.38009   0.00000  Uiso   1.00
Br49   Br    0.20726   0.25979   0.38194   0.00000  Uiso   1.00
Br50   Br    0.20704   0.07268   0.11961   0.00000  Uiso   1.00
Br51   Br    0.05138   0.16262   0.15504   0.00000  Uiso   1.00
Br52   Br    0.28200   0.16567   0.34503   0.00000  Uiso   1.00
Br53   Br    0.28144   0.16778   0.15491   0.00000  Uiso   1.00
Br54   Br    0.05194   0.17089   0.34502   0.00000  Uiso   1.00
C55    C     0.42080   0.16667   0.25003   0.00000  Uiso   1.00
C56    C     0.57921   0.16666   0.24997   0.00000  Uiso   1.00
C57    C     0.49993   0.16662   0.16483   0.00000  Uiso   1.00
C58    C     0.49995   0.16663   0.33517   0.00000  Uiso   1.00
C59    C     0.46952   0.02482   0.22883   0.00000  Uiso   1.00
C60    C     0.53063   0.30855   0.27091   0.00000  Uiso   1.00
C61    C     0.53048   0.02481   0.27117   0.00000  Uiso   1.00
C62    C     0.46937   0.30856   0.22910   0.00000  Uiso   1.00
C63    C     0.35482   0.16557   0.20977   0.00000  Uiso   1.00
C64    C     0.64520   0.16695   0.29024   0.00000  Uiso   1.00
C65    C     0.64495   0.16642   0.20974   0.00000  Uiso   1.00
C66    C     0.35507   0.16782   0.29025   0.00000  Uiso   1.00
C67    C     0.48377   0.20419   0.04669   0.00000  Uiso   1.00
C68    C     0.48406   0.12740   0.45279   0.00000  Uiso   1.00
C69    C     0.51536   0.20429   0.45341   0.00000  Uiso   1.00
C70    C     0.51512   0.12731   0.04710   0.00000  Uiso   1.00
C71    C     0.48355   0.20492   0.09236   0.00000  Uiso   1.00
C72    C     0.48370   0.12732   0.40707   0.00000  Uiso   1.00
C73    C     0.51577   0.20506   0.40774   0.00000  Uiso   1.00
C74    C     0.51566   0.12720   0.09283   0.00000  Uiso   1.00
C75    C     0.49978   0.16631   0.11635   0.00000  Uiso   1.00
C76    C     0.49977   0.16639   0.38365   0.00000  Uiso   1.00
C77    C     0.49945   0.16566   0.02402   0.00000  Uiso   1.00
C78    C     0.49967   0.16571   0.47597   0.00000  Uiso   1.00
C79    C     0.62381   0.16667   0.24998   0.00000  Uiso   1.00
C80    C     0.37621   0.16668   0.25002   0.00000  Uiso   1.00
Cu81   Cu    0.50000   0.21355   0.25000   0.00000  Uiso   1.00
Cu82   Cu    0.50000   0.11978   0.25000   0.00000  Uiso   1.00
H83    H     0.44517   0.04348   0.21171   0.00000  Uiso   1.00
H84    H     0.55528   0.28993   0.28751   0.00000  Uiso   1.00
H85    H     0.55483   0.04346   0.28830   0.00000  Uiso   1.00
H86    H     0.44470   0.28995   0.21252   0.00000  Uiso   1.00
H87    H     0.47099   0.23364   0.02866   0.00000  Uiso   1.00
H88    H     0.47134   0.09772   0.47041   0.00000  Uiso   1.00
H89    H     0.52802   0.23375   0.47151   0.00000  Uiso   1.00
H90    H     0.52776   0.09764   0.02940   0.00000  Uiso   1.00
N91    N     0.50000   0.28402   0.25000   0.00000  Uiso   1.00
N92    N     0.50000   0.04931   0.25000   0.00000  Uiso   1.00
O93    O     0.43988   0.20625   0.24999   0.00000  Uiso   1.00
O94    O     0.56012   0.12709   0.25000   0.00000  Uiso   1.00
O95    O     0.56012   0.20625   0.25000   0.00000  Uiso   1.00
O96    O     0.43988   0.12709   0.24999   0.00000  Uiso   1.00
O97    O     0.50000   0.20626   0.18573   0.00000  Uiso   1.00
O98    O     0.50000   0.12707   0.31427   0.00000  Uiso   1.00
O99    O     0.50000   0.20626   0.31427   0.00000  Uiso   1.00
O100   O     0.50000   0.12707   0.18573   0.00000  Uiso   1.00
Br101  Br    0.45850   0.25942   0.11835   0.00000  Uiso   1.00
Br102  Br    0.45880   0.07303   0.38009   0.00000  Uiso   1.00
Br103  Br    0.54059   0.25979   0.38194   0.00000  Uiso   1.00
Br104  Br    0.54037   0.07268   0.11961   0.00000  Uiso   1.00
Br105  Br    0.38471   0.16262   0.15504   0.00000  Uiso   1.00
Br106  Br    0.61533   0.16567   0.34503   0.00000  Uiso   1.00
Br107  Br    0.61477   0.16778   0.15491   0.00000  Uiso   1.00
Br108  Br    0.38527   0.17089   0.34502   0.00000  Uiso   1.00
C109   C     0.75413   0.16667   0.25003   0.00000  Uiso   1.00
C110   C     0.91254   0.16666   0.24997   0.00000  Uiso   1.00
C111   C     0.83327   0.16662   0.16483   0.00000  Uiso   1.00
C112   C     0.83329   0.16663   0.33517   0.00000  Uiso   1.00
C113   C     0.80285   0.02482   0.22883   0.00000  Uiso   1.00
C114   C     0.86396   0.30855   0.27091   0.00000  Uiso   1.00
C115   C     0.86382   0.02481   0.27117   0.00000  Uiso   1.00
C116   C     0.80270   0.30856   0.22910   0.00000  Uiso   1.00
C117   C     0.68816   0.16557   0.20977   0.00000  Uiso   1.00
C118   C     0.97853   0.16695   0.29024   0.00000  Uiso   1.00
C119   C     0.97828   0.16642   0.20974   0.00000  Uiso   1.00
C120   C     0.68841   0.16782   0.29025   0.00000  Uiso   1.00
C121   C     0.81710   0.20419   0.04669   0.00000  Uiso   1.00
C122   C     0.81739   0.12740   0.45279   0.00000  Uiso   1.00
C123   C     0.84870   0.20429   0.45341   0.00000  Uiso   1.00
C124   C     0.84846   0.12731   0.04710   0.00000  Uiso   1.00
C125   C     0.81688   0.20492   0.09236   0.00000  Uiso   1.00
C126   C     0.81704   0.12732   0.40707   0.00000  Uiso   1.00
C127   C     0.84911   0.20506   0.40774   0.00000  Uiso   1.00
C128   C     0.84899   0.12720   0.09283   0.00000  Uiso   1.00
C129   C     0.83312   0.16631   0.11635   0.00000  Uiso   1.00
C130   C     0.83311   0.16639   0.38365   0.00000  Uiso   1.00
C131   C     0.83278   0.16566   0.02402   0.00000  Uiso   1.00
C132   C     0.83300   0.16571   0.47597   0.00000  Uiso   1.00
C133   C     0.95714   0.16667   0.24998   0.00000  Uiso   1.00
C134   C     0.70954   0.16668   0.25002   0.00000  Uiso   1.00
Cu135  Cu    0.83333   0.21355   0.25000   0.00000  Uiso   1.00
Cu136  Cu    0.83333   0.11978   0.25000   0.00000  Uiso   1.00
H137   H     0.77850   0.04348   0.21171   0.00000  Uiso   1.00
H138   H     0.88861   0.28993   0.28751   0.00000  Uiso   1.00
H139   H     0.88816   0.04346   0.28830   0.00000  Uiso   1.00
H140   H     0.77803   0.28995   0.21252   0.00000  Uiso   1.00
H141   H     0.80432   0.23364   0.02866   0.00000  Uiso   1.00
H142   H     0.80468   0.09772   0.47041   0.00000  Uiso   1.00
H143   H     0.86135   0.23375   0.47151   0.00000  Uiso   1.00
H144   H     0.86109   0.09764   0.02940   0.00000  Uiso   1.00
N145   N     0.83333   0.28402   0.25000   0.00000  Uiso   1.00
N146   N     0.83333   0.04931   0.25000   0.00000  Uiso   1.00
O147   O     0.77321   0.20625   0.24999   0.00000  Uiso   1.00
O148   O     0.89345   0.12709   0.25000   0.00000  Uiso   1.00
O149   O     0.89345   0.20625   0.25000   0.00000  Uiso   1.00
O150   O     0.77321   0.12709   0.24999   0.00000  Uiso   1.00
O151   O     0.83333   0.20626   0.18573   0.00000  Uiso   1.00
O152   O     0.83334   0.12707   0.31427   0.00000  Uiso   1.00
O153   O     0.83334   0.20626   0.31427   0.00000  Uiso   1.00
O154   O     0.83333   0.12707   0.18573   0.00000  Uiso   1.00
Br155  Br    0.79183   0.25942   0.11835   0.00000  Uiso   1.00
Br156  Br    0.79213   0.07303   0.38009   0.00000  Uiso   1.00
Br157  Br    0.87392   0.25979   0.38194   0.00000  Uiso   1.00
Br158  Br    0.87371   0.07268   0.11961   0.00000  Uiso   1.00
Br159  Br    0.71805   0.16262   0.15504   0.00000  Uiso   1.00
Br160  Br    0.94867   0.16567   0.34503   0.00000  Uiso   1.00
Br161  Br    0.94810   0.16778   0.15491   0.00000  Uiso   1.00
Br162  Br    0.71861   0.17089   0.34502   0.00000  Uiso   1.00
C163   C     0.08746   0.50000   0.25003   0.00000  Uiso   1.00
C164   C     0.24587   0.50000   0.24997   0.00000  Uiso   1.00
C165   C     0.16660   0.49995   0.16483   0.00000  Uiso   1.00
C166   C     0.16662   0.49996   0.33517   0.00000  Uiso   1.00
C167   C     0.13618   0.35815   0.22883   0.00000  Uiso   1.00
C168   C     0.19730   0.64188   0.27091   0.00000  Uiso   1.00
C169   C     0.19715   0.35814   0.27117   0.00000  Uiso   1.00
C170   C     0.13603   0.64189   0.22910   0.00000  Uiso   1.00
C171   C     0.02149   0.49891   0.20977   0.00000  Uiso   1.00
C172   C     0.31187   0.50029   0.29024   0.00000  Uiso   1.00
C173   C     0.31162   0.49975   0.20974   0.00000  Uiso   1.00
C174   C     0.02174   0.50115   0.29025   0.00000  Uiso   1.00
C175   C     0.15044   0.53753   0.04669   0.00000  Uiso   1.00
C176   C     0.15073   0.46073   0.45279   0.00000  Uiso   1.00
C177   C     0.18203   0.53763   0.45341   0.00000  Uiso   1.00
C178   C     0.18179   0.46065   0.04710   0.00000  Uiso   1.00
C179   C     0.15021   0.53826   0.09236   0.00000  Uiso   1.00
C180   C     0.15037   0.46066   0.40707   0.00000  Uiso   1.00
C181   C     0.18244   0.53839   0.40774   0.00000  Uiso   1.00
C182   C     0.18232   0.46053   0.09283   0.00000  Uiso   1.00
C183   C     0.16645   0.49965   0.11635   0.00000  Uiso   1.00
C184   C     0.16644   0.49972   0.38365   0.00000  Uiso   1.00
C185   C     0.16611   0.49899   0.02402   0.00000  Uiso   1.00
C186   C     0.16634   0.49905   0.47597   0.00000  Uiso   1.00
C187   C     0.29047   0.50000   0.24998   0.00000  Uiso   1.00
C188   C     0.04287   0.50001   0.25002   0.00000  Uiso   1.00
Cu189  Cu    0.16667   0.54689   0.25000   0.00000  Uiso   1.00
Cu190  Cu    0.16667   0.45311   0.25000   0.00000  Uiso   1.00
H191   H     0.11184   0.37681   0.21171   0.00000  Uiso   1.00
H192   H     0.22195   0.62326   0.28751   0.00000  Uiso   1.00
H193   H     0.22149   0.37680   0.28830   0.00000  Uiso   1.00
H194   H     0.11137   0.62328   0.21252   0.00000  Uiso   1.00
H195   H     0.13765   0.56697   0.02866   0.00000  Uiso   1.00
H196   H     0.13801   0.43106   0.47041   0.00000  Uiso   1.00
H197   H     0.19469   0.56709   0.47151   0.00000  Uiso   1.00
H198   H     0.19442   0.43097   0.02940   0.00000  Uiso   1.00
N199   N     0.16667   0.61736   0.25000   0.00000  Uiso   1.00
N200   N     0.16667   0.38264   0.25000   0.00000  Uiso   1.00
O201   O     0.10655   0.53958   0.24999   0.00000  Uiso   1.00
O202   O     0.22679   0.46042   0.25000   0.00000  Uiso   1.00
O203   O     0.22679   0.53958   0.25000   0.00000  Uiso   1.00
O204   O     0.10655   0.46042   0.24999   0.00000  Uiso   1.00
O205   O     0.16666   0.53959   0.18573   0.00000  Uiso   1.00
O206   O     0.16667   0.46041   0.31427   0.00000  Uiso   1.00
O207   O     0.16667   0.53959   0.31427   0.00000  Uiso   1.00
O208   O     0.16666   0.46041   0.18573   0.00000  Uiso   1.00
Br209  Br    0.12517   0.59275   0.11835   0.00000  Uiso   1.00
Br210  Br    0.12546   0.40637   0.38009   0.00000  Uiso   1.00
Br211  Br    0.20726   0.59313   0.38194   0.00000  Uiso   1.00
Br212  Br    0.20704   0.40601   0.11961   0.00000  Uiso   1.00
Br213  Br    0.05138   0.49595   0.15504   0.00000  Uiso   1.00
Br214  Br    0.28200   0.49900   0.34503   0.00000  Uiso   1.00
Br215  Br    0.28144   0.50111   0.15491   0.00000  Uiso   1.00
Br216  Br    0.05194   0.50423   0.34502   0.00000  Uiso   1.00
C217   C     0.42080   0.50000   0.25003   0.00000  Uiso   1.00
C218   C     0.57921   0.50000   0.24997   0.00000  Uiso   1.00
C219   C     0.49993   0.49995   0.16483   0.00000  Uiso   1.00
C220   C     0.49995   0.49996   0.33517   0.00000  Uiso   1.00
C221   C     0.46952   0.35815   0.22883   0.00000  Uiso   1.00
C222   C     0.53063   0.64188   0.27091   0.00000  Uiso   1.00
C223   C     0.53048   0.35814   0.27117   0.00000  Uiso   1.00
C224   C     0.46937   0.64189   0.22910   0.00000  Uiso   1.00
C225   C     0.35482   0.49891   0.20977   0.00000  Uiso   1.00
C226   C     0.64520   0.50029   0.29024   0.00000  Uiso   1.00
C227   C     0.64495   0.49975   0.20974   0.00000  Uiso   1.00
C228   C     0.35507   0.50115   0.29025   0.00000  Uiso   1.00
C229   C     0.48377   0.53753   0.04669   0.00000  Uiso   1.00
C230   C     0.48406   0.46073   0.45279   0.00000  Uiso   1.00
C231   C     0.51536   0.53763   0.45341   0.00000  Uiso   1.00
C232   C     0.51512   0.46065   0.04710   0.00000  Uiso   1.00
C233   C     0.48355   0.53826   0.09236   0.00000  Uiso   1.00
C234   C     0.48370   0.46066   0.40707   0.00000  Uiso   1.00
C235   C     0.51577   0.53839   0.40774   0.00000  Uiso   1.00
C236   C     0.51566   0.46053   0.09283   0.00000  Uiso   1.00
C237   C     0.49978   0.49965   0.11635   0.00000  Uiso   1.00
C238   C     0.49977   0.49972   0.38365   0.00000  Uiso   1.00
C239   C     0.49945   0.49899   0.02402   0.00000  Uiso   1.00
C240   C     0.49967   0.49905   0.47597   0.00000  Uiso   1.00
C241   C     0.62381   0.50000   0.24998   0.00000  Uiso   1.00
C242   C     0.37621   0.50001   0.25002   0.00000  Uiso   1.00
Cu243  Cu    0.50000   0.54689   0.25000   0.00000  Uiso   1.00
Cu244  Cu    0.50000   0.45311   0.25000   0.00000  Uiso   1.00
H245   H     0.44517   0.37681   0.21171   0.00000  Uiso   1.00
H246   H     0.55528   0.62326   0.28751   0.00000  Uiso   1.00
H247   H     0.55483   0.37680   0.28830   0.00000  Uiso   1.00
H248   H     0.44470   0.62328   0.21252   0.00000  Uiso   1.00
H249   H     0.47099   0.56697   0.02866   0.00000  Uiso   1.00
H250   H     0.47134   0.43106   0.47041   0.00000  Uiso   1.00
H251   H     0.52802   0.56709   0.47151   0.00000  Uiso   1.00
H252   H     0.52776   0.43097   0.02940   0.00000  Uiso   1.00
N253   N     0.50000   0.61736   0.25000   0.00000  Uiso   1.00
N254   N     0.50000   0.38264   0.25000   0.00000  Uiso   1.00
O255   O     0.43988   0.53958   0.24999   0.00000  Uiso   1.00
O256   O     0.56012   0.46042   0.25000   0.00000  Uiso   1.00
O257   O     0.56012   0.53958   0.25000   0.00000  Uiso   1.00
O258   O     0.43988   0.46042   0.24999   0.00000  Uiso   1.00
O259   O     0.50000   0.53959   0.18573   0.00000  Uiso   1.00
O260   O     0.50000   0.46041   0.31427   0.00000  Uiso   1.00
O261   O     0.50000   0.53959   0.31427   0.00000  Uiso   1.00
O262   O     0.50000   0.46041   0.18573   0.00000  Uiso   1.00
Br263  Br    0.45850   0.59275   0.11835   0.00000  Uiso   1.00
Br264  Br    0.45880   0.40637   0.38009   0.00000  Uiso   1.00
Br265  Br    0.54059   0.59313   0.38194   0.00000  Uiso   1.00
Br266  Br    0.54037   0.40601   0.11961   0.00000  Uiso   1.00
Br267  Br    0.38471   0.49595   0.15504   0.00000  Uiso   1.00
Br268  Br    0.61533   0.49900   0.34503   0.00000  Uiso   1.00
Br269  Br    0.61477   0.50111   0.15491   0.00000  Uiso   1.00
Br270  Br    0.38527   0.50423   0.34502   0.00000  Uiso   1.00
C271   C     0.75413   0.50000   0.25003   0.00000  Uiso   1.00
C272   C     0.91254   0.50000   0.24997   0.00000  Uiso   1.00
C273   C     0.83327   0.49995   0.16483   0.00000  Uiso   1.00
C274   C     0.83329   0.49996   0.33517   0.00000  Uiso   1.00
C275   C     0.80285   0.35815   0.22883   0.00000  Uiso   1.00
C276   C     0.86396   0.64188   0.27091   0.00000  Uiso   1.00
C277   C     0.86382   0.35814   0.27117   0.00000  Uiso   1.00
C278   C     0.80270   0.64189   0.22910   0.00000  Uiso   1.00
C279   C     0.68816   0.49891   0.20977   0.00000  Uiso   1.00
C280   C     0.97853   0.50029   0.29024   0.00000  Uiso   1.00
C281   C     0.97828   0.49975   0.20974   0.00000  Uiso   1.00
C282   C     0.68841   0.50115   0.29025   0.00000  Uiso   1.00
C283   C     0.81710   0.53753   0.04669   0.00000  Uiso   1.00
C284   C     0.81739   0.46073   0.45279   0.00000  Uiso   1.00
C285   C     0.84870   0.53763   0.45341   0.00000  Uiso   1.00
C286   C     0.84846   0.46065   0.04710   0.00000  Uiso   1.00
C287   C     0.81688   0.53826   0.09236   0.00000  Uiso   1.00
C288   C     0.81704   0.46066   0.40707   0.00000  Uiso   1.00
C289   C     0.84911   0.53839   0.40774   0.00000  Uiso   1.00
C290   C     0.84899   0.46053   0.09283   0.00000  Uiso   1.00
C291   C     0.83312   0.49965   0.11635   0.00000  Uiso   1.00
C292   C     0.83311   0.49972   0.38365   0.00000  Uiso   1.00
C293   C     0.83278   0.49899   0.02402   0.00000  Uiso   1.00
C294   C     0.83300   0.49905   0.47597   0.00000  Uiso   1.00
C295   C     0.95714   0.50000   0.24998   0.00000  Uiso   1.00
C296   C     0.70954   0.50001   0.25002   0.00000  Uiso   1.00
Cu297  Cu    0.83333   0.54689   0.25000   0.00000  Uiso   1.00
Cu298  Cu    0.83333   0.45311   0.25000   0.00000  Uiso   1.00
H299   H     0.77850   0.37681   0.21171   0.00000  Uiso   1.00
H300   H     0.88861   0.62326   0.28751   0.00000  Uiso   1.00
H301   H     0.88816   0.37680   0.28830   0.00000  Uiso   1.00
H302   H     0.77803   0.62328   0.21252   0.00000  Uiso   1.00
H303   H     0.80432   0.56697   0.02866   0.00000  Uiso   1.00
H304   H     0.80468   0.43106   0.47041   0.00000  Uiso   1.00
H305   H     0.86135   0.56709   0.47151   0.00000  Uiso   1.00
H306   H     0.86109   0.43097   0.02940   0.00000  Uiso   1.00
N307   N     0.83333   0.61736   0.25000   0.00000  Uiso   1.00
N308   N     0.83333   0.38264   0.25000   0.00000  Uiso   1.00
O309   O     0.77321   0.53958   0.24999   0.00000  Uiso   1.00
O310   O     0.89345   0.46042   0.25000   0.00000  Uiso   1.00
O311   O     0.89345   0.53958   0.25000   0.00000  Uiso   1.00
O312   O     0.77321   0.46042   0.24999   0.00000  Uiso   1.00
O313   O     0.83333   0.53959   0.18573   0.00000  Uiso   1.00
O314   O     0.83334   0.46041   0.31427   0.00000  Uiso   1.00
O315   O     0.83334   0.53959   0.31427   0.00000  Uiso   1.00
O316   O     0.83333   0.46041   0.18573   0.00000  Uiso   1.00
Br317  Br    0.79183   0.59275   0.11835   0.00000  Uiso   1.00
Br318  Br    0.79213   0.40637   0.38009   0.00000  Uiso   1.00
Br319  Br    0.87392   0.59313   0.38194   0.00000  Uiso   1.00
Br320  Br    0.87371   0.40601   0.11961   0.00000  Uiso   1.00
Br321  Br    0.71805   0.49595   0.15504   0.00000  Uiso   1.00
Br322  Br    0.94867   0.49900   0.34503   0.00000  Uiso   1.00
Br323  Br    0.94810   0.50111   0.15491   0.00000  Uiso   1.00
Br324  Br    0.71861   0.50423   0.34502   0.00000  Uiso   1.00
C325   C     0.08746   0.83334   0.25003   0.00000  Uiso   1.00
C326   C     0.24587   0.83333   0.24997   0.00000  Uiso   1.00
C327   C     0.16660   0.83328   0.16483   0.00000  Uiso   1.00
C328   C     0.16662   0.83330   0.33517   0.00000  Uiso   1.00
C329   C     0.13618   0.69149   0.22883   0.00000  Uiso   1.00
C330   C     0.19730   0.97522   0.27091   0.00000  Uiso   1.00
C331   C     0.19715   0.69148   0.27117   0.00000  Uiso   1.00
C332   C     0.13603   0.97522   0.22910   0.00000  Uiso   1.00
C333   C     0.02149   0.83224   0.20977   0.00000  Uiso   1.00
C334   C     0.31187   0.83362   0.29024   0.00000  Uiso   1.00
C335   C     0.31162   0.83309   0.20974   0.00000  Uiso   1.00
C336   C     0.02174   0.83449   0.29025   0.00000  Uiso   1.00
C337   C     0.15044   0.87086   0.04669   0.00000  Uiso   1.00
C338   C     0.15073   0.79407   0.45279   0.00000  Uiso   1.00
C339   C     0.18203   0.87096   0.45341   0.00000  Uiso   1.00
C340   C     0.18179   0.79398   0.04710   0.00000  Uiso   1.00
C341   C     0.15021   0.87159   0.09236   0.00000  Uiso   1.00
C342   C     0.15037   0.79399   0.40707   0.00000  Uiso   1.00
C343   C     0.18244   0.87173   0.40774   0.00000  Uiso   1.00
C344   C     0.18232   0.79386   0.09283   0.00000  Uiso   1.00
C345   C     0.16645   0.83298   0.11635   0.00000  Uiso   1.00
C346   C     0.16644   0.83306   0.38365   0.00000  Uiso   1.00
C347   C     0.16611   0.83233   0.02402   0.00000  Uiso   1.00
C348   C     0.16634   0.83238   0.47597   0.00000  Uiso   1.00
C349   C     0.29047   0.83333   0.24998   0.00000  Uiso   1.00
C350   C     0.04287   0.83335   0.25002   0.00000  Uiso   1.00
Cu351  Cu    0.16667   0.88022   0.25000   0.00000  Uiso   1.00
Cu352  Cu    0.16667   0.78645   0.25000   0.00000  Uiso   1.00
H353   H     0.11184   0.71014   0.21171   0.00000  Uiso   1.00
H354   H     0.22195   0.95659   0.28751   0.00000  Uiso   1.00
H355   H     0.22149   0.71013   0.28830   0.00000  Uiso   1.00
H356   H     0.11137   0.95661   0.21252   0.00000  Uiso   1.00
H357   H     0.13765   0.90030   0.02866   0.00000  Uiso   1.00
H358   H     0.13801   0.76439   0.47041   0.00000  Uiso   1.00
H359   H     0.19469   0.90042   0.47151   0.00000  Uiso   1.00
H360   H     0.19442   0.76431   0.02940   0.00000  Uiso   1.00
N361   N     0.16667   0.95069   0.25000   0.00000  Uiso   1.00
N362   N     0.16667   0.71598   0.25000   0.00000  Uiso   1.00
O363   O     0.10655   0.87291   0.24999   0.00000  Uiso   1.00
O364   O     0.22679   0.79375   0.25000   0.00000  Uiso   1.00
O365   O     0.22679   0.87291   0.25000   0.00000  Uiso   1.00
O366   O     0.10655   0.79375   0.24999   0.00000  Uiso   1.00
O367   O     0.16666   0.87293   0.18573   0.00000  Uiso   1.00
O368   O     0.16667   0.79374   0.31427   0.00000  Uiso   1.00
O369   O     0.16667   0.87293   0.31427   0.00000  Uiso   1.00
O370   O     0.16666   0.79374   0.18573   0.00000  Uiso   1.00
Br371  Br    0.12517   0.92609   0.11835   0.00000  Uiso   1.00
Br372  Br    0.12546   0.73970   0.38009   0.00000  Uiso   1.00
Br373  Br    0.20726   0.92646   0.38194   0.00000  Uiso   1.00
Br374  Br    0.20704   0.73935   0.11961   0.00000  Uiso   1.00
Br375  Br    0.05138   0.82929   0.15504   0.00000  Uiso   1.00
Br376  Br    0.28200   0.83234   0.34503   0.00000  Uiso   1.00
Br377  Br    0.28144   0.83445   0.15491   0.00000  Uiso   1.00
Br378  Br    0.05194   0.83756   0.34502   0.00000  Uiso   1.00
C379   C     0.42080   0.83334   0.25003   0.00000  Uiso   1.00
C380   C     0.57921   0.83333   0.24997   0.00000  Uiso   1.00
C381   C     0.49993   0.83328   0.16483   0.00000  Uiso   1.00
C382   C     0.49995   0.83330   0.33517   0.00000  Uiso   1.00
C383   C     0.46952   0.69149   0.22883   0.00000  Uiso   1.00
C384   C     0.53063   0.97522   0.27091   0.00000  Uiso   1.00
C385   C     0.53048   0.69148   0.27117   0.00000  Uiso   1.00
C386   C     0.46937   0.97522   0.22910   0.00000  Uiso   1.00
C387   C     0.35482   0.83224   0.20977   0.00000  Uiso   1.00
C388   C     0.64520   0.83362   0.29024   0.00000  Uiso   1.00
C389   C     0.64495   0.83309   0.20974   0.00000  Uiso   1.00
C390   C     0.35507   0.83449   0.29025   0.00000  Uiso   1.00
C391   C     0.48377   0.87086   0.04669   0.00000  Uiso   1.00
C392   C     0.48406   0.79407   0.45279   0.00000  Uiso   1.00
C393   C     0.51536   0.87096   0.45341   0.00000  Uiso   1.00
C394   C     0.51512   0.79398   0.04710   0.00000  Uiso   1.00
C395   C     0.48355   0.87159   0.09236   0.00000  Uiso   1.00
C396   C     0.48370   0.79399   0.40707   0.00000  Uiso   1.00
C397   C     0.51577   0.87173   0.40774   0.00000  Uiso   1.00
C398   C     0.51566   0.79386   0.09283   0.00000  Uiso   1.00
C399   C     0.49978   0.83298   0.11635   0.00000  Uiso   1.00
C400   C     0.49977   0.83306   0.38365   0.00000  Uiso   1.00
C401   C     0.49945   0.83233   0.02402   0.00000  Uiso   1.00
C402   C     0.49967   0.83238   0.47597   0.00000  Uiso   1.00
C403   C     0.62381   0.83333   0.24998   0.00000  Uiso   1.00
C404   C     0.37621   0.83335   0.25002   0.00000  Uiso   1.00
Cu405  Cu    0.50000   0.88022   0.25000   0.00000  Uiso   1.00
Cu406  Cu    0.50000   0.78645   0.25000   0.00000  Uiso   1.00
H407   H     0.44517   0.71014   0.21171   0.00000  Uiso   1.00
H408   H     0.55528   0.95659   0.28751   0.00000  Uiso   1.00
H409   H     0.55483   0.71013   0.28830   0.00000  Uiso   1.00
H410   H     0.44470   0.95661   0.21252   0.00000  Uiso   1.00
H411   H     0.47099   0.90030   0.02866   0.00000  Uiso   1.00
H412   H     0.47134   0.76439   0.47041   0.00000  Uiso   1.00
H413   H     0.52802   0.90042   0.47151   0.00000  Uiso   1.00
H414   H     0.52776   0.76431   0.02940   0.00000  Uiso   1.00
N415   N     0.50000   0.95069   0.25000   0.00000  Uiso   1.00
N416   N     0.50000   0.71598   0.25000   0.00000  Uiso   1.00
O417   O     0.43988   0.87291   0.24999   0.00000  Uiso   1.00
O418   O     0.56012   0.79375   0.25000   0.00000  Uiso   1.00
O419   O     0.56012   0.87291   0.25000   0.00000  Uiso   1.00
O420   O     0.43988   0.79375   0.24999   0.00000  Uiso   1.00
O421   O     0.50000   0.87293   0.18573   0.00000  Uiso   1.00
O422   O     0.50000   0.79374   0.31427   0.00000  Uiso   1.00
O423   O     0.50000   0.87293   0.31427   0.00000  Uiso   1.00
O424   O     0.50000   0.79374   0.18573   0.00000  Uiso   1.00
Br425  Br    0.45850   0.92609   0.11835   0.00000  Uiso   1.00
Br426  Br    0.45880   0.73970   0.38009   0.00000  Uiso   1.00
Br427  Br    0.54059   0.92646   0.38194   0.00000  Uiso   1.00
Br428  Br    0.54037   0.73935   0.11961   0.00000  Uiso   1.00
Br429  Br    0.38471   0.82929   0.15504   0.00000  Uiso   1.00
Br430  Br    0.61533   0.83234   0.34503   0.00000  Uiso   1.00
Br431  Br    0.61477   0.83445   0.15491   0.00000  Uiso   1.00
Br432  Br    0.38527   0.83756   0.34502   0.00000  Uiso   1.00
C433   C     0.75413   0.83334   0.25003   0.00000  Uiso   1.00
C434   C     0.91254   0.83333   0.24997   0.00000  Uiso   1.00
C435   C     0.83327   0.83328   0.16483   0.00000  Uiso   1.00
C436   C     0.83329   0.83330   0.33517   0.00000  Uiso   1.00
C437   C     0.80285   0.69149   0.22883   0.00000  Uiso   1.00
C438   C     0.86396   0.97522   0.27091   0.00000  Uiso   1.00
C439   C     0.86382   0.69148   0.27117   0.00000  Uiso   1.00
C440   C     0.80270   0.97522   0.22910   0.00000  Uiso   1.00
C441   C     0.68816   0.83224   0.20977   0.00000  Uiso   1.00
C442   C     0.97853   0.83362   0.29024   0.00000  Uiso   1.00
C443   C     0.97828   0.83309   0.20974   0.00000  Uiso   1.00
C444   C     0.68841   0.83449   0.29025   0.00000  Uiso   1.00
C445   C     0.81710   0.87086   0.04669   0.00000  Uiso   1.00
C446   C     0.81739   0.79407   0.45279   0.00000  Uiso   1.00
C447   C     0.84870   0.87096   0.45341   0.00000  Uiso   1.00
C448   C     0.84846   0.79398   0.04710   0.00000  Uiso   1.00
C449   C     0.81688   0.87159   0.09236   0.00000  Uiso   1.00
C450   C     0.81704   0.79399   0.40707   0.00000  Uiso   1.00
C451   C     0.84911   0.87173   0.40774   0.00000  Uiso   1.00
C452   C     0.84899   0.79386   0.09283   0.00000  Uiso   1.00
C453   C     0.83312   0.83298   0.11635   0.00000  Uiso   1.00
C454   C     0.83311   0.83306   0.38365   0.00000  Uiso   1.00
C455   C     0.83278   0.83233   0.02402   0.00000  Uiso   1.00
C456   C     0.83300   0.83238   0.47597   0.00000  Uiso   1.00
C457   C     0.95714   0.83333   0.24998   0.00000  Uiso   1.00
C458   C     0.70954   0.83335   0.25002   0.00000  Uiso   1.00
Cu459  Cu    0.83333   0.88022   0.25000   0.00000  Uiso   1.00
Cu460  Cu    0.83333   0.78645   0.25000   0.00000  Uiso   1.00
H461   H     0.77850   0.71014   0.21171   0.00000  Uiso   1.00
H462   H     0.88861   0.95659   0.28751   0.00000  Uiso   1.00
H463   H     0.88816   0.71013   0.28830   0.00000  Uiso   1.00
H464   H     0.77803   0.95661   0.21252   0.00000  Uiso   1.00
H465   H     0.80432   0.90030   0.02866   0.00000  Uiso   1.00
H466   H     0.80468   0.76439   0.47041   0.00000  Uiso   1.00
H467   H     0.86135   0.90042   0.47151   0.00000  Uiso   1.00
H468   H     0.86109   0.76431   0.02940   0.00000  Uiso   1.00
N469   N     0.83333   0.95069   0.25000   0.00000  Uiso   1.00
N470   N     0.83333   0.71598   0.25000   0.00000  Uiso   1.00
O471   O     0.77321   0.87291   0.24999   0.00000  Uiso   1.00
O472   O     0.89345   0.79375   0.25000   0.00000  Uiso   1.00
O473   O     0.89345   0.87291   0.25000   0.00000  Uiso   1.00
O474   O     0.77321   0.79375   0.24999   0.00000  Uiso   1.00
O475   O     0.83333   0.87293   0.18573   0.00000  Uiso   1.00
O476   O     0.83334   0.79374   0.31427   0.00000  Uiso   1.00
O477   O     0.83334   0.87293   0.31427   0.00000  Uiso   1.00
O478   O     0.83333   0.79374   0.18573   0.00000  Uiso   1.00
Br479  Br    0.79183   0.92609   0.11835   0.00000  Uiso   1.00
Br480  Br    0.79213   0.73970   0.38009   0.00000  Uiso   1.00
Br481  Br    0.87392   0.92646   0.38194   0.00000  Uiso   1.00
Br482  Br    0.87371   0.73935   0.11961   0.00000  Uiso   1.00
Br483  Br    0.71805   0.82929   0.15504   0.00000  Uiso   1.00
Br484  Br    0.94867   0.83234   0.34503   0.00000  Uiso   1.00
Br485  Br    0.94810   0.83445   0.15491   0.00000  Uiso   1.00
Br486  Br    0.71861   0.83756   0.34502   0.00000  Uiso   1.00
C487   C     0.08746   0.16667   0.75003   0.00000  Uiso   1.00
C488   C     0.24587   0.16666   0.74997   0.00000  Uiso   1.00
C489   C     0.16660   0.16662   0.66483   0.00000  Uiso   1.00
C490   C     0.16662   0.16663   0.83517   0.00000  Uiso   1.00
C491   C     0.13618   0.02482   0.72883   0.00000  Uiso   1.00
C492   C     0.19730   0.30855   0.77091   0.00000  Uiso   1.00
C493   C     0.19715   0.02481   0.77117   0.00000  Uiso   1.00
C494   C     0.13603   0.30856   0.72910   0.00000  Uiso   1.00
C495   C     0.02149   0.16557   0.70977   0.00000  Uiso   1.00
C496   C     0.31187   0.16695   0.79024   0.00000  Uiso   1.00
C497   C     0.31162   0.16642   0.70974   0.00000  Uiso   1.00
C498   C     0.02174   0.16782   0.79025   0.00000  Uiso   1.00
C499   C     0.15044   0.20419   0.54669   0.00000  Uiso   1.00
C500   C     0.15073   0.12740   0.95279   0.00000  Uiso   1.00
C501   C     0.18203   0.20429   0.95341   0.00000  Uiso   1.00
C502   C     0.18179   0.12731   0.54710   0.00000  Uiso   1.00
C503   C     0.15021   0.20492   0.59236   0.00000  Uiso   1.00
C504   C     0.15037   0.12732   0.90707   0.00000  Uiso   1.00
C505   C     0.18244   0.20506   0.90774   0.00000  Uiso   1.00
C506   C     0.18232   0.12720   0.59283   0.00000  Uiso   1.00
C507   C     0.16645   0.16631   0.61635   0.00000  Uiso   1.00
C508   C     0.16644   0.16639   0.88365   0.00000  Uiso   1.00
C509   C     0.16611   0.16566   0.52402   0.00000  Uiso   1.00
C510   C     0.16634   0.16571   0.97597   0.00000  Uiso   1.00
C511   C     0.29047   0.16667   0.74998   0.00000  Uiso   1.00
C512   C     0.04287   0.16668   0.75002   0.00000  Uiso   1.00
Cu513  Cu    0.16667   0.21355   0.75000   0.00000  Uiso   1.00
Cu514  Cu    0.16667   0.11978   0.75000   0.00000  Uiso   1.00
H515   H     0.11184   0.04348   0.71171   0.00000  Uiso   1.00
H516   H     0.22195   0.28993   0.78751   0.00000  Uiso   1.00
H517   H     0.22149   0.04346   0.78830   0.00000  Uiso   1.00
H518   H     0.11137   0.28995   0.71252   0.00000  Uiso   1.00
H519   H     0.13765   0.23364   0.52866   0.00000  Uiso   1.00
H520   H     0.13801   0.09772   0.97041   0.00000  Uiso   1.00
H521   H     0.19469   0.23375   0.97151   0.00000  Uiso   1.00
H522   H     0.19442   0.09764   0.52940   0.00000  Uiso   1.00
N523   N     0.16667   0.28402   0.75000   0.00000  Uiso   1.00
N524   N     0.16667   0.04931   0.75000   0.00000  Uiso   1.00
O525   O     0.10655   0.20625   0.74999   0.00000  Uiso   1.00
O526   O     0.22679   0.12709   0.75000   0.00000  Uiso   1.00
O527   O     0.22679   0.20625   0.75000   0.00000  Uiso   1.00
O528   O     0.10655   0.12709   0.74999   0.00000  Uiso   1.00
O529   O     0.16666   0.20626   0.68573   0.00000  Uiso   1.00
O530   O     0.16667   0.12707   0.81427   0.00000  Uiso   1.00
O531   O     0.16667   0.20626   0.81427   0.00000  Uiso   1.00
O532   O     0.16666   0.12707   0.68573   0.00000  Uiso   1.00
Br533  Br    0.12517   0.25942   0.61835   0.00000  Uiso   1.00
Br534  Br    0.12546   0.07303   0.88009   0.00000  Uiso   1.00
Br535  Br    0.20726   0.25979   0.88194   0.00000  Uiso   1.00
Br536  Br    0.20704   0.07268   0.61961   0.00000  Uiso   1.00
Br537  Br    0.05138   0.16262   0.65504   0.00000  Uiso   1.00
Br538  Br    0.28200   0.16567   0.84503   0.00000  Uiso   1.00
Br539  Br    0.28144   0.16778   0.65491   0.00000  Uiso   1.00
Br540  Br    0.05194   0.17089   0.84502   0.00000  Uiso   1.00
C541   C     0.42080   0.16667   0.75003   0.00000  Uiso   1.00
C542   C     0.57921   0.16666   0.74997   0.00000  Uiso   1.00
C543   C     0.49993   0.16662   0.66483   0.00000  Uiso   1.00
C544   C     0.49995   0.16663   0.83517   0.00000  Uiso   1.00
C545   C     0.46952   0.02482   0.72883   0.00000  Uiso   1.00
C546   C     0.53063   0.30855   0.77091   0.00000  Uiso   1.00
C547   C     0.53048   0.02481   0.77117   0.00000  Uiso   1.00
C548   C     0.46937   0.30856   0.72910   0.00000  Uiso   1.00
C549   C     0.35482   0.16557   0.70977   0.00000  Uiso   1.00
C550   C     0.64520   0.16695   0.79024   0.00000  Uiso   1.00
C551   C     0.64495   0.16642   0.70974   0.00000  Uiso   1.00
C552   C     0.35507   0.16782   0.79025   0.00000  Uiso   1.00
C553   C     0.48377   0.20419   0.54669   0.00000  Uiso   1.00
C554   C     0.48406   0.12740   0.95279   0.00000  Uiso   1.00
C555   C     0.51536   0.20429   0.95341   0.00000  Uiso   1.00
C556   C     0.51512   0.12731   0.54710   0.00000  Uiso   1.00
C557   C     0.48355   0.20492   0.59236   0.00000  Uiso   1.00
C558   C     0.48370   0.12732   0.90707   0.00000  Uiso   1.00
C559   C     0.51577   0.20506   0.90774   0.00000  Uiso   1.00
C560   C     0.51566   0.12720   0.59283   0.00000  Uiso   1.00
C561   C     0.49978   0.16631   0.61635   0.00000  Uiso   1.00
C562   C     0.49977   0.16639   0.88365   0.00000  Uiso   1.00
C563   C     0.49945   0.16566   0.52402   0.00000  Uiso   1.00
C564   C     0.49967   0.16571   0.97597   0.00000  Uiso   1.00
C565   C     0.62381   0.16667   0.74998   0.00000  Uiso   1.00
C566   C     0.37621   0.16668   0.75002   0.00000  Uiso   1.00
Cu567  Cu    0.50000   0.21355   0.75000   0.00000  Uiso   1.00
Cu568  Cu    0.50000   0.11978   0.75000   0.00000  Uiso   1.00
H569   H     0.44517   0.04348   0.71171   0.00000  Uiso   1.00
H570   H     0.55528   0.28993   0.78751   0.00000  Uiso   1.00
H571   H     0.55483   0.04346   0.78830   0.00000  Uiso   1.00
H572   H     0.44470   0.28995   0.71252   0.00000  Uiso   1.00
H573   H     0.47099   0.23364   0.52866   0.00000  Uiso   1.00
H574   H     0.47134   0.09772   0.97041   0.00000  Uiso   1.00
H575   H     0.52802   0.23375   0.97151   0.00000  Uiso   1.00
H576   H     0.52776   0.09764   0.52940   0.00000  Uiso   1.00
N577   N     0.50000   0.28402   0.75000   0.00000  Uiso   1.00
N578   N     0.50000   0.04931   0.75000   0.00000  Uiso   1.00
O579   O     0.43988   0.20625   0.74999   0.00000  Uiso   1.00
O580   O     0.56012   0.12709   0.75000   0.00000  Uiso   1.00
O581   O     0.56012   0.20625   0.75000   0.00000  Uiso   1.00
O582   O     0.43988   0.12709   0.74999   0.00000  Uiso   1.00
O583   O     0.50000   0.20626   0.68573   0.00000  Uiso   1.00
O584   O     0.50000   0.12707   0.81427   0.00000  Uiso   1.00
O585   O     0.50000   0.20626   0.81427   0.00000  Uiso   1.00
O586   O     0.50000   0.12707   0.68573   0.00000  Uiso   1.00
Br587  Br    0.45850   0.25942   0.61835   0.00000  Uiso   1.00
Br588  Br    0.45880   0.07303   0.88009   0.00000  Uiso   1.00
Br589  Br    0.54059   0.25979   0.88194   0.00000  Uiso   1.00
Br590  Br    0.54037   0.07268   0.61961   0.00000  Uiso   1.00
Br591  Br    0.38471   0.16262   0.65504   0.00000  Uiso   1.00
Br592  Br    0.61533   0.16567   0.84503   0.00000  Uiso   1.00
Br593  Br    0.61477   0.16778   0.65491   0.00000  Uiso   1.00
Br594  Br    0.38527   0.17089   0.84502   0.00000  Uiso   1.00
C595   C     0.75413   0.16667   0.75003   0.00000  Uiso   1.00
C596   C     0.91254   0.16666   0.74997   0.00000  Uiso   1.00
C597   C     0.83327   0.16662   0.66483   0.00000  Uiso   1.00
C598   C     0.83329   0.16663   0.83517   0.00000  Uiso   1.00
C599   C     0.80285   0.02482   0.72883   0.00000  Uiso   1.00
C600   C     0.86396   0.30855   0.77091   0.00000  Uiso   1.00
C601   C     0.86382   0.02481   0.77117   0.00000  Uiso   1.00
C602   C     0.80270   0.30856   0.72910   0.00000  Uiso   1.00
C603   C     0.68816   0.16557   0.70977   0.00000  Uiso   1.00
C604   C     0.97853   0.16695   0.79024   0.00000  Uiso   1.00
C605   C     0.97828   0.16642   0.70974   0.00000  Uiso   1.00
C606   C     0.68841   0.16782   0.79025   0.00000  Uiso   1.00
C607   C     0.81710   0.20419   0.54669   0.00000  Uiso   1.00
C608   C     0.81739   0.12740   0.95279   0.00000  Uiso   1.00
C609   C     0.84870   0.20429   0.95341   0.00000  Uiso   1.00
C610   C     0.84846   0.12731   0.54710   0.00000  Uiso   1.00
C611   C     0.81688   0.20492   0.59236   0.00000  Uiso   1.00
C612   C     0.81704   0.12732   0.90707   0.00000  Uiso   1.00
C613   C     0.84911   0.20506   0.90774   0.00000  Uiso   1.00
C614   C     0.84899   0.12720   0.59283   0.00000  Uiso   1.00
C615   C     0.83312   0.16631   0.61635   0.00000  Uiso   1.00
C616   C     0.83311   0.16639   0.88365   0.00000  Uiso   1.00
C617   C     0.83278   0.16566   0.52402   0.00000  Uiso   1.00
C618   C     0.83300   0.16571   0.97597   0.00000  Uiso   1.00
C619   C     0.95714   0.16667   0.74998   0.00000  Uiso   1.00
C620   C     0.70954   0.16668   0.75002   0.00000  Uiso   1.00
Cu621  Cu    0.83333   0.21355   0.75000   0.00000  Uiso   1.00
Cu622  Cu    0.83333   0.11978   0.75000   0.00000  Uiso   1.00
H623   H     0.77850   0.04348   0.71171   0.00000  Uiso   1.00
H624   H     0.88861   0.28993   0.78751   0.00000  Uiso   1.00
H625   H     0.88816   0.04346   0.78830   0.00000  Uiso   1.00
H626   H     0.77803   0.28995   0.71252   0.00000  Uiso   1.00
H627   H     0.80432   0.23364   0.52866   0.00000  Uiso   1.00
H628   H     0.80468   0.09772   0.97041   0.00000  Uiso   1.00
H629   H     0.86135   0.23375   0.97151   0.00000  Uiso   1.00
H630   H     0.86109   0.09764   0.52940   0.00000  Uiso   1.00
N631   N     0.83333   0.28402   0.75000   0.00000  Uiso   1.00
N632   N     0.83333   0.04931   0.75000   0.00000  Uiso   1.00
O633   O     0.77321   0.20625   0.74999   0.00000  Uiso   1.00
O634   O     0.89345   0.12709   0.75000   0.00000  Uiso   1.00
O635   O     0.89345   0.20625   0.75000   0.00000  Uiso   1.00
O636   O     0.77321   0.12709   0.74999   0.00000  Uiso   1.00
O637   O     0.83333   0.20626   0.68573   0.00000  Uiso   1.00
O638   O     0.83334   0.12707   0.81427   0.00000  Uiso   1.00
O639   O     0.83334   0.20626   0.81427   0.00000  Uiso   1.00
O640   O     0.83333   0.12707   0.68573   0.00000  Uiso   1.00
Br641  Br    0.79183   0.25942   0.61835   0.00000  Uiso   1.00
Br642  Br    0.79213   0.07303   0.88009   0.00000  Uiso   1.00
Br643  Br    0.87392   0.25979   0.88194   0.00000  Uiso   1.00
Br644  Br    0.87371   0.07268   0.61961   0.00000  Uiso   1.00
Br645  Br    0.71805   0.16262   0.65504   0.00000  Uiso   1.00
Br646  Br    0.94867   0.16567   0.84503   0.00000  Uiso   1.00
Br647  Br    0.94810   0.16778   0.65491   0.00000  Uiso   1.00
Br648  Br    0.71861   0.17089   0.84502   0.00000  Uiso   1.00
C649   C     0.08746   0.50000   0.75003   0.00000  Uiso   1.00
C650   C     0.24587   0.50000   0.74997   0.00000  Uiso   1.00
C651   C     0.16660   0.49995   0.66483   0.00000  Uiso   1.00
C652   C     0.16662   0.49996   0.83517   0.00000  Uiso   1.00
C653   C     0.13618   0.35815   0.72883   0.00000  Uiso   1.00
C654   C     0.19730   0.64188   0.77091   0.00000  Uiso   1.00
C655   C     0.19715   0.35814   0.77117   0.00000  Uiso   1.00
C656   C     0.13603   0.64189   0.72910   0.00000  Uiso   1.00
C657   C     0.02149   0.49891   0.70977   0.00000  Uiso   1.00
C658   C     0.31187   0.50029   0.79024   0.00000  Uiso   1.00
C659   C     0.31162   0.49975   0.70974   0.00000  Uiso   1.00
C660   C     0.02174   0.50115   0.79025   0.00000  Uiso   1.00
C661   C     0.15044   0.53753   0.54669   0.00000  Uiso   1.00
C662   C     0.15073   0.46073   0.95279   0.00000  Uiso   1.00
C663   C     0.18203   0.53763   0.95341   0.00000  Uiso   1.00
C664   C     0.18179   0.46065   0.54710   0.00000  Uiso   1.00
C665   C     0.15021   0.53826   0.59236   0.00000  Uiso   1.00
C666   C     0.15037   0.46066   0.90707   0.00000  Uiso   1.00
C667   C     0.18244   0.53839   0.90774   0.00000  Uiso   1.00
C668   C     0.18232   0.46053   0.59283   0.00000  Uiso   1.00
C669   C     0.16645   0.49965   0.61635   0.00000  Uiso   1.00
C670   C     0.16644   0.49972   0.88365   0.00000  Uiso   1.00
C671   C     0.16611   0.49899   0.52402   0.00000  Uiso   1.00
C672   C     0.16634   0.49905   0.97597   0.00000  Uiso   1.00
C673   C     0.29047   0.50000   0.74998   0.00000  Uiso   1.00
C674   C     0.04287   0.50001   0.75002   0.00000  Uiso   1.00
Cu675  Cu    0.16667   0.54689   0.75000   0.00000  Uiso   1.00
Cu676  Cu    0.16667   0.45311   0.75000   0.00000  Uiso   1.00
H677   H     0.11184   0.37681   0.71171   0.00000  Uiso   1.00
H678   H     0.22195   0.62326   0.78751   0.00000  Uiso   1.00
H679   H     0.22149   0.37680   0.78830   0.00000  Uiso   1.00
H680   H     0.11137   0.62328   0.71252   0.00000  Uiso   1.00
H681   H     0.13765   0.56697   0.52866   0.00000  Uiso   1.00
H682   H     0.13801   0.43106   0.97041   0.00000  Uiso   1.00
H683   H     0.19469   0.56709   0.97151   0.00000  Uiso   1.00
H684   H     0.19442   0.43097   0.52940   0.00000  Uiso   1.00
N685   N     0.16667   0.61736   0.75000   0.00000  Uiso   1.00
N686   N     0.16667   0.38264   0.75000   0.00000  Uiso   1.00
O687   O     0.10655   0.53958   0.74999   0.00000  Uiso   1.00
O688   O     0.22679   0.46042   0.75000   0.00000  Uiso   1.00
O689   O     0.22679   0.53958   0.75000   0.00000  Uiso   1.00
O690   O     0.10655   0.46042   0.74999   0.00000  Uiso   1.00
O691   O     0.16666   0.53959   0.68573   0.00000  Uiso   1.00
O692   O     0.16667   0.46041   0.81427   0.00000  Uiso   1.00
O693   O     0.16667   0.53959   0.81427   0.00000  Uiso   1.00
O694   O     0.16666   0.46041   0.68573   0.00000  Uiso   1.00
Br695  Br    0.12517   0.59275   0.61835   0.00000  Uiso   1.00
Br696  Br    0.12546   0.40637   0.88009   0.00000  Uiso   1.00
Br697  Br    0.20726   0.59313   0.88194   0.00000  Uiso   1.00
Br698  Br    0.20704   0.40601   0.61961   0.00000  Uiso   1.00
Br699  Br    0.05138   0.49595   0.65504   0.00000  Uiso   1.00
Br700  Br    0.28200   0.49900   0.84503   0.00000  Uiso   1.00
Br701  Br    0.28144   0.50111   0.65491   0.00000  Uiso   1.00
Br702  Br    0.05194   0.50423   0.84502   0.00000  Uiso   1.00
C703   C     0.42080   0.50000   0.75003   0.00000  Uiso   1.00
C704   C     0.57921   0.50000   0.74997   0.00000  Uiso   1.00
C705   C     0.49993   0.49995   0.66483   0.00000  Uiso   1.00
C706   C     0.49995   0.49996   0.83517   0.00000  Uiso   1.00
C707   C     0.46952   0.35815   0.72883   0.00000  Uiso   1.00
C708   C     0.53063   0.64188   0.77091   0.00000  Uiso   1.00
C709   C     0.53048   0.35814   0.77117   0.00000  Uiso   1.00
C710   C     0.46937   0.64189   0.72910   0.00000  Uiso   1.00
C711   C     0.35482   0.49891   0.70977   0.00000  Uiso   1.00
C712   C     0.64520   0.50029   0.79024   0.00000  Uiso   1.00
C713   C     0.64495   0.49975   0.70974   0.00000  Uiso   1.00
C714   C     0.35507   0.50115   0.79025   0.00000  Uiso   1.00
C715   C     0.48377   0.53753   0.54669   0.00000  Uiso   1.00
C716   C     0.48406   0.46073   0.95279   0.00000  Uiso   1.00
C717   C     0.51536   0.53763   0.95341   0.00000  Uiso   1.00
C718   C     0.51512   0.46065   0.54710   0.00000  Uiso   1.00
C719   C     0.48355   0.53826   0.59236   0.00000  Uiso   1.00
C720   C     0.48370   0.46066   0.90707   0.00000  Uiso   1.00
C721   C     0.51577   0.53839   0.90774   0.00000  Uiso   1.00
C722   C     0.51566   0.46053   0.59283   0.00000  Uiso   1.00
C723   C     0.49978   0.49965   0.61635   0.00000  Uiso   1.00
C724   C     0.49977   0.49972   0.88365   0.00000  Uiso   1.00
C725   C     0.49945   0.49899   0.52402   0.00000  Uiso   1.00
C726   C     0.49967   0.49905   0.97597   0.00000  Uiso   1.00
C727   C     0.62381   0.50000   0.74998   0.00000  Uiso   1.00
C728   C     0.37621   0.50001   0.75002   0.00000  Uiso   1.00
Cu729  Cu    0.50000   0.54689   0.75000   0.00000  Uiso   1.00
Cu730  Cu    0.50000   0.45311   0.75000   0.00000  Uiso   1.00
H731   H     0.44517   0.37681   0.71171   0.00000  Uiso   1.00
H732   H     0.55528   0.62326   0.78751   0.00000  Uiso   1.00
H733   H     0.55483   0.37680   0.78830   0.00000  Uiso   1.00
H734   H     0.44470   0.62328   0.71252   0.00000  Uiso   1.00
H735   H     0.47099   0.56697   0.52866   0.00000  Uiso   1.00
H736   H     0.47134   0.43106   0.97041   0.00000  Uiso   1.00
H737   H     0.52802   0.56709   0.97151   0.00000  Uiso   1.00
H738   H     0.52776   0.43097   0.52940   0.00000  Uiso   1.00
N739   N     0.50000   0.61736   0.75000   0.00000  Uiso   1.00
N740   N     0.50000   0.38264   0.75000   0.00000  Uiso   1.00
O741   O     0.43988   0.53958   0.74999   0.00000  Uiso   1.00
O742   O     0.56012   0.46042   0.75000   0.00000  Uiso   1.00
O743   O     0.56012   0.53958   0.75000   0.00000  Uiso   1.00
O744   O     0.43988   0.46042   0.74999   0.00000  Uiso   1.00
O745   O     0.50000   0.53959   0.68573   0.00000  Uiso   1.00
O746   O     0.50000   0.46041   0.81427   0.00000  Uiso   1.00
O747   O     0.50000   0.53959   0.81427   0.00000  Uiso   1.00
O748   O     0.50000   0.46041   0.68573   0.00000  Uiso   1.00
Br749  Br    0.45850   0.59275   0.61835   0.00000  Uiso   1.00
Br750  Br    0.45880   0.40637   0.88009   0.00000  Uiso   1.00
Br751  Br    0.54059   0.59313   0.88194   0.00000  Uiso   1.00
Br752  Br    0.54037   0.40601   0.61961   0.00000  Uiso   1.00
Br753  Br    0.38471   0.49595   0.65504   0.00000  Uiso   1.00
Br754  Br    0.61533   0.49900   0.84503   0.00000  Uiso   1.00
Br755  Br    0.61477   0.50111   0.65491   0.00000  Uiso   1.00
Br756  Br    0.38527   0.50423   0.84502   0.00000  Uiso   1.00
C757   C     0.75413   0.50000   0.75003   0.00000  Uiso   1.00
C758   C     0.91254   0.50000   0.74997   0.00000  Uiso   1.00
C759   C     0.83327   0.49995   0.66483   0.00000  Uiso   1.00
C760   C     0.83329   0.49996   0.83517   0.00000  Uiso   1.00
C761   C     0.80285   0.35815   0.72883   0.00000  Uiso   1.00
C762   C     0.86396   0.64188   0.77091   0.00000  Uiso   1.00
C763   C     0.86382   0.35814   0.77117   0.00000  Uiso   1.00
C764   C     0.80270   0.64189   0.72910   0.00000  Uiso   1.00
C765   C     0.68816   0.49891   0.70977   0.00000  Uiso   1.00
C766   C     0.97853   0.50029   0.79024   0.00000  Uiso   1.00
C767   C     0.97828   0.49975   0.70974   0.00000  Uiso   1.00
C768   C     0.68841   0.50115   0.79025   0.00000  Uiso   1.00
C769   C     0.81710   0.53753   0.54669   0.00000  Uiso   1.00
C770   C     0.81739   0.46073   0.95279   0.00000  Uiso   1.00
C771   C     0.84870   0.53763   0.95341   0.00000  Uiso   1.00
C772   C     0.84846   0.46065   0.54710   0.00000  Uiso   1.00
C773   C     0.81688   0.53826   0.59236   0.00000  Uiso   1.00
C774   C     0.81704   0.46066   0.90707   0.00000  Uiso   1.00
C775   C     0.84911   0.53839   0.90774   0.00000  Uiso   1.00
C776   C     0.84899   0.46053   0.59283   0.00000  Uiso   1.00
C777   C     0.83312   0.49965   0.61635   0.00000  Uiso   1.00
C778   C     0.83311   0.49972   0.88365   0.00000  Uiso   1.00
C779   C     0.83278   0.49899   0.52402   0.00000  Uiso   1.00
C780   C     0.83300   0.49905   0.97597   0.00000  Uiso   1.00
C781   C     0.95714   0.50000   0.74998   0.00000  Uiso   1.00
C782   C     0.70954   0.50001   0.75002   0.00000  Uiso   1.00
Cu783  Cu    0.83333   0.54689   0.75000   0.00000  Uiso   1.00
Cu784  Cu    0.83333   0.45311   0.75000   0.00000  Uiso   1.00
H785   H     0.77850   0.37681   0.71171   0.00000  Uiso   1.00
H786   H     0.88861   0.62326   0.78751   0.00000  Uiso   1.00
H787   H     0.88816   0.37680   0.78830   0.00000  Uiso   1.00
H788   H     0.77803   0.62328   0.71252   0.00000  Uiso   1.00
H789   H     0.80432   0.56697   0.52866   0.00000  Uiso   1.00
H790   H     0.80468   0.43106   0.97041   0.00000  Uiso   1.00
H791   H     0.86135   0.56709   0.97151   0.00000  Uiso   1.00
H792   H     0.86109   0.43097   0.52940   0.00000  Uiso   1.00
N793   N     0.83333   0.61736   0.75000   0.00000  Uiso   1.00
N794   N     0.83333   0.38264   0.75000   0.00000  Uiso   1.00
O795   O     0.77321   0.53958   0.74999   0.00000  Uiso   1.00
O796   O     0.89345   0.46042   0.75000   0.00000  Uiso   1.00
O797   O     0.89345   0.53958   0.75000   0.00000  Uiso   1.00
O798   O     0.77321   0.46042   0.74999   0.00000  Uiso   1.00
O799   O     0.83333   0.53959   0.68573   0.00000  Uiso   1.00
O800   O     0.83334   0.46041   0.81427   0.00000  Uiso   1.00
O801   O     0.83334   0.53959   0.81427   0.00000  Uiso   1.00
O802   O     0.83333   0.46041   0.68573   0.00000  Uiso   1.00
Br803  Br    0.79183   0.59275   0.61835   0.00000  Uiso   1.00
Br804  Br    0.79213   0.40637   0.88009   0.00000  Uiso   1.00
Br805  Br    0.87392   0.59313   0.88194   0.00000  Uiso   1.00
Br806  Br    0.87371   0.40601   0.61961   0.00000  Uiso   1.00
Br807  Br    0.71805   0.49595   0.65504   0.00000  Uiso   1.00
Br808  Br    0.94867   0.49900   0.84503   0.00000  Uiso   1.00
Br809  Br    0.94810   0.50111   0.65491   0.00000  Uiso   1.00
Br810  Br    0.71861   0.50423   0.84502   0.00000  Uiso   1.00
C811   C     0.08746   0.83334   0.75003   0.00000  Uiso   1.00
C812   C     0.24587   0.83333   0.74997   0.00000  Uiso   1.00
C813   C     0.16660   0.83328   0.66483   0.00000  Uiso   1.00
C814   C     0.16662   0.83330   0.83517   0.00000  Uiso   1.00
C815   C     0.13618   0.69149   0.72883   0.00000  Uiso   1.00
C816   C     0.19730   0.97522   0.77091   0.00000  Uiso   1.00
C817   C     0.19715   0.69148   0.77117   0.00000  Uiso   1.00
C818   C     0.13603   0.97522   0.72910   0.00000  Uiso   1.00
C819   C     0.02149   0.83224   0.70977   0.00000  Uiso   1.00
C820   C     0.31187   0.83362   0.79024   0.00000  Uiso   1.00
C821   C     0.31162   0.83309   0.70974   0.00000  Uiso   1.00
C822   C     0.02174   0.83449   0.79025   0.00000  Uiso   1.00
C823   C     0.15044   0.87086   0.54669   0.00000  Uiso   1.00
C824   C     0.15073   0.79407   0.95279   0.00000  Uiso   1.00
C825   C     0.18203   0.87096   0.95341   0.00000  Uiso   1.00
C826   C     0.18179   0.79398   0.54710   0.00000  Uiso   1.00
C827   C     0.15021   0.87159   0.59236   0.00000  Uiso   1.00
C828   C     0.15037   0.79399   0.90707   0.00000  Uiso   1.00
C829   C     0.18244   0.87173   0.90774   0.00000  Uiso   1.00
C830   C     0.18232   0.79386   0.59283   0.00000  Uiso   1.00
C831   C     0.16645   0.83298   0.61635   0.00000  Uiso   1.00
C832   C     0.16644   0.83306   0.88365   0.00000  Uiso   1.00
C833   C     0.16611   0.83233   0.52402   0.00000  Uiso   1.00
C834   C     0.16634   0.83238   0.97597   0.00000  Uiso   1.00
C835   C     0.29047   0.83333   0.74998   0.00000  Uiso   1.00
C836   C     0.04287   0.83335   0.75002   0.00000  Uiso   1.00
Cu837  Cu    0.16667   0.88022   0.75000   0.00000  Uiso   1.00
Cu838  Cu    0.16667   0.78645   0.75000   0.00000  Uiso   1.00
H839   H     0.11184   0.71014   0.71171   0.00000  Uiso   1.00
H840   H     0.22195   0.95659   0.78751   0.00000  Uiso   1.00
H841   H     0.22149   0.71013   0.78830   0.00000  Uiso   1.00
H842   H     0.11137   0.95661   0.71252   0.00000  Uiso   1.00
H843   H     0.13765   0.90030   0.52866   0.00000  Uiso   1.00
H844   H     0.13801   0.76439   0.97041   0.00000  Uiso   1.00
H845   H     0.19469   0.90042   0.97151   0.00000  Uiso   1.00
H846   H     0.19442   0.76431   0.52940   0.00000  Uiso   1.00
N847   N     0.16667   0.95069   0.75000   0.00000  Uiso   1.00
N848   N     0.16667   0.71598   0.75000   0.00000  Uiso   1.00
O849   O     0.10655   0.87291   0.74999   0.00000  Uiso   1.00
O850   O     0.22679   0.79375   0.75000   0.00000  Uiso   1.00
O851   O     0.22679   0.87291   0.75000   0.00000  Uiso   1.00
O852   O     0.10655   0.79375   0.74999   0.00000  Uiso   1.00
O853   O     0.16666   0.87293   0.68573   0.00000  Uiso   1.00
O854   O     0.16667   0.79374   0.81427   0.00000  Uiso   1.00
O855   O     0.16667   0.87293   0.81427   0.00000  Uiso   1.00
O856   O     0.16666   0.79374   0.68573   0.00000  Uiso   1.00
Br857  Br    0.12517   0.92609   0.61835   0.00000  Uiso   1.00
Br858  Br    0.12546   0.73970   0.88009   0.00000  Uiso   1.00
Br859  Br    0.20726   0.92646   0.88194   0.00000  Uiso   1.00
Br860  Br    0.20704   0.73935   0.61961   0.00000  Uiso   1.00
Br861  Br    0.05138   0.82929   0.65504   0.00000  Uiso   1.00
Br862  Br    0.28200   0.83234   0.84503   0.00000  Uiso   1.00
Br863  Br    0.28144   0.83445   0.65491   0.00000  Uiso   1.00
Br864  Br    0.05194   0.83756   0.84502   0.00000  Uiso   1.00
C865   C     0.42080   0.83334   0.75003   0.00000  Uiso   1.00
C866   C     0.57921   0.83333   0.74997   0.00000  Uiso   1.00
C867   C     0.49993   0.83328   0.66483   0.00000  Uiso   1.00
C868   C     0.49995   0.83330   0.83517   0.00000  Uiso   1.00
C869   C     0.46952   0.69149   0.72883   0.00000  Uiso   1.00
C870   C     0.53063   0.97522   0.77091   0.00000  Uiso   1.00
C871   C     0.53048   0.69148   0.77117   0.00000  Uiso   1.00
C872   C     0.46937   0.97522   0.72910   0.00000  Uiso   1.00
C873   C     0.35482   0.83224   0.70977   0.00000  Uiso   1.00
C874   C     0.64520   0.83362   0.79024   0.00000  Uiso   1.00
C875   C     0.64495   0.83309   0.70974   0.00000  Uiso   1.00
C876   C     0.35507   0.83449   0.79025   0.00000  Uiso   1.00
C877   C     0.48377   0.87086   0.54669   0.00000  Uiso   1.00
C878   C     0.48406   0.79407   0.95279   0.00000  Uiso   1.00
C879   C     0.51536   0.87096   0.95341   0.00000  Uiso   1.00
C880   C     0.51512   0.79398   0.54710   0.00000  Uiso   1.00
C881   C     0.48355   0.87159   0.59236   0.00000  Uiso   1.00
C882   C     0.48370   0.79399   0.90707   0.00000  Uiso   1.00
C883   C     0.51577   0.87173   0.90774   0.00000  Uiso   1.00
C884   C     0.51566   0.79386   0.59283   0.00000  Uiso   1.00
C885   C     0.49978   0.83298   0.61635   0.00000  Uiso   1.00
C886   C     0.49977   0.83306   0.88365   0.00000  Uiso   1.00
C887   C     0.49945   0.83233   0.52402   0.00000  Uiso   1.00
C888   C     0.49967   0.83238   0.97597   0.00000  Uiso   1.00
C889   C     0.62381   0.83333   0.74998   0.00000  Uiso   1.00
C890   C     0.37621   0.83335   0.75002   0.00000  Uiso   1.00
Cu891  Cu    0.50000   0.88022   0.75000   0.00000  Uiso   1.00
Cu892  Cu    0.50000   0.78645   0.75000   0.00000  Uiso   1.00
H893   H     0.44517   0.71014   0.71171   0.00000  Uiso   1.00
H894   H     0.55528   0.95659   0.78751   0.00000  Uiso   1.00
H895   H     0.55483   0.71013   0.78830   0.00000  Uiso   1.00
H896   H     0.44470   0.95661   0.71252   0.00000  Uiso   1.00
H897   H     0.47099   0.90030   0.52866   0.00000  Uiso   1.00
H898   H     0.47134   0.76439   0.97041   0.00000  Uiso   1.00
H899   H     0.52802   0.90042   0.97151   0.00000  Uiso   1.00
H900   H     0.52776   0.76431   0.52940   0.00000  Uiso   1.00
N901   N     0.50000   0.95069   0.75000   0.00000  Uiso   1.00
N902   N     0.50000   0.71598   0.75000   0.00000  Uiso   1.00
O903   O     0.43988   0.87291   0.74999   0.00000  Uiso   1.00
O904   O     0.56012   0.79375   0.75000   0.00000  Uiso   1.00
O905   O     0.56012   0.87291   0.75000   0.00000  Uiso   1.00
O906   O     0.43988   0.79375   0.74999   0.00000  Uiso   1.00
O907   O     0.50000   0.87293   0.68573   0.00000  Uiso   1.00
O908   O     0.50000   0.79374   0.81427   0.00000  Uiso   1.00
O909   O     0.50000   0.87293   0.81427   0.00000  Uiso   1.00
O910   O     0.50000   0.79374   0.68573   0.00000  Uiso   1.00
Br911  Br    0.45850   0.92609   0.61835   0.00000  Uiso   1.00
Br912  Br    0.45880   0.73970   0.88009   0.00000  Uiso   1.00
Br913  Br    0.54059   0.92646   0.88194   0.00000  Uiso   1.00
Br914  Br    0.54037   0.73935   0.61961   0.00000  Uiso   1.00
Br915  Br    0.38471   0.82929   0.65504   0.00000  Uiso   1.00
Br916  Br    0.61533   0.83234   0.84503   0.00000  Uiso   1.00
Br917  Br    0.61477   0.83445   0.65491   0.00000  Uiso   1.00
Br918  Br    0.38527   0.83756   0.84502   0.00000  Uiso   1.00
C919   C     0.75413   0.83334   0.75003   0.00000  Uiso   1.00
C920   C     0.91254   0.83333   0.74997   0.00000  Uiso   1.00
C921   C     0.83327   0.83328   0.66483   0.00000  Uiso   1.00
C922   C     0.83329   0.83330   0.83517   0.00000  Uiso   1.00
C923   C     0.80285   0.69149   0.72883   0.00000  Uiso   1.00
C924   C     0.86396   0.97522   0.77091   0.00000  Uiso   1.00
C925   C     0.86382   0.69148   0.77117   0.00000  Uiso   1.00
C926   C     0.80270   0.97522   0.72910   0.00000  Uiso   1.00
C927   C     0.68816   0.83224   0.70977   0.00000  Uiso   1.00
C928   C     0.97853   0.83362   0.79024   0.00000  Uiso   1.00
C929   C     0.97828   0.83309   0.70974   0.00000  Uiso   1.00
C930   C     0.68841   0.83449   0.79025   0.00000  Uiso   1.00
C931   C     0.81710   0.87086   0.54669   0.00000  Uiso   1.00
C932   C     0.81739   0.79407   0.95279   0.00000  Uiso   1.00
C933   C     0.84870   0.87096   0.95341   0.00000  Uiso   1.00
C934   C     0.84846   0.79398   0.54710   0.00000  Uiso   1.00
C935   C     0.81688   0.87159   0.59236   0.00000  Uiso   1.00
C936   C     0.81704   0.79399   0.90707   0.00000  Uiso   1.00
C937   C     0.84911   0.87173   0.90774   0.00000  Uiso   1.00
C938   C     0.84899   0.79386   0.59283   0.00000  Uiso   1.00
C939   C     0.83312   0.83298   0.61635   0.00000  Uiso   1.00
C940   C     0.83311   0.83306   0.88365   0.00000  Uiso   1.00
C941   C     0.83278   0.83233   0.52402   0.00000  Uiso   1.00
C942   C     0.83300   0.83238   0.97597   0.00000  Uiso   1.00
C943   C     0.95714   0.83333   0.74998   0.00000  Uiso   1.00
C944   C     0.70954   0.83335   0.75002   0.00000  Uiso   1.00
Cu945  Cu    0.83333   0.88022   0.75000   0.00000  Uiso   1.00
Cu946  Cu    0.83333   0.78645   0.75000   0.00000  Uiso   1.00
H947   H     0.77850   0.71014   0.71171   0.00000  Uiso   1.00
H948   H     0.88861   0.95659   0.78751   0.00000  Uiso   1.00
H949   H     0.88816   0.71013   0.78830   0.00000  Uiso   1.00
H950   H     0.77803   0.95661   0.71252   0.00000  Uiso   1.00
H951   H     0.80432   0.90030   0.52866   0.00000  Uiso   1.00
H952   H     0.80468   0.76439   0.97041   0.00000  Uiso   1.00
H953   H     0.86135   0.90042   0.97151   0.00000  Uiso   1.00
H954   H     0.86109   0.76431   0.52940   0.00000  Uiso   1.00
N955   N     0.83333   0.95069   0.75000   0.00000  Uiso   1.00
N956   N     0.83333   0.71598   0.75000   0.00000  Uiso   1.00
O957   O     0.77321   0.87291   0.74999   0.00000  Uiso   1.00
O958   O     0.89345   0.79375   0.75000   0.00000  Uiso   1.00
O959   O     0.89345   0.87291   0.75000   0.00000  Uiso   1.00
O960   O     0.77321   0.79375   0.74999   0.00000  Uiso   1.00
O961   O     0.83333   0.87293   0.68573   0.00000  Uiso   1.00
O962   O     0.83334   0.79374   0.81427   0.00000  Uiso   1.00
O963   O     0.83334   0.87293   0.81427   0.00000  Uiso   1.00
O964   O     0.83333   0.79374   0.68573   0.00000  Uiso   1.00
Br965  Br    0.79183   0.92609   0.61835   0.00000  Uiso   1.00
Br966  Br    0.79213   0.73970   0.88009   0.00000  Uiso   1.00
Br967  Br    0.87392   0.92646   0.88194   0.00000  Uiso   1.00
Br968  Br    0.87371   0.73935   0.61961   0.00000  Uiso   1.00
Br969  Br    0.71805   0.82929   0.65504   0.00000  Uiso   1.00
Br970  Br    0.94867   0.83234   0.84503   0.00000  Uiso   1.00
Br971  Br    0.94810   0.83445   0.65491   0.00000  Uiso   1.00
Br972  Br    0.71861   0.83756   0.84502   0.00000  Uiso   1.00
loop_
_geom_bond_atom_site_label_1
_geom_bond_atom_site_label_2
_geom_bond_distance
_geom_bond_site_symmetry_2
_ccdc_geom_bond_type
C1     C26     1.440   .     S
C1     O42     1.286   .     A
C1     O39     1.286   .     A
C2     C25     1.440   .     S
C2     O41     1.286   .     A
C2     O40     1.287   .     A
C3     O46     1.295   .     A
C3     O43     1.297   .     A
C3     C21     1.474   .     S
C4     C22     1.474   .     S
C4     O45     1.297   .     A
C4     O44     1.295   .     A
C5     N38     1.366   .     A
C5     H29     1.081   .     S
C5     C332    1.415   1_545 S
C6     N37     1.367   .     A
C6     H30     1.081   .     S
C6     C169    1.415   .     S
C7     N38     1.366   .     A
C7     H31     1.081   .     S
C7     C330    1.415   1_545 S
C8     N37     1.367   .     A
C8     H32     1.081   .     S
C8     C167    1.415   .     S
C9     Br51    1.929   .     S
C9     C26     1.403   .     A
C9     C119    1.396   1_455 S
C10    Br52    1.929   .     S
C10    C25     1.404   .     A
C10    C66     1.396   .     S
C11    Br53    1.929   .     S
C11    C25     1.404   .     A
C11    C63     1.396   .     S
C12    Br54    1.929   .     S
C12    C26     1.404   .     A
C12    C118    1.396   1_455 S
C13    H33     1.084   .     S
C13    C17     1.389   .     A
C13    C23     1.394   .     A
C14    H34     1.084   .     S
C14    C24     1.394   .     A
C14    C18     1.390   .     A
C15    C19     1.389   .     A
C15    C24     1.394   .     A
C15    H35     1.084   .     S
C16    C20     1.390   .     A
C16    H36     1.084   .     S
C16    C23     1.394   .     A
C17    C21     1.420   .     A
C17    Br47    1.924   .     S
C18    C22     1.422   .     A
C18    Br48    1.927   .     S
C19    C22     1.421   .     A
C19    Br49    1.924   .     S
C20    Br50    1.927   .     S
C20    C21     1.422   .     A
C23    C510    1.461   1_554 S
C24    C509    1.461   .     S
Cu27   O43     1.966   .     S
Cu27   O41     1.953   .     S
Cu27   O45     1.966   .     S
Cu27   N37     2.010   .     S
Cu27   O39     1.953   .     S
Cu27   Cu28    2.675   .     S
Cu28   O46     1.966   .     S
Cu28   O42     1.953   .     S
Cu28   O40     1.953   .     S
Cu28   N38     2.010   .     S
Cu28   O44     1.966   .     S
C55    C80     1.440   .     S
C55    O96     1.286   .     A
C55    O93     1.286   .     A
C56    C79     1.440   .     S
C56    O95     1.286   .     A
C56    O94     1.287   .     A
C57    O100    1.295   .     A
C57    O97     1.297   .     A
C57    C75     1.474   .     S
C58    C76     1.474   .     S
C58    O99     1.297   .     A
C58    O98     1.295   .     A
C59    N92     1.366   .     A
C59    H83     1.081   .     S
C59    C386    1.415   1_545 S
C60    N91     1.367   .     A
C60    H84     1.081   .     S
C60    C223    1.415   .     S
C61    N92     1.366   .     A
C61    H85     1.081   .     S
C61    C384    1.415   1_545 S
C62    N91     1.367   .     A
C62    H86     1.081   .     S
C62    C221    1.415   .     S
C63    Br105   1.929   .     S
C63    C80     1.403   .     A
C64    Br106   1.929   .     S
C64    C79     1.404   .     A
C64    C120    1.396   .     S
C65    Br107   1.929   .     S
C65    C79     1.404   .     A
C65    C117    1.396   .     S
C66    Br108   1.929   .     S
C66    C80     1.404   .     A
C67    H87     1.084   .     S
C67    C71     1.389   .     A
C67    C77     1.394   .     A
C68    H88     1.084   .     S
C68    C78     1.394   .     A
C68    C72     1.390   .     A
C69    C73     1.389   .     A
C69    C78     1.394   .     A
C69    H89     1.084   .     S
C70    C74     1.390   .     A
C70    H90     1.084   .     S
C70    C77     1.394   .     A
C71    C75     1.420   .     A
C71    Br101   1.924   .     S
C72    C76     1.422   .     A
C72    Br102   1.927   .     S
C73    C76     1.421   .     A
C73    Br103   1.924   .     S
C74    Br104   1.927   .     S
C74    C75     1.422   .     A
C77    C564    1.461   1_554 S
C78    C563    1.461   .     S
Cu81   O97     1.966   .     S
Cu81   O95     1.953   .     S
Cu81   O99     1.966   .     S
Cu81   N91     2.010   .     S
Cu81   O93     1.953   .     S
Cu81   Cu82    2.675   .     S
Cu82   O100    1.966   .     S
Cu82   O96     1.953   .     S
Cu82   O94     1.953   .     S
Cu82   N92     2.010   .     S
Cu82   O98     1.966   .     S
C109   C134    1.440   .     S
C109   O150    1.286   .     A
C109   O147    1.286   .     A
C110   C133    1.440   .     S
C110   O149    1.286   .     A
C110   O148    1.287   .     A
C111   O154    1.295   .     A
C111   O151    1.297   .     A
C111   C129    1.474   .     S
C112   C130    1.474   .     S
C112   O153    1.297   .     A
C112   O152    1.295   .     A
C113   N146    1.366   .     A
C113   H137    1.081   .     S
C113   C440    1.415   1_545 S
C114   N145    1.367   .     A
C114   H138    1.081   .     S
C114   C277    1.415   .     S
C115   N146    1.366   .     A
C115   H139    1.081   .     S
C115   C438    1.415   1_545 S
C116   N145    1.367   .     A
C116   H140    1.081   .     S
C116   C275    1.415   .     S
C117   Br159   1.929   .     S
C117   C134    1.403   .     A
C118   Br160   1.929   .     S
C118   C133    1.404   .     A
C118   C12     1.396   1_655 S
C119   Br161   1.929   .     S
C119   C133    1.404   .     A
C119   C9      1.396   1_655 S
C120   Br162   1.929   .     S
C120   C134    1.404   .     A
C121   H141    1.084   .     S
C121   C125    1.389   .     A
C121   C131    1.394   .     A
C122   H142    1.084   .     S
C122   C132    1.394   .     A
C122   C126    1.390   .     A
C123   C127    1.389   .     A
C123   C132    1.394   .     A
C123   H143    1.084   .     S
C124   C128    1.390   .     A
C124   H144    1.084   .     S
C124   C131    1.394   .     A
C125   C129    1.420   .     A
C125   Br155   1.924   .     S
C126   C130    1.422   .     A
C126   Br156   1.927   .     S
C127   C130    1.421   .     A
C127   Br157   1.924   .     S
C128   Br158   1.927   .     S
C128   C129    1.422   .     A
C131   C618    1.461   1_554 S
C132   C617    1.461   .     S
Cu135  O151    1.966   .     S
Cu135  O149    1.953   .     S
Cu135  O153    1.966   .     S
Cu135  N145    2.010   .     S
Cu135  O147    1.953   .     S
Cu135  Cu136   2.675   .     S
Cu136  O154    1.966   .     S
Cu136  O150    1.953   .     S
Cu136  O148    1.953   .     S
Cu136  N146    2.010   .     S
Cu136  O152    1.966   .     S
C163   C188    1.440   .     S
C163   O204    1.286   .     A
C163   O201    1.286   .     A
C164   C187    1.440   .     S
C164   O203    1.286   .     A
C164   O202    1.287   .     A
C165   O208    1.295   .     A
C165   O205    1.297   .     A
C165   C183    1.474   .     S
C166   C184    1.474   .     S
C166   O207    1.297   .     A
C166   O206    1.295   .     A
C167   N200    1.366   .     A
C167   H191    1.081   .     S
C168   N199    1.367   .     A
C168   H192    1.081   .     S
C168   C331    1.415   .     S
C169   N200    1.366   .     A
C169   H193    1.081   .     S
C170   N199    1.367   .     A
C170   H194    1.081   .     S
C170   C329    1.415   .     S
C171   Br213   1.929   .     S
C171   C188    1.403   .     A
C171   C281    1.396   1_455 S
C172   Br214   1.929   .     S
C172   C187    1.404   .     A
C172   C228    1.396   .     S
C173   Br215   1.929   .     S
C173   C187    1.404   .     A
C173   C225    1.396   .     S
C174   Br216   1.929   .     S
C174   C188    1.404   .     A
C174   C280    1.396   1_455 S
C175   H195    1.084   .     S
C175   C179    1.389   .     A
C175   C185    1.394   .     A
C176   H196    1.084   .     S
C176   C186    1.394   .     A
C176   C180    1.390   .     A
C177   C181    1.389   .     A
C177   C186    1.394   .     A
C177   H197    1.084   .     S
C178   C182    1.390   .     A
C178   H198    1.084   .     S
C178   C185    1.394   .     A
C179   C183    1.420   .     A
C179   Br209   1.924   .     S
C180   C184    1.422   .     A
C180   Br210   1.927   .     S
C181   C184    1.421   .     A
C181   Br211   1.924   .     S
C182   Br212   1.927   .     S
C182   C183    1.422   .     A
C185   C672    1.461   1_554 S
C186   C671    1.461   .     S
Cu189  O205    1.966   .     S
Cu189  O203    1.953   .     S
Cu189  O207    1.966   .     S
Cu189  N199    2.010   .     S
Cu189  O201    1.953   .     S
Cu189  Cu190   2.675   .     S
Cu190  O208    1.966   .     S
Cu190  O204    1.953   .     S
Cu190  O202    1.953   .     S
Cu190  N200    2.010   .     S
Cu190  O206    1.966   .     S
C217   C242    1.440   .     S
C217   O258    1.286   .     A
C217   O255    1.286   .     A
C218   C241    1.440   .     S
C218   O257    1.286   .     A
C218   O256    1.287   .     A
C219   O262    1.295   .     A
C219   O259    1.297   .     A
C219   C237    1.474   .     S
C220   C238    1.474   .     S
C220   O261    1.297   .     A
C220   O260    1.295   .     A
C221   N254    1.366   .     A
C221   H245    1.081   .     S
C222   N253    1.367   .     A
C222   H246    1.081   .     S
C222   C385    1.415   .     S
C223   N254    1.366   .     A
C223   H247    1.081   .     S
C224   N253    1.367   .     A
C224   H248    1.081   .     S
C224   C383    1.415   .     S
C225   Br267   1.929   .     S
C225   C242    1.403   .     A
C226   Br268   1.929   .     S
C226   C241    1.404   .     A
C226   C282    1.396   .     S
C227   Br269   1.929   .     S
C227   C241    1.404   .     A
C227   C279    1.396   .     S
C228   Br270   1.929   .     S
C228   C242    1.404   .     A
C229   H249    1.084   .     S
C229   C233    1.389   .     A
C229   C239    1.394   .     A
C230   H250    1.084   .     S
C230   C240    1.394   .     A
C230   C234    1.390   .     A
C231   C235    1.389   .     A
C231   C240    1.394   .     A
C231   H251    1.084   .     S
C232   C236    1.390   .     A
C232   H252    1.084   .     S
C232   C239    1.394   .     A
C233   C237    1.420   .     A
C233   Br263   1.924   .     S
C234   C238    1.422   .     A
C234   Br264   1.927   .     S
C235   C238    1.421   .     A
C235   Br265   1.924   .     S
C236   Br266   1.927   .     S
C236   C237    1.422   .     A
C239   C726    1.461   1_554 S
C240   C725    1.461   .     S
Cu243  O259    1.966   .     S
Cu243  O257    1.953   .     S
Cu243  O261    1.966   .     S
Cu243  N253    2.010   .     S
Cu243  O255    1.953   .     S
Cu243  Cu244   2.675   .     S
Cu244  O262    1.966   .     S
Cu244  O258    1.953   .     S
Cu244  O256    1.953   .     S
Cu244  N254    2.010   .     S
Cu244  O260    1.966   .     S
C271   C296    1.440   .     S
C271   O312    1.286   .     A
C271   O309    1.286   .     A
C272   C295    1.440   .     S
C272   O311    1.286   .     A
C272   O310    1.287   .     A
C273   O316    1.295   .     A
C273   O313    1.297   .     A
C273   C291    1.474   .     S
C274   C292    1.474   .     S
C274   O315    1.297   .     A
C274   O314    1.295   .     A
C275   N308    1.366   .     A
C275   H299    1.081   .     S
C276   N307    1.367   .     A
C276   H300    1.081   .     S
C276   C439    1.415   .     S
C277   N308    1.366   .     A
C277   H301    1.081   .     S
C278   N307    1.367   .     A
C278   H302    1.081   .     S
C278   C437    1.415   .     S
C279   Br321   1.929   .     S
C279   C296    1.403   .     A
C280   Br322   1.929   .     S
C280   C295    1.404   .     A
C280   C174    1.396   1_655 S
C281   Br323   1.929   .     S
C281   C295    1.404   .     A
C281   C171    1.396   1_655 S
C282   Br324   1.929   .     S
C282   C296    1.404   .     A
C283   H303    1.084   .     S
C283   C287    1.389   .     A
C283   C293    1.394   .     A
C284   H304    1.084   .     S
C284   C294    1.394   .     A
C284   C288    1.390   .     A
C285   C289    1.389   .     A
C285   C294    1.394   .     A
C285   H305    1.084   .     S
C286   C290    1.390   .     A
C286   H306    1.084   .     S
C286   C293    1.394   .     A
C287   C291    1.420   .     A
C287   Br317   1.924   .     S
C288   C292    1.422   .     A
C288   Br318   1.927   .     S
C289   C292    1.421   .     A
C289   Br319   1.924   .     S
C290   Br320   1.927   .     S
C290   C291    1.422   .     A
C293   C780    1.461   1_554 S
C294   C779    1.461   .     S
Cu297  O313    1.966   .     S
Cu297  O311    1.953   .     S
Cu297  O315    1.966   .     S
Cu297  N307    2.010   .     S
Cu297  O309    1.953   .     S
Cu297  Cu298   2.675   .     S
Cu298  O316    1.966   .     S
Cu298  O312    1.953   .     S
Cu298  O310    1.953   .     S
Cu298  N308    2.010   .     S
Cu298  O314    1.966   .     S
C325   C350    1.440   .     S
C325   O366    1.286   .     A
C325   O363    1.286   .     A
C326   C349    1.440   .     S
C326   O365    1.286   .     A
C326   O364    1.287   .     A
C327   O370    1.295   .     A
C327   O367    1.297   .     A
C327   C345    1.474   .     S
C328   C346    1.474   .     S
C328   O369    1.297   .     A
C328   O368    1.295   .     A
C329   N362    1.366   .     A
C329   H353    1.081   .     S
C330   N361    1.367   .     A
C330   H354    1.081   .     S
C330   C7      1.415   1_565 S
C331   N362    1.366   .     A
C331   H355    1.081   .     S
C332   N361    1.367   .     A
C332   H356    1.081   .     S
C332   C5      1.415   1_565 S
C333   Br375   1.929   .     S
C333   C350    1.403   .     A
C333   C443    1.396   1_455 S
C334   Br376   1.929   .     S
C334   C349    1.404   .     A
C334   C390    1.396   .     S
C335   Br377   1.929   .     S
C335   C349    1.404   .     A
C335   C387    1.396   .     S
C336   Br378   1.929   .     S
C336   C350    1.404   .     A
C336   C442    1.396   1_455 S
C337   H357    1.084   .     S
C337   C341    1.389   .     A
C337   C347    1.394   .     A
C338   H358    1.084   .     S
C338   C348    1.394   .     A
C338   C342    1.390   .     A
C339   C343    1.389   .     A
C339   C348    1.394   .     A
C339   H359    1.084   .     S
C340   C344    1.390   .     A
C340   H360    1.084   .     S
C340   C347    1.394   .     A
C341   C345    1.420   .     A
C341   Br371   1.924   .     S
C342   C346    1.422   .     A
C342   Br372   1.927   .     S
C343   C346    1.421   .     A
C343   Br373   1.924   .     S
C344   Br374   1.927   .     S
C344   C345    1.422   .     A
C347   C834    1.461   1_554 S
C348   C833    1.461   .     S
Cu351  O367    1.966   .     S
Cu351  O365    1.953   .     S
Cu351  O369    1.966   .     S
Cu351  N361    2.010   .     S
Cu351  O363    1.953   .     S
Cu351  Cu352   2.675   .     S
Cu352  O370    1.966   .     S
Cu352  O366    1.953   .     S
Cu352  O364    1.953   .     S
Cu352  N362    2.010   .     S
Cu352  O368    1.966   .     S
C379   C404    1.440   .     S
C379   O420    1.286   .     A
C379   O417    1.286   .     A
C380   C403    1.440   .     S
C380   O419    1.286   .     A
C380   O418    1.287   .     A
C381   O424    1.295   .     A
C381   O421    1.297   .     A
C381   C399    1.474   .     S
C382   C400    1.474   .     S
C382   O423    1.297   .     A
C382   O422    1.295   .     A
C383   N416    1.366   .     A
C383   H407    1.081   .     S
C384   N415    1.367   .     A
C384   H408    1.081   .     S
C384   C61     1.415   1_565 S
C385   N416    1.366   .     A
C385   H409    1.081   .     S
C386   N415    1.367   .     A
C386   H410    1.081   .     S
C386   C59     1.415   1_565 S
C387   Br429   1.929   .     S
C387   C404    1.403   .     A
C388   Br430   1.929   .     S
C388   C403    1.404   .     A
C388   C444    1.396   .     S
C389   Br431   1.929   .     S
C389   C403    1.404   .     A
C389   C441    1.396   .     S
C390   Br432   1.929   .     S
C390   C404    1.404   .     A
C391   H411    1.084   .     S
C391   C395    1.389   .     A
C391   C401    1.394   .     A
C392   H412    1.084   .     S
C392   C402    1.394   .     A
C392   C396    1.390   .     A
C393   C397    1.389   .     A
C393   C402    1.394   .     A
C393   H413    1.084   .     S
C394   C398    1.390   .     A
C394   H414    1.084   .     S
C394   C401    1.394   .     A
C395   C399    1.420   .     A
C395   Br425   1.924   .     S
C396   C400    1.422   .     A
C396   Br426   1.927   .     S
C397   C400    1.421   .     A
C397   Br427   1.924   .     S
C398   Br428   1.927   .     S
C398   C399    1.422   .     A
C401   C888    1.461   1_554 S
C402   C887    1.461   .     S
Cu405  O421    1.966   .     S
Cu405  O419    1.953   .     S
Cu405  O423    1.966   .     S
Cu405  N415    2.010   .     S
Cu405  O417    1.953   .     S
Cu405  Cu406   2.675   .     S
Cu406  O424    1.966   .     S
Cu406  O420    1.953   .     S
Cu406  O418    1.953   .     S
Cu406  N416    2.010   .     S
Cu406  O422    1.966   .     S
C433   C458    1.440   .     S
C433   O474    1.286   .     A
C433   O471    1.286   .     A
C434   C457    1.440   .     S
C434   O473    1.286   .     A
C434   O472    1.287   .     A
C435   O478    1.295   .     A
C435   O475    1.297   .     A
C435   C453    1.474   .     S
C436   C454    1.474   .     S
C436   O477    1.297   .     A
C436   O476    1.295   .     A
C437   N470    1.366   .     A
C437   H461    1.081   .     S
C438   N469    1.367   .     A
C438   H462    1.081   .     S
C438   C115    1.415   1_565 S
C439   N470    1.366   .     A
C439   H463    1.081   .     S
C440   N469    1.367   .     A
C440   H464    1.081   .     S
C440   C113    1.415   1_565 S
C441   Br483   1.929   .     S
C441   C458    1.403   .     A
C442   Br484   1.929   .     S
C442   C457    1.404   .     A
C442   C336    1.396   1_655 S
C443   Br485   1.929   .     S
C443   C457    1.404   .     A
C443   C333    1.396   1_655 S
C444   Br486   1.929   .     S
C444   C458    1.404   .     A
C445   H465    1.084   .     S
C445   C449    1.389   .     A
C445   C455    1.394   .     A
C446   H466    1.084   .     S
C446   C456    1.394   .     A
C446   C450    1.390   .     A
C447   C451    1.389   .     A
C447   C456    1.394   .     A
C447   H467    1.084   .     S
C448   C452    1.390   .     A
C448   H468    1.084   .     S
C448   C455    1.394   .     A
C449   C453    1.420   .     A
C449   Br479   1.924   .     S
C450   C454    1.422   .     A
C450   Br480   1.927   .     S
C451   C454    1.421   .     A
C451   Br481   1.924   .     S
C452   Br482   1.927   .     S
C452   C453    1.422   .     A
C455   C942    1.461   1_554 S
C456   C941    1.461   .     S
Cu459  O475    1.966   .     S
Cu459  O473    1.953   .     S
Cu459  O477    1.966   .     S
Cu459  N469    2.010   .     S
Cu459  O471    1.953   .     S
Cu459  Cu460   2.675   .     S
Cu460  O478    1.966   .     S
Cu460  O474    1.953   .     S
Cu460  O472    1.953   .     S
Cu460  N470    2.010   .     S
Cu460  O476    1.966   .     S
C487   C512    1.440   .     S
C487   O528    1.286   .     A
C487   O525    1.286   .     A
C488   C511    1.440   .     S
C488   O527    1.286   .     A
C488   O526    1.287   .     A
C489   O532    1.295   .     A
C489   O529    1.297   .     A
C489   C507    1.474   .     S
C490   C508    1.474   .     S
C490   O531    1.297   .     A
C490   O530    1.295   .     A
C491   N524    1.366   .     A
C491   H515    1.081   .     S
C491   C818    1.415   1_545 S
C492   N523    1.367   .     A
C492   H516    1.081   .     S
C492   C655    1.415   .     S
C493   N524    1.366   .     A
C493   H517    1.081   .     S
C493   C816    1.415   1_545 S
C494   N523    1.367   .     A
C494   H518    1.081   .     S
C494   C653    1.415   .     S
C495   Br537   1.929   .     S
C495   C512    1.403   .     A
C495   C605    1.396   1_455 S
C496   Br538   1.929   .     S
C496   C511    1.404   .     A
C496   C552    1.396   .     S
C497   Br539   1.929   .     S
C497   C511    1.404   .     A
C497   C549    1.396   .     S
C498   Br540   1.929   .     S
C498   C512    1.404   .     A
C498   C604    1.396   1_455 S
C499   H519    1.084   .     S
C499   C503    1.389   .     A
C499   C509    1.394   .     A
C500   H520    1.084   .     S
C500   C510    1.394   .     A
C500   C504    1.390   .     A
C501   C505    1.389   .     A
C501   C510    1.394   .     A
C501   H521    1.084   .     S
C502   C506    1.390   .     A
C502   H522    1.084   .     S
C502   C509    1.394   .     A
C503   C507    1.420   .     A
C503   Br533   1.924   .     S
C504   C508    1.422   .     A
C504   Br534   1.927   .     S
C505   C508    1.421   .     A
C505   Br535   1.924   .     S
C506   Br536   1.927   .     S
C506   C507    1.422   .     A
C510   C23     1.461   1_556 S
Cu513  O529    1.966   .     S
Cu513  O527    1.953   .     S
Cu513  O531    1.966   .     S
Cu513  N523    2.010   .     S
Cu513  O525    1.953   .     S
Cu513  Cu514   2.675   .     S
Cu514  O532    1.966   .     S
Cu514  O528    1.953   .     S
Cu514  O526    1.953   .     S
Cu514  N524    2.010   .     S
Cu514  O530    1.966   .     S
C541   C566    1.440   .     S
C541   O582    1.286   .     A
C541   O579    1.286   .     A
C542   C565    1.440   .     S
C542   O581    1.286   .     A
C542   O580    1.287   .     A
C543   O586    1.295   .     A
C543   O583    1.297   .     A
C543   C561    1.474   .     S
C544   C562    1.474   .     S
C544   O585    1.297   .     A
C544   O584    1.295   .     A
C545   N578    1.366   .     A
C545   H569    1.081   .     S
C545   C872    1.415   1_545 S
C546   N577    1.367   .     A
C546   H570    1.081   .     S
C546   C709    1.415   .     S
C547   N578    1.366   .     A
C547   H571    1.081   .     S
C547   C870    1.415   1_545 S
C548   N577    1.367   .     A
C548   H572    1.081   .     S
C548   C707    1.415   .     S
C549   Br591   1.929   .     S
C549   C566    1.403   .     A
C550   Br592   1.929   .     S
C550   C565    1.404   .     A
C550   C606    1.396   .     S
C551   Br593   1.929   .     S
C551   C565    1.404   .     A
C551   C603    1.396   .     S
C552   Br594   1.929   .     S
C552   C566    1.404   .     A
C553   H573    1.084   .     S
C553   C557    1.389   .     A
C553   C563    1.394   .     A
C554   H574    1.084   .     S
C554   C564    1.394   .     A
C554   C558    1.390   .     A
C555   C559    1.389   .     A
C555   C564    1.394   .     A
C555   H575    1.084   .     S
C556   C560    1.390   .     A
C556   H576    1.084   .     S
C556   C563    1.394   .     A
C557   C561    1.420   .     A
C557   Br587   1.924   .     S
C558   C562    1.422   .     A
C558   Br588   1.927   .     S
C559   C562    1.421   .     A
C559   Br589   1.924   .     S
C560   Br590   1.927   .     S
C560   C561    1.422   .     A
C564   C77     1.461   1_556 S
Cu567  O583    1.966   .     S
Cu567  O581    1.953   .     S
Cu567  O585    1.966   .     S
Cu567  N577    2.010   .     S
Cu567  O579    1.953   .     S
Cu567  Cu568   2.675   .     S
Cu568  O586    1.966   .     S
Cu568  O582    1.953   .     S
Cu568  O580    1.953   .     S
Cu568  N578    2.010   .     S
Cu568  O584    1.966   .     S
C595   C620    1.440   .     S
C595   O636    1.286   .     A
C595   O633    1.286   .     A
C596   C619    1.440   .     S
C596   O635    1.286   .     A
C596   O634    1.287   .     A
C597   O640    1.295   .     A
C597   O637    1.297   .     A
C597   C615    1.474   .     S
C598   C616    1.474   .     S
C598   O639    1.297   .     A
C598   O638    1.295   .     A
C599   N632    1.366   .     A
C599   H623    1.081   .     S
C599   C926    1.415   1_545 S
C600   N631    1.367   .     A
C600   H624    1.081   .     S
C600   C763    1.415   .     S
C601   N632    1.366   .     A
C601   H625    1.081   .     S
C601   C924    1.415   1_545 S
C602   N631    1.367   .     A
C602   H626    1.081   .     S
C602   C761    1.415   .     S
C603   Br645   1.929   .     S
C603   C620    1.403   .     A
C604   Br646   1.929   .     S
C604   C619    1.404   .     A
C604   C498    1.396   1_655 S
C605   Br647   1.929   .     S
C605   C619    1.404   .     A
C605   C495    1.396   1_655 S
C606   Br648   1.929   .     S
C606   C620    1.404   .     A
C607   H627    1.084   .     S
C607   C611    1.389   .     A
C607   C617    1.394   .     A
C608   H628    1.084   .     S
C608   C618    1.394   .     A
C608   C612    1.390   .     A
C609   C613    1.389   .     A
C609   C618    1.394   .     A
C609   H629    1.084   .     S
C610   C614    1.390   .     A
C610   H630    1.084   .     S
C610   C617    1.394   .     A
C611   C615    1.420   .     A
C611   Br641   1.924   .     S
C612   C616    1.422   .     A
C612   Br642   1.927   .     S
C613   C616    1.421   .     A
C613   Br643   1.924   .     S
C614   Br644   1.927   .     S
C614   C615    1.422   .     A
C618   C131    1.461   1_556 S
Cu621  O637    1.966   .     S
Cu621  O635    1.953   .     S
Cu621  O639    1.966   .     S
Cu621  N631    2.010   .     S
Cu621  O633    1.953   .     S
Cu621  Cu622   2.675   .     S
Cu622  O640    1.966   .     S
Cu622  O636    1.953   .     S
Cu622  O634    1.953   .     S
Cu622  N632    2.010   .     S
Cu622  O638    1.966   .     S
C649   C674    1.440   .     S
C649   O690    1.286   .     A
C649   O687    1.286   .     A
C650   C673    1.440   .     S
C650   O689    1.286   .     A
C650   O688    1.287   .     A
C651   O694    1.295   .     A
C651   O691    1.297   .     A
C651   C669    1.474   .     S
C652   C670    1.474   .     S
C652   O693    1.297   .     A
C652   O692    1.295   .     A
C653   N686    1.366   .     A
C653   H677    1.081   .     S
C654   N685    1.367   .     A
C654   H678    1.081   .     S
C654   C817    1.415   .     S
C655   N686    1.366   .     A
C655   H679    1.081   .     S
C656   N685    1.367   .     A
C656   H680    1.081   .     S
C656   C815    1.415   .     S
C657   Br699   1.929   .     S
C657   C674    1.403   .     A
C657   C767    1.396   1_455 S
C658   Br700   1.929   .     S
C658   C673    1.404   .     A
C658   C714    1.396   .     S
C659   Br701   1.929   .     S
C659   C673    1.404   .     A
C659   C711    1.396   .     S
C660   Br702   1.929   .     S
C660   C674    1.404   .     A
C660   C766    1.396   1_455 S
C661   H681    1.084   .     S
C661   C665    1.389   .     A
C661   C671    1.394   .     A
C662   H682    1.084   .     S
C662   C672    1.394   .     A
C662   C666    1.390   .     A
C663   C667    1.389   .     A
C663   C672    1.394   .     A
C663   H683    1.084   .     S
C664   C668    1.390   .     A
C664   H684    1.084   .     S
C664   C671    1.394   .     A
C665   C669    1.420   .     A
C665   Br695   1.924   .     S
C666   C670    1.422   .     A
C666   Br696   1.927   .     S
C667   C670    1.421   .     A
C667   Br697   1.924   .     S
C668   Br698   1.927   .     S
C668   C669    1.422   .     A
C672   C185    1.461   1_556 S
Cu675  O691    1.966   .     S
Cu675  O689    1.953   .     S
Cu675  O693    1.966   .     S
Cu675  N685    2.010   .     S
Cu675  O687    1.953   .     S
Cu675  Cu676   2.675   .     S
Cu676  O694    1.966   .     S
Cu676  O690    1.953   .     S
Cu676  O688    1.953   .     S
Cu676  N686    2.010   .     S
Cu676  O692    1.966   .     S
C703   C728    1.440   .     S
C703   O744    1.286   .     A
C703   O741    1.286   .     A
C704   C727    1.440   .     S
C704   O743    1.286   .     A
C704   O742    1.287   .     A
C705   O748    1.295   .     A
C705   O745    1.297   .     A
C705   C723    1.474   .     S
C706   C724    1.474   .     S
C706   O747    1.297   .     A
C706   O746    1.295   .     A
C707   N740    1.366   .     A
C707   H731    1.081   .     S
C708   N739    1.367   .     A
C708   H732    1.081   .     S
C708   C871    1.415   .     S
C709   N740    1.366   .     A
C709   H733    1.081   .     S
C710   N739    1.367   .     A
C710   H734    1.081   .     S
C710   C869    1.415   .     S
C711   Br753   1.929   .     S
C711   C728    1.403   .     A
C712   Br754   1.929   .     S
C712   C727    1.404   .     A
C712   C768    1.396   .     S
C713   Br755   1.929   .     S
C713   C727    1.404   .     A
C713   C765    1.396   .     S
C714   Br756   1.929   .     S
C714   C728    1.404   .     A
C715   H735    1.084   .     S
C715   C719    1.389   .     A
C715   C725    1.394   .     A
C716   H736    1.084   .     S
C716   C726    1.394   .     A
C716   C720    1.390   .     A
C717   C721    1.389   .     A
C717   C726    1.394   .     A
C717   H737    1.084   .     S
C718   C722    1.390   .     A
C718   H738    1.084   .     S
C718   C725    1.394   .     A
C719   C723    1.420   .     A
C719   Br749   1.924   .     S
C720   C724    1.422   .     A
C720   Br750   1.927   .     S
C721   C724    1.421   .     A
C721   Br751   1.924   .     S
C722   Br752   1.927   .     S
C722   C723    1.422   .     A
C726   C239    1.461   1_556 S
Cu729  O745    1.966   .     S
Cu729  O743    1.953   .     S
Cu729  O747    1.966   .     S
Cu729  N739    2.010   .     S
Cu729  O741    1.953   .     S
Cu729  Cu730   2.675   .     S
Cu730  O748    1.966   .     S
Cu730  O744    1.953   .     S
Cu730  O742    1.953   .     S
Cu730  N740    2.010   .     S
Cu730  O746    1.966   .     S
C757   C782    1.440   .     S
C757   O798    1.286   .     A
C757   O795    1.286   .     A
C758   C781    1.440   .     S
C758   O797    1.286   .     A
C758   O796    1.287   .     A
C759   O802    1.295   .     A
C759   O799    1.297   .     A
C759   C777    1.474   .     S
C760   C778    1.474   .     S
C760   O801    1.297   .     A
C760   O800    1.295   .     A
C761   N794    1.366   .     A
C761   H785    1.081   .     S
C762   N793    1.367   .     A
C762   H786    1.081   .     S
C762   C925    1.415   .     S
C763   N794    1.366   .     A
C763   H787    1.081   .     S
C764   N793    1.367   .     A
C764   H788    1.081   .     S
C764   C923    1.415   .     S
C765   Br807   1.929   .     S
C765   C782    1.403   .     A
C766   Br808   1.929   .     S
C766   C781    1.404   .     A
C766   C660    1.396   1_655 S
C767   Br809   1.929   .     S
C767   C781    1.404   .     A
C767   C657    1.396   1_655 S
C768   Br810   1.929   .     S
C768   C782    1.404   .     A
C769   H789    1.084   .     S
C769   C773    1.389   .     A
C769   C779    1.394   .     A
C770   H790    1.084   .     S
C770   C780    1.394   .     A
C770   C774    1.390   .     A
C771   C775    1.389   .     A
C771   C780    1.394   .     A
C771   H791    1.084   .     S
C772   C776    1.390   .     A
C772   H792    1.084   .     S
C772   C779    1.394   .     A
C773   C777    1.420   .     A
C773   Br803   1.924   .     S
C774   C778    1.422   .     A
C774   Br804   1.927   .     S
C775   C778    1.421   .     A
C775   Br805   1.924   .     S
C776   Br806   1.927   .     S
C776   C777    1.422   .     A
C780   C293    1.461   1_556 S
Cu783  O799    1.966   .     S
Cu783  O797    1.953   .     S
Cu783  O801    1.966   .     S
Cu783  N793    2.010   .     S
Cu783  O795    1.953   .     S
Cu783  Cu784   2.675   .     S
Cu784  O802    1.966   .     S
Cu784  O798    1.953   .     S
Cu784  O796    1.953   .     S
Cu784  N794    2.010   .     S
Cu784  O800    1.966   .     S
C811   C836    1.440   .     S
C811   O852    1.286   .     A
C811   O849    1.286   .     A
C812   C835    1.440   .     S
C812   O851    1.286   .     A
C812   O850    1.287   .     A
C813   O856    1.295   .     A
C813   O853    1.297   .     A
C813   C831    1.474   .     S
C814   C832    1.474   .     S
C814   O855    1.297   .     A
C814   O854    1.295   .     A
C815   N848    1.366   .     A
C815   H839    1.081   .     S
C816   N847    1.367   .     A
C816   H840    1.081   .     S
C816   C493    1.415   1_565 S
C817   N848    1.366   .     A
C817   H841    1.081   .     S
C818   N847    1.367   .     A
C818   H842    1.081   .     S
C818   C491    1.415   1_565 S
C819   Br861   1.929   .     S
C819   C836    1.403   .     A
C819   C929    1.396   1_455 S
C820   Br862   1.929   .     S
C820   C835    1.404   .     A
C820   C876    1.396   .     S
C821   Br863   1.929   .     S
C821   C835    1.404   .     A
C821   C873    1.396   .     S
C822   Br864   1.929   .     S
C822   C836    1.404   .     A
C822   C928    1.396   1_455 S
C823   H843    1.084   .     S
C823   C827    1.389   .     A
C823   C833    1.394   .     A
C824   H844    1.084   .     S
C824   C834    1.394   .     A
C824   C828    1.390   .     A
C825   C829    1.389   .     A
C825   C834    1.394   .     A
C825   H845    1.084   .     S
C826   C830    1.390   .     A
C826   H846    1.084   .     S
C826   C833    1.394   .     A
C827   C831    1.420   .     A
C827   Br857   1.924   .     S
C828   C832    1.422   .     A
C828   Br858   1.927   .     S
C829   C832    1.421   .     A
C829   Br859   1.924   .     S
C830   Br860   1.927   .     S
C830   C831    1.422   .     A
C834   C347    1.461   1_556 S
Cu837  O853    1.966   .     S
Cu837  O851    1.953   .     S
Cu837  O855    1.966   .     S
Cu837  N847    2.010   .     S
Cu837  O849    1.953   .     S
Cu837  Cu838   2.675   .     S
Cu838  O856    1.966   .     S
Cu838  O852    1.953   .     S
Cu838  O850    1.953   .     S
Cu838  N848    2.010   .     S
Cu838  O854    1.966   .     S
C865   C890    1.440   .     S
C865   O906    1.286   .     A
C865   O903    1.286   .     A
C866   C889    1.440   .     S
C866   O905    1.286   .     A
C866   O904    1.287   .     A
C867   O910    1.295   .     A
C867   O907    1.297   .     A
C867   C885    1.474   .     S
C868   C886    1.474   .     S
C868   O909    1.297   .     A
C868   O908    1.295   .     A
C869   N902    1.366   .     A
C869   H893    1.081   .     S
C870   N901    1.367   .     A
C870   H894    1.081   .     S
C870   C547    1.415   1_565 S
C871   N902    1.366   .     A
C871   H895    1.081   .     S
C872   N901    1.367   .     A
C872   H896    1.081   .     S
C872   C545    1.415   1_565 S
C873   Br915   1.929   .     S
C873   C890    1.403   .     A
C874   Br916   1.929   .     S
C874   C889    1.404   .     A
C874   C930    1.396   .     S
C875   Br917   1.929   .     S
C875   C889    1.404   .     A
C875   C927    1.396   .     S
C876   Br918   1.929   .     S
C876   C890    1.404   .     A
C877   H897    1.084   .     S
C877   C881    1.389   .     A
C877   C887    1.394   .     A
C878   H898    1.084   .     S
C878   C888    1.394   .     A
C878   C882    1.390   .     A
C879   C883    1.389   .     A
C879   C888    1.394   .     A
C879   H899    1.084   .     S
C880   C884    1.390   .     A
C880   H900    1.084   .     S
C880   C887    1.394   .     A
C881   C885    1.420   .     A
C881   Br911   1.924   .     S
C882   C886    1.422   .     A
C882   Br912   1.927   .     S
C883   C886    1.421   .     A
C883   Br913   1.924   .     S
C884   Br914   1.927   .     S
C884   C885    1.422   .     A
C888   C401    1.461   1_556 S
Cu891  O907    1.966   .     S
Cu891  O905    1.953   .     S
Cu891  O909    1.966   .     S
Cu891  N901    2.010   .     S
Cu891  O903    1.953   .     S
Cu891  Cu892   2.675   .     S
Cu892  O910    1.966   .     S
Cu892  O906    1.953   .     S
Cu892  O904    1.953   .     S
Cu892  N902    2.010   .     S
Cu892  O908    1.966   .     S
C919   C944    1.440   .     S
C919   O960    1.286   .     A
C919   O957    1.286   .     A
C920   C943    1.440   .     S
C920   O959    1.286   .     A
C920   O958    1.287   .     A
C921   O964    1.295   .     A
C921   O961    1.297   .     A
C921   C939    1.474   .     S
C922   C940    1.474   .     S
C922   O963    1.297   .     A
C922   O962    1.295   .     A
C923   N956    1.366   .     A
C923   H947    1.081   .     S
C924   N955    1.367   .     A
C924   H948    1.081   .     S
C924   C601    1.415   1_565 S
C925   N956    1.366   .     A
C925   H949    1.081   .     S
C926   N955    1.367   .     A
C926   H950    1.081   .     S
C926   C599    1.415   1_565 S
C927   Br969   1.929   .     S
C927   C944    1.403   .     A
C928   Br970   1.929   .     S
C928   C943    1.404   .     A
C928   C822    1.396   1_655 S
C929   Br971   1.929   .     S
C929   C943    1.404   .     A
C929   C819    1.396   1_655 S
C930   Br972   1.929   .     S
C930   C944    1.404   .     A
C931   H951    1.084   .     S
C931   C935    1.389   .     A
C931   C941    1.394   .     A
C932   H952    1.084   .     S
C932   C942    1.394   .     A
C932   C936    1.390   .     A
C933   C937    1.389   .     A
C933   C942    1.394   .     A
C933   H953    1.084   .     S
C934   C938    1.390   .     A
C934   H954    1.084   .     S
C934   C941    1.394   .     A
C935   C939    1.420   .     A
C935   Br965   1.924   .     S
C936   C940    1.422   .     A
C936   Br966   1.927   .     S
C937   C940    1.421   .     A
C937   Br967   1.924   .     S
C938   Br968   1.927   .     S
C938   C939    1.422   .     A
C942   C455    1.461   1_556 S
Cu945  O961    1.966   .     S
Cu945  O959    1.953   .     S
Cu945  O963    1.966   .     S
Cu945  N955    2.010   .     S
Cu945  O957    1.953   .     S
Cu945  Cu946   2.675   .     S
Cu946  O964    1.966   .     S
Cu946  O960    1.953   .     S
Cu946  O958    1.953   .     S
Cu946  N956    2.010   .     S
Cu946  O962    1.966   .     S
