data_str_m2_o1_o17_pcu_sym.167
_audit_creation_date              2020-01-03
_audit_creation_method            'Materials Studio'
_symmetry_space_group_name_H-M    'P1'
_symmetry_Int_Tables_number       1
_symmetry_cell_setting            triclinic
loop_
_symmetry_equiv_pos_as_xyz
  x,y,z
_cell_length_a                    32.4680
_cell_length_b                    29.6020
_cell_length_c                    29.7516
_cell_angle_alpha                 89.9963
_cell_angle_beta                  95.9463
_cell_angle_gamma                 89.9609
loop_
_atom_site_label
_atom_site_type_symbol
_atom_site_fract_x
_atom_site_fract_y
_atom_site_fract_z
_atom_site_U_iso_or_equiv
_atom_site_adp_type
_atom_site_occupancy
C1     C     0.08776   0.16679   0.25064   0.00000  Uiso   1.00
C2     C     0.24557   0.16678   0.24935   0.00000  Uiso   1.00
C3     C     0.09095   0.17900   0.01418   0.00000  Uiso   1.00
C4     C     0.24100   0.14664   0.48571   0.00000  Uiso   1.00
C5     C     0.02129   0.12649   0.25132   0.00000  Uiso   1.00
C6     C     0.31197   0.20834   0.25033   0.00000  Uiso   1.00
C7     C     0.31197   0.12654   0.24750   0.00000  Uiso   1.00
C8     C     0.02140   0.20834   0.25073   0.00000  Uiso   1.00
C9     C     0.29033   0.16725   0.24875   0.00000  Uiso   1.00
C10    C     0.04299   0.16724   0.25122   0.00000  Uiso   1.00
C11    C     0.14631   0.02446   0.21411   0.00000  Uiso   1.00
C12    C     0.18726   0.30845   0.28530   0.00000  Uiso   1.00
C13    C     0.18725   0.02436   0.28581   0.00000  Uiso   1.00
C14    C     0.14598   0.30849   0.21468   0.00000  Uiso   1.00
C15    C     0.16654   0.16644   0.16495   0.00000  Uiso   1.00
C16    C     0.16678   0.16657   0.33506   0.00000  Uiso   1.00
C17    C     0.20297   0.15486   0.41011   0.00000  Uiso   1.00
C18    C     0.12906   0.17163   0.08980   0.00000  Uiso   1.00
C19    C     0.16673   0.16603   0.38327   0.00000  Uiso   1.00
C20    C     0.16622   0.16509   0.11672   0.00000  Uiso   1.00
C21    C     0.13033   0.17589   0.40205   0.00000  Uiso   1.00
C22    C     0.20265   0.15522   0.09803   0.00000  Uiso   1.00
C23    C     0.12971   0.17414   0.44865   0.00000  Uiso   1.00
C24    C     0.20273   0.15420   0.05134   0.00000  Uiso   1.00
C25    C     0.16651   0.16414   0.47649   0.00000  Uiso   1.00
C26    C     0.16568   0.16293   0.02344   0.00000  Uiso   1.00
C27    C     0.20404   0.15545   0.45726   0.00000  Uiso   1.00
C28    C     0.12798   0.17070   0.04264   0.00000  Uiso   1.00
C29    C     0.09262   0.18163   0.46748   0.00000  Uiso   1.00
C30    C     0.23960   0.14557   0.03248   0.00000  Uiso   1.00
Cu31   Cu    0.16667   0.21355   0.25000   0.00000  Uiso   1.00
Cu32   Cu    0.16667   0.11978   0.25000   0.00000  Uiso   1.00
H33    H     0.22996   0.14614   0.39356   0.00000  Uiso   1.00
H34    H     0.10171   0.17867   0.10642   0.00000  Uiso   1.00
H35    H     0.10242   0.18393   0.38021   0.00000  Uiso   1.00
H36    H     0.23096   0.14914   0.11995   0.00000  Uiso   1.00
H37    H     0.06449   0.18837   0.44548   0.00000  Uiso   1.00
H38    H     0.26776   0.13918   0.05449   0.00000  Uiso   1.00
H39    H     0.03693   0.09440   0.25441   0.00000  Uiso   1.00
H40    H     0.29600   0.24043   0.25097   0.00000  Uiso   1.00
H41    H     0.29626   0.09456   0.24353   0.00000  Uiso   1.00
H42    H     0.03742   0.24044   0.25101   0.00000  Uiso   1.00
N43    N     0.16667   0.28402   0.25000   0.00000  Uiso   1.00
N44    N     0.16667   0.04931   0.25000   0.00000  Uiso   1.00
O45    O     0.10655   0.20625   0.24999   0.00000  Uiso   1.00
O46    O     0.22679   0.12709   0.25000   0.00000  Uiso   1.00
O47    O     0.22679   0.20625   0.25000   0.00000  Uiso   1.00
O48    O     0.10655   0.12709   0.24999   0.00000  Uiso   1.00
O49    O     0.16666   0.20627   0.18513   0.00000  Uiso   1.00
O50    O     0.16668   0.12707   0.31487   0.00000  Uiso   1.00
O51    O     0.16668   0.20627   0.31487   0.00000  Uiso   1.00
O52    O     0.16666   0.12707   0.18513   0.00000  Uiso   1.00
C53    C     0.04993   0.18455   0.03148   0.00000  Uiso   1.00
O54    O     0.02591   0.21344   0.01515   0.00000  Uiso   1.00
O55    O     0.03797   0.15569   0.06497   0.00000  Uiso   1.00
H56    H     0.00936   0.16293   0.07375   0.00000  Uiso   1.00
C57    C     0.28195   0.13974   0.46868   0.00000  Uiso   1.00
O58    O     0.29303   0.16395   0.43887   0.00000  Uiso   1.00
O59    O     0.30879   0.10671   0.48848   0.00000  Uiso   1.00
H60    H     0.00269   0.10555   0.47462   0.00000  Uiso   1.00
C61    C     0.12502   0.04795   0.17107   0.00000  Uiso   1.00
C62    C     0.08420   0.07272   0.17598   0.00000  Uiso   1.00
C63    C     0.04981   0.06276   0.13798   0.00000  Uiso   1.00
H64    H     0.06029   0.07139   0.10466   0.00000  Uiso   1.00
H65    H     0.04097   0.02654   0.13824   0.00000  Uiso   1.00
H66    H     0.02206   0.08340   0.14296   0.00000  Uiso   1.00
H67    H     0.07288   0.06184   0.20796   0.00000  Uiso   1.00
H68    H     0.08945   0.10958   0.17464   0.00000  Uiso   1.00
H69    H     0.14711   0.06542   0.15173   0.00000  Uiso   1.00
H70    H     0.11615   0.02509   0.14381   0.00000  Uiso   1.00
C71    C     0.21258   0.28357   0.32394   0.00000  Uiso   1.00
C72    C     0.19139   0.28265   0.36894   0.00000  Uiso   1.00
C73    C     0.22292   0.27243   0.40936   0.00000  Uiso   1.00
H74    H     0.23993   0.24079   0.40352   0.00000  Uiso   1.00
H75    H     0.24550   0.30057   0.41482   0.00000  Uiso   1.00
H76    H     0.20682   0.26835   0.44028   0.00000  Uiso   1.00
H77    H     0.17491   0.31438   0.37542   0.00000  Uiso   1.00
H78    H     0.16593   0.25829   0.36878   0.00000  Uiso   1.00
H79    H     0.22228   0.24981   0.31455   0.00000  Uiso   1.00
H80    H     0.24372   0.29930   0.32939   0.00000  Uiso   1.00
C81    C     0.20992   0.04761   0.32842   0.00000  Uiso   1.00
C82    C     0.25106   0.07099   0.32209   0.00000  Uiso   1.00
C83    C     0.28625   0.05978   0.35885   0.00000  Uiso   1.00
H84    H     0.27722   0.06889   0.39270   0.00000  Uiso   1.00
H85    H     0.29393   0.02324   0.35828   0.00000  Uiso   1.00
H86    H     0.31432   0.07935   0.35276   0.00000  Uiso   1.00
H87    H     0.26102   0.05998   0.28946   0.00000  Uiso   1.00
H88    H     0.24675   0.10795   0.32395   0.00000  Uiso   1.00
H89    H     0.18889   0.06628   0.34805   0.00000  Uiso   1.00
H90    H     0.21882   0.02486   0.35614   0.00000  Uiso   1.00
C91    C     0.11964   0.28383   0.17642   0.00000  Uiso   1.00
C92    C     0.13919   0.28305   0.13038   0.00000  Uiso   1.00
C93    C     0.10588   0.28226   0.08998   0.00000  Uiso   1.00
H94    H     0.08276   0.25552   0.09445   0.00000  Uiso   1.00
H95    H     0.08940   0.31506   0.08605   0.00000  Uiso   1.00
H96    H     0.12040   0.27548   0.05846   0.00000  Uiso   1.00
H97    H     0.16049   0.31186   0.12688   0.00000  Uiso   1.00
H98    H     0.15962   0.25418   0.12676   0.00000  Uiso   1.00
H99    H     0.11029   0.24989   0.18563   0.00000  Uiso   1.00
H100   H     0.08867   0.30019   0.17220   0.00000  Uiso   1.00
C101   C     0.42109   0.16679   0.25064   0.00000  Uiso   1.00
C102   C     0.57891   0.16678   0.24935   0.00000  Uiso   1.00
C103   C     0.42428   0.17900   0.01418   0.00000  Uiso   1.00
C104   C     0.57433   0.14664   0.48571   0.00000  Uiso   1.00
C105   C     0.35463   0.12649   0.25132   0.00000  Uiso   1.00
C106   C     0.64530   0.20834   0.25033   0.00000  Uiso   1.00
C107   C     0.64530   0.12654   0.24750   0.00000  Uiso   1.00
C108   C     0.35474   0.20834   0.25073   0.00000  Uiso   1.00
C109   C     0.62366   0.16725   0.24875   0.00000  Uiso   1.00
C110   C     0.37633   0.16724   0.25122   0.00000  Uiso   1.00
C111   C     0.47964   0.02446   0.21411   0.00000  Uiso   1.00
C112   C     0.52060   0.30845   0.28530   0.00000  Uiso   1.00
C113   C     0.52059   0.02436   0.28581   0.00000  Uiso   1.00
C114   C     0.47931   0.30849   0.21468   0.00000  Uiso   1.00
C115   C     0.49987   0.16644   0.16495   0.00000  Uiso   1.00
C116   C     0.50012   0.16657   0.33506   0.00000  Uiso   1.00
C117   C     0.53630   0.15486   0.41011   0.00000  Uiso   1.00
C118   C     0.46239   0.17163   0.08980   0.00000  Uiso   1.00
C119   C     0.50006   0.16603   0.38327   0.00000  Uiso   1.00
C120   C     0.49955   0.16509   0.11672   0.00000  Uiso   1.00
C121   C     0.46367   0.17589   0.40205   0.00000  Uiso   1.00
C122   C     0.53598   0.15522   0.09803   0.00000  Uiso   1.00
C123   C     0.46304   0.17414   0.44865   0.00000  Uiso   1.00
C124   C     0.53606   0.15420   0.05134   0.00000  Uiso   1.00
C125   C     0.49984   0.16414   0.47649   0.00000  Uiso   1.00
C126   C     0.49901   0.16293   0.02344   0.00000  Uiso   1.00
C127   C     0.53737   0.15545   0.45726   0.00000  Uiso   1.00
C128   C     0.46131   0.17070   0.04264   0.00000  Uiso   1.00
C129   C     0.42595   0.18163   0.46748   0.00000  Uiso   1.00
C130   C     0.57293   0.14557   0.03248   0.00000  Uiso   1.00
Cu131  Cu    0.50000   0.21355   0.25000   0.00000  Uiso   1.00
Cu132  Cu    0.50000   0.11978   0.25000   0.00000  Uiso   1.00
H133   H     0.56329   0.14614   0.39356   0.00000  Uiso   1.00
H134   H     0.43505   0.17867   0.10642   0.00000  Uiso   1.00
H135   H     0.43575   0.18393   0.38021   0.00000  Uiso   1.00
H136   H     0.56429   0.14914   0.11995   0.00000  Uiso   1.00
H137   H     0.39783   0.18837   0.44548   0.00000  Uiso   1.00
H138   H     0.60109   0.13918   0.05449   0.00000  Uiso   1.00
H139   H     0.37026   0.09440   0.25441   0.00000  Uiso   1.00
H140   H     0.62934   0.24043   0.25097   0.00000  Uiso   1.00
H141   H     0.62960   0.09456   0.24353   0.00000  Uiso   1.00
H142   H     0.37075   0.24044   0.25101   0.00000  Uiso   1.00
N143   N     0.50000   0.28402   0.25000   0.00000  Uiso   1.00
N144   N     0.50000   0.04931   0.25000   0.00000  Uiso   1.00
O145   O     0.43988   0.20625   0.24999   0.00000  Uiso   1.00
O146   O     0.56012   0.12709   0.25000   0.00000  Uiso   1.00
O147   O     0.56012   0.20625   0.25000   0.00000  Uiso   1.00
O148   O     0.43988   0.12709   0.24999   0.00000  Uiso   1.00
O149   O     0.49999   0.20627   0.18513   0.00000  Uiso   1.00
O150   O     0.50001   0.12707   0.31487   0.00000  Uiso   1.00
O151   O     0.50001   0.20627   0.31487   0.00000  Uiso   1.00
O152   O     0.49999   0.12707   0.18513   0.00000  Uiso   1.00
C153   C     0.38327   0.18455   0.03148   0.00000  Uiso   1.00
O154   O     0.35924   0.21344   0.01515   0.00000  Uiso   1.00
O155   O     0.37130   0.15569   0.06497   0.00000  Uiso   1.00
H156   H     0.34269   0.16293   0.07375   0.00000  Uiso   1.00
C157   C     0.61529   0.13974   0.46868   0.00000  Uiso   1.00
O158   O     0.62636   0.16395   0.43887   0.00000  Uiso   1.00
O159   O     0.64213   0.10671   0.48848   0.00000  Uiso   1.00
H160   H     0.33602   0.10555   0.47462   0.00000  Uiso   1.00
C161   C     0.45835   0.04795   0.17107   0.00000  Uiso   1.00
C162   C     0.41753   0.07272   0.17598   0.00000  Uiso   1.00
C163   C     0.38314   0.06276   0.13798   0.00000  Uiso   1.00
H164   H     0.39363   0.07139   0.10466   0.00000  Uiso   1.00
H165   H     0.37431   0.02654   0.13824   0.00000  Uiso   1.00
H166   H     0.35539   0.08340   0.14296   0.00000  Uiso   1.00
H167   H     0.40621   0.06184   0.20796   0.00000  Uiso   1.00
H168   H     0.42279   0.10958   0.17464   0.00000  Uiso   1.00
H169   H     0.48045   0.06542   0.15173   0.00000  Uiso   1.00
H170   H     0.44948   0.02509   0.14381   0.00000  Uiso   1.00
C171   C     0.54591   0.28357   0.32394   0.00000  Uiso   1.00
C172   C     0.52473   0.28265   0.36894   0.00000  Uiso   1.00
C173   C     0.55626   0.27243   0.40936   0.00000  Uiso   1.00
H174   H     0.57326   0.24079   0.40352   0.00000  Uiso   1.00
H175   H     0.57883   0.30057   0.41482   0.00000  Uiso   1.00
H176   H     0.54015   0.26835   0.44028   0.00000  Uiso   1.00
H177   H     0.50824   0.31438   0.37542   0.00000  Uiso   1.00
H178   H     0.49926   0.25829   0.36878   0.00000  Uiso   1.00
H179   H     0.55562   0.24981   0.31455   0.00000  Uiso   1.00
H180   H     0.57705   0.29930   0.32939   0.00000  Uiso   1.00
C181   C     0.54326   0.04761   0.32842   0.00000  Uiso   1.00
C182   C     0.58440   0.07099   0.32209   0.00000  Uiso   1.00
C183   C     0.61958   0.05978   0.35885   0.00000  Uiso   1.00
H184   H     0.61055   0.06889   0.39270   0.00000  Uiso   1.00
H185   H     0.62727   0.02324   0.35828   0.00000  Uiso   1.00
H186   H     0.64765   0.07935   0.35276   0.00000  Uiso   1.00
H187   H     0.59436   0.05998   0.28946   0.00000  Uiso   1.00
H188   H     0.58008   0.10795   0.32395   0.00000  Uiso   1.00
H189   H     0.52222   0.06628   0.34805   0.00000  Uiso   1.00
H190   H     0.55215   0.02486   0.35614   0.00000  Uiso   1.00
C191   C     0.45297   0.28383   0.17642   0.00000  Uiso   1.00
C192   C     0.47252   0.28305   0.13038   0.00000  Uiso   1.00
C193   C     0.43921   0.28226   0.08998   0.00000  Uiso   1.00
H194   H     0.41610   0.25552   0.09445   0.00000  Uiso   1.00
H195   H     0.42273   0.31506   0.08605   0.00000  Uiso   1.00
H196   H     0.45374   0.27548   0.05846   0.00000  Uiso   1.00
H197   H     0.49382   0.31186   0.12688   0.00000  Uiso   1.00
H198   H     0.49296   0.25418   0.12676   0.00000  Uiso   1.00
H199   H     0.44362   0.24989   0.18563   0.00000  Uiso   1.00
H200   H     0.42200   0.30019   0.17220   0.00000  Uiso   1.00
C201   C     0.75442   0.16679   0.25064   0.00000  Uiso   1.00
C202   C     0.91224   0.16678   0.24935   0.00000  Uiso   1.00
C203   C     0.75761   0.17900   0.01418   0.00000  Uiso   1.00
C204   C     0.90767   0.14664   0.48571   0.00000  Uiso   1.00
C205   C     0.68796   0.12649   0.25132   0.00000  Uiso   1.00
C206   C     0.97864   0.20834   0.25033   0.00000  Uiso   1.00
C207   C     0.97863   0.12654   0.24750   0.00000  Uiso   1.00
C208   C     0.68807   0.20834   0.25073   0.00000  Uiso   1.00
C209   C     0.95699   0.16725   0.24875   0.00000  Uiso   1.00
C210   C     0.70966   0.16724   0.25122   0.00000  Uiso   1.00
C211   C     0.81298   0.02446   0.21411   0.00000  Uiso   1.00
C212   C     0.85393   0.30845   0.28530   0.00000  Uiso   1.00
C213   C     0.85392   0.02436   0.28581   0.00000  Uiso   1.00
C214   C     0.81264   0.30849   0.21468   0.00000  Uiso   1.00
C215   C     0.83320   0.16644   0.16495   0.00000  Uiso   1.00
C216   C     0.83345   0.16657   0.33506   0.00000  Uiso   1.00
C217   C     0.86963   0.15486   0.41011   0.00000  Uiso   1.00
C218   C     0.79573   0.17163   0.08980   0.00000  Uiso   1.00
C219   C     0.83339   0.16603   0.38327   0.00000  Uiso   1.00
C220   C     0.83289   0.16509   0.11672   0.00000  Uiso   1.00
C221   C     0.79700   0.17589   0.40205   0.00000  Uiso   1.00
C222   C     0.86932   0.15522   0.09803   0.00000  Uiso   1.00
C223   C     0.79638   0.17414   0.44865   0.00000  Uiso   1.00
C224   C     0.86939   0.15420   0.05134   0.00000  Uiso   1.00
C225   C     0.83317   0.16414   0.47649   0.00000  Uiso   1.00
C226   C     0.83235   0.16293   0.02344   0.00000  Uiso   1.00
C227   C     0.87070   0.15545   0.45726   0.00000  Uiso   1.00
C228   C     0.79464   0.17070   0.04264   0.00000  Uiso   1.00
C229   C     0.75928   0.18163   0.46748   0.00000  Uiso   1.00
C230   C     0.90626   0.14557   0.03248   0.00000  Uiso   1.00
Cu231  Cu    0.83333   0.21355   0.25000   0.00000  Uiso   1.00
Cu232  Cu    0.83333   0.11978   0.25000   0.00000  Uiso   1.00
H233   H     0.89662   0.14614   0.39356   0.00000  Uiso   1.00
H234   H     0.76838   0.17867   0.10642   0.00000  Uiso   1.00
H235   H     0.76909   0.18393   0.38021   0.00000  Uiso   1.00
H236   H     0.89763   0.14914   0.11995   0.00000  Uiso   1.00
H237   H     0.73116   0.18837   0.44548   0.00000  Uiso   1.00
H238   H     0.93443   0.13918   0.05449   0.00000  Uiso   1.00
H239   H     0.70359   0.09440   0.25441   0.00000  Uiso   1.00
H240   H     0.96267   0.24043   0.25097   0.00000  Uiso   1.00
H241   H     0.96293   0.09456   0.24353   0.00000  Uiso   1.00
H242   H     0.70408   0.24044   0.25101   0.00000  Uiso   1.00
N243   N     0.83333   0.28402   0.25000   0.00000  Uiso   1.00
N244   N     0.83333   0.04931   0.25000   0.00000  Uiso   1.00
O245   O     0.77321   0.20625   0.24999   0.00000  Uiso   1.00
O246   O     0.89345   0.12709   0.25000   0.00000  Uiso   1.00
O247   O     0.89345   0.20625   0.25000   0.00000  Uiso   1.00
O248   O     0.77321   0.12709   0.24999   0.00000  Uiso   1.00
O249   O     0.83332   0.20627   0.18513   0.00000  Uiso   1.00
O250   O     0.83334   0.12707   0.31487   0.00000  Uiso   1.00
O251   O     0.83334   0.20627   0.31487   0.00000  Uiso   1.00
O252   O     0.83332   0.12707   0.18513   0.00000  Uiso   1.00
C253   C     0.71660   0.18455   0.03148   0.00000  Uiso   1.00
O254   O     0.69257   0.21344   0.01515   0.00000  Uiso   1.00
O255   O     0.70464   0.15569   0.06497   0.00000  Uiso   1.00
H256   H     0.67602   0.16293   0.07375   0.00000  Uiso   1.00
C257   C     0.94862   0.13974   0.46868   0.00000  Uiso   1.00
O258   O     0.95970   0.16395   0.43887   0.00000  Uiso   1.00
O259   O     0.97546   0.10671   0.48848   0.00000  Uiso   1.00
H260   H     0.66935   0.10555   0.47462   0.00000  Uiso   1.00
C261   C     0.79169   0.04795   0.17107   0.00000  Uiso   1.00
C262   C     0.75087   0.07272   0.17598   0.00000  Uiso   1.00
C263   C     0.71647   0.06276   0.13798   0.00000  Uiso   1.00
H264   H     0.72696   0.07139   0.10466   0.00000  Uiso   1.00
H265   H     0.70764   0.02654   0.13824   0.00000  Uiso   1.00
H266   H     0.68872   0.08340   0.14296   0.00000  Uiso   1.00
H267   H     0.73954   0.06184   0.20796   0.00000  Uiso   1.00
H268   H     0.75612   0.10958   0.17464   0.00000  Uiso   1.00
H269   H     0.81378   0.06542   0.15173   0.00000  Uiso   1.00
H270   H     0.78281   0.02509   0.14381   0.00000  Uiso   1.00
C271   C     0.87925   0.28357   0.32394   0.00000  Uiso   1.00
C272   C     0.85806   0.28265   0.36894   0.00000  Uiso   1.00
C273   C     0.88959   0.27243   0.40936   0.00000  Uiso   1.00
H274   H     0.90659   0.24079   0.40352   0.00000  Uiso   1.00
H275   H     0.91216   0.30057   0.41482   0.00000  Uiso   1.00
H276   H     0.87348   0.26835   0.44028   0.00000  Uiso   1.00
H277   H     0.84157   0.31438   0.37542   0.00000  Uiso   1.00
H278   H     0.83260   0.25829   0.36878   0.00000  Uiso   1.00
H279   H     0.88895   0.24981   0.31455   0.00000  Uiso   1.00
H280   H     0.91038   0.29930   0.32939   0.00000  Uiso   1.00
C281   C     0.87659   0.04761   0.32842   0.00000  Uiso   1.00
C282   C     0.91773   0.07099   0.32209   0.00000  Uiso   1.00
C283   C     0.95292   0.05978   0.35885   0.00000  Uiso   1.00
H284   H     0.94388   0.06889   0.39270   0.00000  Uiso   1.00
H285   H     0.96060   0.02324   0.35828   0.00000  Uiso   1.00
H286   H     0.98099   0.07935   0.35276   0.00000  Uiso   1.00
H287   H     0.92769   0.05998   0.28946   0.00000  Uiso   1.00
H288   H     0.91342   0.10795   0.32395   0.00000  Uiso   1.00
H289   H     0.85556   0.06628   0.34805   0.00000  Uiso   1.00
H290   H     0.88548   0.02486   0.35614   0.00000  Uiso   1.00
C291   C     0.78630   0.28383   0.17642   0.00000  Uiso   1.00
C292   C     0.80586   0.28305   0.13038   0.00000  Uiso   1.00
C293   C     0.77255   0.28226   0.08998   0.00000  Uiso   1.00
H294   H     0.74943   0.25552   0.09445   0.00000  Uiso   1.00
H295   H     0.75606   0.31506   0.08605   0.00000  Uiso   1.00
H296   H     0.78707   0.27548   0.05846   0.00000  Uiso   1.00
H297   H     0.82716   0.31186   0.12688   0.00000  Uiso   1.00
H298   H     0.82629   0.25418   0.12676   0.00000  Uiso   1.00
H299   H     0.77695   0.24989   0.18563   0.00000  Uiso   1.00
H300   H     0.75533   0.30019   0.17220   0.00000  Uiso   1.00
C301   C     0.08776   0.50012   0.25064   0.00000  Uiso   1.00
C302   C     0.24557   0.50011   0.24935   0.00000  Uiso   1.00
C303   C     0.09095   0.51234   0.01418   0.00000  Uiso   1.00
C304   C     0.24100   0.47997   0.48571   0.00000  Uiso   1.00
C305   C     0.02129   0.45982   0.25132   0.00000  Uiso   1.00
C306   C     0.31197   0.54167   0.25033   0.00000  Uiso   1.00
C307   C     0.31197   0.45987   0.24750   0.00000  Uiso   1.00
C308   C     0.02140   0.54168   0.25073   0.00000  Uiso   1.00
C309   C     0.29033   0.50058   0.24875   0.00000  Uiso   1.00
C310   C     0.04299   0.50057   0.25122   0.00000  Uiso   1.00
C311   C     0.14631   0.35779   0.21411   0.00000  Uiso   1.00
C312   C     0.18726   0.64178   0.28530   0.00000  Uiso   1.00
C313   C     0.18725   0.35770   0.28581   0.00000  Uiso   1.00
C314   C     0.14598   0.64183   0.21468   0.00000  Uiso   1.00
C315   C     0.16654   0.49978   0.16495   0.00000  Uiso   1.00
C316   C     0.16678   0.49990   0.33506   0.00000  Uiso   1.00
C317   C     0.20297   0.48819   0.41011   0.00000  Uiso   1.00
C318   C     0.12906   0.50496   0.08980   0.00000  Uiso   1.00
C319   C     0.16673   0.49936   0.38327   0.00000  Uiso   1.00
C320   C     0.16622   0.49842   0.11672   0.00000  Uiso   1.00
C321   C     0.13033   0.50922   0.40205   0.00000  Uiso   1.00
C322   C     0.20265   0.48855   0.09803   0.00000  Uiso   1.00
C323   C     0.12971   0.50748   0.44865   0.00000  Uiso   1.00
C324   C     0.20273   0.48753   0.05134   0.00000  Uiso   1.00
C325   C     0.16651   0.49747   0.47649   0.00000  Uiso   1.00
C326   C     0.16568   0.49627   0.02344   0.00000  Uiso   1.00
C327   C     0.20404   0.48878   0.45726   0.00000  Uiso   1.00
C328   C     0.12798   0.50403   0.04264   0.00000  Uiso   1.00
C329   C     0.09262   0.51497   0.46748   0.00000  Uiso   1.00
C330   C     0.23960   0.47891   0.03248   0.00000  Uiso   1.00
Cu331  Cu    0.16667   0.54689   0.25000   0.00000  Uiso   1.00
Cu332  Cu    0.16667   0.45311   0.25000   0.00000  Uiso   1.00
H333   H     0.22996   0.47947   0.39356   0.00000  Uiso   1.00
H334   H     0.10171   0.51200   0.10642   0.00000  Uiso   1.00
H335   H     0.10242   0.51726   0.38021   0.00000  Uiso   1.00
H336   H     0.23096   0.48247   0.11995   0.00000  Uiso   1.00
H337   H     0.06449   0.52170   0.44548   0.00000  Uiso   1.00
H338   H     0.26776   0.47251   0.05449   0.00000  Uiso   1.00
H339   H     0.03693   0.42774   0.25441   0.00000  Uiso   1.00
H340   H     0.29600   0.57377   0.25097   0.00000  Uiso   1.00
H341   H     0.29626   0.42789   0.24353   0.00000  Uiso   1.00
H342   H     0.03742   0.57378   0.25101   0.00000  Uiso   1.00
N343   N     0.16667   0.61736   0.25000   0.00000  Uiso   1.00
N344   N     0.16667   0.38264   0.25000   0.00000  Uiso   1.00
O345   O     0.10655   0.53958   0.24999   0.00000  Uiso   1.00
O346   O     0.22679   0.46042   0.25000   0.00000  Uiso   1.00
O347   O     0.22679   0.53958   0.25000   0.00000  Uiso   1.00
O348   O     0.10655   0.46042   0.24999   0.00000  Uiso   1.00
O349   O     0.16666   0.53960   0.18513   0.00000  Uiso   1.00
O350   O     0.16668   0.46040   0.31487   0.00000  Uiso   1.00
O351   O     0.16668   0.53960   0.31487   0.00000  Uiso   1.00
O352   O     0.16666   0.46040   0.18513   0.00000  Uiso   1.00
C353   C     0.04993   0.51789   0.03148   0.00000  Uiso   1.00
O354   O     0.02591   0.54678   0.01515   0.00000  Uiso   1.00
O355   O     0.03797   0.48902   0.06497   0.00000  Uiso   1.00
H356   H     0.00936   0.49627   0.07375   0.00000  Uiso   1.00
C357   C     0.28195   0.47307   0.46868   0.00000  Uiso   1.00
O358   O     0.29303   0.49728   0.43887   0.00000  Uiso   1.00
O359   O     0.30879   0.44005   0.48848   0.00000  Uiso   1.00
H360   H     0.00269   0.43889   0.47462   0.00000  Uiso   1.00
C361   C     0.12502   0.38128   0.17107   0.00000  Uiso   1.00
C362   C     0.08420   0.40606   0.17598   0.00000  Uiso   1.00
C363   C     0.04981   0.39609   0.13798   0.00000  Uiso   1.00
H364   H     0.06029   0.40472   0.10466   0.00000  Uiso   1.00
H365   H     0.04097   0.35987   0.13824   0.00000  Uiso   1.00
H366   H     0.02206   0.41673   0.14296   0.00000  Uiso   1.00
H367   H     0.07288   0.39517   0.20796   0.00000  Uiso   1.00
H368   H     0.08945   0.44291   0.17464   0.00000  Uiso   1.00
H369   H     0.14711   0.39876   0.15173   0.00000  Uiso   1.00
H370   H     0.11615   0.35843   0.14381   0.00000  Uiso   1.00
C371   C     0.21258   0.61690   0.32394   0.00000  Uiso   1.00
C372   C     0.19139   0.61598   0.36894   0.00000  Uiso   1.00
C373   C     0.22292   0.60577   0.40936   0.00000  Uiso   1.00
H374   H     0.23993   0.57413   0.40352   0.00000  Uiso   1.00
H375   H     0.24550   0.63390   0.41482   0.00000  Uiso   1.00
H376   H     0.20682   0.60168   0.44028   0.00000  Uiso   1.00
H377   H     0.17491   0.64771   0.37542   0.00000  Uiso   1.00
H378   H     0.16593   0.59162   0.36878   0.00000  Uiso   1.00
H379   H     0.22228   0.58314   0.31455   0.00000  Uiso   1.00
H380   H     0.24372   0.63263   0.32939   0.00000  Uiso   1.00
C381   C     0.20992   0.38094   0.32842   0.00000  Uiso   1.00
C382   C     0.25106   0.40432   0.32209   0.00000  Uiso   1.00
C383   C     0.28625   0.39311   0.35885   0.00000  Uiso   1.00
H384   H     0.27722   0.40223   0.39270   0.00000  Uiso   1.00
H385   H     0.29393   0.35658   0.35828   0.00000  Uiso   1.00
H386   H     0.31432   0.41268   0.35276   0.00000  Uiso   1.00
H387   H     0.26102   0.39332   0.28946   0.00000  Uiso   1.00
H388   H     0.24675   0.44129   0.32395   0.00000  Uiso   1.00
H389   H     0.18889   0.39961   0.34805   0.00000  Uiso   1.00
H390   H     0.21882   0.35819   0.35614   0.00000  Uiso   1.00
C391   C     0.11964   0.61716   0.17642   0.00000  Uiso   1.00
C392   C     0.13919   0.61639   0.13038   0.00000  Uiso   1.00
C393   C     0.10588   0.61560   0.08998   0.00000  Uiso   1.00
H394   H     0.08276   0.58886   0.09445   0.00000  Uiso   1.00
H395   H     0.08940   0.64839   0.08605   0.00000  Uiso   1.00
H396   H     0.12040   0.60882   0.05846   0.00000  Uiso   1.00
H397   H     0.16049   0.64519   0.12688   0.00000  Uiso   1.00
H398   H     0.15962   0.58751   0.12676   0.00000  Uiso   1.00
H399   H     0.11029   0.58322   0.18563   0.00000  Uiso   1.00
H400   H     0.08867   0.63352   0.17220   0.00000  Uiso   1.00
C401   C     0.42109   0.50012   0.25064   0.00000  Uiso   1.00
C402   C     0.57891   0.50011   0.24935   0.00000  Uiso   1.00
C403   C     0.42428   0.51234   0.01418   0.00000  Uiso   1.00
C404   C     0.57433   0.47997   0.48571   0.00000  Uiso   1.00
C405   C     0.35463   0.45982   0.25132   0.00000  Uiso   1.00
C406   C     0.64530   0.54167   0.25033   0.00000  Uiso   1.00
C407   C     0.64530   0.45987   0.24750   0.00000  Uiso   1.00
C408   C     0.35474   0.54168   0.25073   0.00000  Uiso   1.00
C409   C     0.62366   0.50058   0.24875   0.00000  Uiso   1.00
C410   C     0.37633   0.50057   0.25122   0.00000  Uiso   1.00
C411   C     0.47964   0.35779   0.21411   0.00000  Uiso   1.00
C412   C     0.52060   0.64178   0.28530   0.00000  Uiso   1.00
C413   C     0.52059   0.35770   0.28581   0.00000  Uiso   1.00
C414   C     0.47931   0.64183   0.21468   0.00000  Uiso   1.00
C415   C     0.49987   0.49978   0.16495   0.00000  Uiso   1.00
C416   C     0.50012   0.49990   0.33506   0.00000  Uiso   1.00
C417   C     0.53630   0.48819   0.41011   0.00000  Uiso   1.00
C418   C     0.46239   0.50496   0.08980   0.00000  Uiso   1.00
C419   C     0.50006   0.49936   0.38327   0.00000  Uiso   1.00
C420   C     0.49955   0.49842   0.11672   0.00000  Uiso   1.00
C421   C     0.46367   0.50922   0.40205   0.00000  Uiso   1.00
C422   C     0.53598   0.48855   0.09803   0.00000  Uiso   1.00
C423   C     0.46304   0.50748   0.44865   0.00000  Uiso   1.00
C424   C     0.53606   0.48753   0.05134   0.00000  Uiso   1.00
C425   C     0.49984   0.49747   0.47649   0.00000  Uiso   1.00
C426   C     0.49901   0.49627   0.02344   0.00000  Uiso   1.00
C427   C     0.53737   0.48878   0.45726   0.00000  Uiso   1.00
C428   C     0.46131   0.50403   0.04264   0.00000  Uiso   1.00
C429   C     0.42595   0.51497   0.46748   0.00000  Uiso   1.00
C430   C     0.57293   0.47891   0.03248   0.00000  Uiso   1.00
Cu431  Cu    0.50000   0.54689   0.25000   0.00000  Uiso   1.00
Cu432  Cu    0.50000   0.45311   0.25000   0.00000  Uiso   1.00
H433   H     0.56329   0.47947   0.39356   0.00000  Uiso   1.00
H434   H     0.43505   0.51200   0.10642   0.00000  Uiso   1.00
H435   H     0.43575   0.51726   0.38021   0.00000  Uiso   1.00
H436   H     0.56429   0.48247   0.11995   0.00000  Uiso   1.00
H437   H     0.39783   0.52170   0.44548   0.00000  Uiso   1.00
H438   H     0.60109   0.47251   0.05449   0.00000  Uiso   1.00
H439   H     0.37026   0.42774   0.25441   0.00000  Uiso   1.00
H440   H     0.62934   0.57377   0.25097   0.00000  Uiso   1.00
H441   H     0.62960   0.42789   0.24353   0.00000  Uiso   1.00
H442   H     0.37075   0.57378   0.25101   0.00000  Uiso   1.00
N443   N     0.50000   0.61736   0.25000   0.00000  Uiso   1.00
N444   N     0.50000   0.38264   0.25000   0.00000  Uiso   1.00
O445   O     0.43988   0.53958   0.24999   0.00000  Uiso   1.00
O446   O     0.56012   0.46042   0.25000   0.00000  Uiso   1.00
O447   O     0.56012   0.53958   0.25000   0.00000  Uiso   1.00
O448   O     0.43988   0.46042   0.24999   0.00000  Uiso   1.00
O449   O     0.49999   0.53960   0.18513   0.00000  Uiso   1.00
O450   O     0.50001   0.46040   0.31487   0.00000  Uiso   1.00
O451   O     0.50001   0.53960   0.31487   0.00000  Uiso   1.00
O452   O     0.49999   0.46040   0.18513   0.00000  Uiso   1.00
C453   C     0.38327   0.51789   0.03148   0.00000  Uiso   1.00
O454   O     0.35924   0.54678   0.01515   0.00000  Uiso   1.00
O455   O     0.37130   0.48902   0.06497   0.00000  Uiso   1.00
H456   H     0.34269   0.49627   0.07375   0.00000  Uiso   1.00
C457   C     0.61529   0.47307   0.46868   0.00000  Uiso   1.00
O458   O     0.62636   0.49728   0.43887   0.00000  Uiso   1.00
O459   O     0.64213   0.44005   0.48848   0.00000  Uiso   1.00
H460   H     0.33602   0.43889   0.47462   0.00000  Uiso   1.00
C461   C     0.45835   0.38128   0.17107   0.00000  Uiso   1.00
C462   C     0.41753   0.40606   0.17598   0.00000  Uiso   1.00
C463   C     0.38314   0.39609   0.13798   0.00000  Uiso   1.00
H464   H     0.39363   0.40472   0.10466   0.00000  Uiso   1.00
H465   H     0.37431   0.35987   0.13824   0.00000  Uiso   1.00
H466   H     0.35539   0.41673   0.14296   0.00000  Uiso   1.00
H467   H     0.40621   0.39517   0.20796   0.00000  Uiso   1.00
H468   H     0.42279   0.44291   0.17464   0.00000  Uiso   1.00
H469   H     0.48045   0.39876   0.15173   0.00000  Uiso   1.00
H470   H     0.44948   0.35843   0.14381   0.00000  Uiso   1.00
C471   C     0.54591   0.61690   0.32394   0.00000  Uiso   1.00
C472   C     0.52473   0.61598   0.36894   0.00000  Uiso   1.00
C473   C     0.55626   0.60577   0.40936   0.00000  Uiso   1.00
H474   H     0.57326   0.57413   0.40352   0.00000  Uiso   1.00
H475   H     0.57883   0.63390   0.41482   0.00000  Uiso   1.00
H476   H     0.54015   0.60168   0.44028   0.00000  Uiso   1.00
H477   H     0.50824   0.64771   0.37542   0.00000  Uiso   1.00
H478   H     0.49926   0.59162   0.36878   0.00000  Uiso   1.00
H479   H     0.55562   0.58314   0.31455   0.00000  Uiso   1.00
H480   H     0.57705   0.63263   0.32939   0.00000  Uiso   1.00
C481   C     0.54326   0.38094   0.32842   0.00000  Uiso   1.00
C482   C     0.58440   0.40432   0.32209   0.00000  Uiso   1.00
C483   C     0.61958   0.39311   0.35885   0.00000  Uiso   1.00
H484   H     0.61055   0.40223   0.39270   0.00000  Uiso   1.00
H485   H     0.62727   0.35658   0.35828   0.00000  Uiso   1.00
H486   H     0.64765   0.41268   0.35276   0.00000  Uiso   1.00
H487   H     0.59436   0.39332   0.28946   0.00000  Uiso   1.00
H488   H     0.58008   0.44129   0.32395   0.00000  Uiso   1.00
H489   H     0.52222   0.39961   0.34805   0.00000  Uiso   1.00
H490   H     0.55215   0.35819   0.35614   0.00000  Uiso   1.00
C491   C     0.45297   0.61716   0.17642   0.00000  Uiso   1.00
C492   C     0.47252   0.61639   0.13038   0.00000  Uiso   1.00
C493   C     0.43921   0.61560   0.08998   0.00000  Uiso   1.00
H494   H     0.41610   0.58886   0.09445   0.00000  Uiso   1.00
H495   H     0.42273   0.64839   0.08605   0.00000  Uiso   1.00
H496   H     0.45374   0.60882   0.05846   0.00000  Uiso   1.00
H497   H     0.49382   0.64519   0.12688   0.00000  Uiso   1.00
H498   H     0.49296   0.58751   0.12676   0.00000  Uiso   1.00
H499   H     0.44362   0.58322   0.18563   0.00000  Uiso   1.00
H500   H     0.42200   0.63352   0.17220   0.00000  Uiso   1.00
C501   C     0.75442   0.50012   0.25064   0.00000  Uiso   1.00
C502   C     0.91224   0.50011   0.24935   0.00000  Uiso   1.00
C503   C     0.75761   0.51234   0.01418   0.00000  Uiso   1.00
C504   C     0.90767   0.47997   0.48571   0.00000  Uiso   1.00
C505   C     0.68796   0.45982   0.25132   0.00000  Uiso   1.00
C506   C     0.97864   0.54167   0.25033   0.00000  Uiso   1.00
C507   C     0.97863   0.45987   0.24750   0.00000  Uiso   1.00
C508   C     0.68807   0.54168   0.25073   0.00000  Uiso   1.00
C509   C     0.95699   0.50058   0.24875   0.00000  Uiso   1.00
C510   C     0.70966   0.50057   0.25122   0.00000  Uiso   1.00
C511   C     0.81298   0.35779   0.21411   0.00000  Uiso   1.00
C512   C     0.85393   0.64178   0.28530   0.00000  Uiso   1.00
C513   C     0.85392   0.35770   0.28581   0.00000  Uiso   1.00
C514   C     0.81264   0.64183   0.21468   0.00000  Uiso   1.00
C515   C     0.83320   0.49978   0.16495   0.00000  Uiso   1.00
C516   C     0.83345   0.49990   0.33506   0.00000  Uiso   1.00
C517   C     0.86963   0.48819   0.41011   0.00000  Uiso   1.00
C518   C     0.79573   0.50496   0.08980   0.00000  Uiso   1.00
C519   C     0.83339   0.49936   0.38327   0.00000  Uiso   1.00
C520   C     0.83289   0.49842   0.11672   0.00000  Uiso   1.00
C521   C     0.79700   0.50922   0.40205   0.00000  Uiso   1.00
C522   C     0.86932   0.48855   0.09803   0.00000  Uiso   1.00
C523   C     0.79638   0.50748   0.44865   0.00000  Uiso   1.00
C524   C     0.86939   0.48753   0.05134   0.00000  Uiso   1.00
C525   C     0.83317   0.49747   0.47649   0.00000  Uiso   1.00
C526   C     0.83235   0.49627   0.02344   0.00000  Uiso   1.00
C527   C     0.87070   0.48878   0.45726   0.00000  Uiso   1.00
C528   C     0.79464   0.50403   0.04264   0.00000  Uiso   1.00
C529   C     0.75928   0.51497   0.46748   0.00000  Uiso   1.00
C530   C     0.90626   0.47891   0.03248   0.00000  Uiso   1.00
Cu531  Cu    0.83333   0.54689   0.25000   0.00000  Uiso   1.00
Cu532  Cu    0.83333   0.45311   0.25000   0.00000  Uiso   1.00
H533   H     0.89662   0.47947   0.39356   0.00000  Uiso   1.00
H534   H     0.76838   0.51200   0.10642   0.00000  Uiso   1.00
H535   H     0.76909   0.51726   0.38021   0.00000  Uiso   1.00
H536   H     0.89763   0.48247   0.11995   0.00000  Uiso   1.00
H537   H     0.73116   0.52170   0.44548   0.00000  Uiso   1.00
H538   H     0.93443   0.47251   0.05449   0.00000  Uiso   1.00
H539   H     0.70359   0.42774   0.25441   0.00000  Uiso   1.00
H540   H     0.96267   0.57377   0.25097   0.00000  Uiso   1.00
H541   H     0.96293   0.42789   0.24353   0.00000  Uiso   1.00
H542   H     0.70408   0.57378   0.25101   0.00000  Uiso   1.00
N543   N     0.83333   0.61736   0.25000   0.00000  Uiso   1.00
N544   N     0.83333   0.38264   0.25000   0.00000  Uiso   1.00
O545   O     0.77321   0.53958   0.24999   0.00000  Uiso   1.00
O546   O     0.89345   0.46042   0.25000   0.00000  Uiso   1.00
O547   O     0.89345   0.53958   0.25000   0.00000  Uiso   1.00
O548   O     0.77321   0.46042   0.24999   0.00000  Uiso   1.00
O549   O     0.83332   0.53960   0.18513   0.00000  Uiso   1.00
O550   O     0.83334   0.46040   0.31487   0.00000  Uiso   1.00
O551   O     0.83334   0.53960   0.31487   0.00000  Uiso   1.00
O552   O     0.83332   0.46040   0.18513   0.00000  Uiso   1.00
C553   C     0.71660   0.51789   0.03148   0.00000  Uiso   1.00
O554   O     0.69257   0.54678   0.01515   0.00000  Uiso   1.00
O555   O     0.70464   0.48902   0.06497   0.00000  Uiso   1.00
H556   H     0.67602   0.49627   0.07375   0.00000  Uiso   1.00
C557   C     0.94862   0.47307   0.46868   0.00000  Uiso   1.00
O558   O     0.95970   0.49728   0.43887   0.00000  Uiso   1.00
O559   O     0.97546   0.44005   0.48848   0.00000  Uiso   1.00
H560   H     0.66935   0.43889   0.47462   0.00000  Uiso   1.00
C561   C     0.79169   0.38128   0.17107   0.00000  Uiso   1.00
C562   C     0.75087   0.40606   0.17598   0.00000  Uiso   1.00
C563   C     0.71647   0.39609   0.13798   0.00000  Uiso   1.00
H564   H     0.72696   0.40472   0.10466   0.00000  Uiso   1.00
H565   H     0.70764   0.35987   0.13824   0.00000  Uiso   1.00
H566   H     0.68872   0.41673   0.14296   0.00000  Uiso   1.00
H567   H     0.73954   0.39517   0.20796   0.00000  Uiso   1.00
H568   H     0.75612   0.44291   0.17464   0.00000  Uiso   1.00
H569   H     0.81378   0.39876   0.15173   0.00000  Uiso   1.00
H570   H     0.78281   0.35843   0.14381   0.00000  Uiso   1.00
C571   C     0.87925   0.61690   0.32394   0.00000  Uiso   1.00
C572   C     0.85806   0.61598   0.36894   0.00000  Uiso   1.00
C573   C     0.88959   0.60577   0.40936   0.00000  Uiso   1.00
H574   H     0.90659   0.57413   0.40352   0.00000  Uiso   1.00
H575   H     0.91216   0.63390   0.41482   0.00000  Uiso   1.00
H576   H     0.87348   0.60168   0.44028   0.00000  Uiso   1.00
H577   H     0.84157   0.64771   0.37542   0.00000  Uiso   1.00
H578   H     0.83260   0.59162   0.36878   0.00000  Uiso   1.00
H579   H     0.88895   0.58314   0.31455   0.00000  Uiso   1.00
H580   H     0.91038   0.63263   0.32939   0.00000  Uiso   1.00
C581   C     0.87659   0.38094   0.32842   0.00000  Uiso   1.00
C582   C     0.91773   0.40432   0.32209   0.00000  Uiso   1.00
C583   C     0.95292   0.39311   0.35885   0.00000  Uiso   1.00
H584   H     0.94388   0.40223   0.39270   0.00000  Uiso   1.00
H585   H     0.96060   0.35658   0.35828   0.00000  Uiso   1.00
H586   H     0.98099   0.41268   0.35276   0.00000  Uiso   1.00
H587   H     0.92769   0.39332   0.28946   0.00000  Uiso   1.00
H588   H     0.91342   0.44129   0.32395   0.00000  Uiso   1.00
H589   H     0.85556   0.39961   0.34805   0.00000  Uiso   1.00
H590   H     0.88548   0.35819   0.35614   0.00000  Uiso   1.00
C591   C     0.78630   0.61716   0.17642   0.00000  Uiso   1.00
C592   C     0.80586   0.61639   0.13038   0.00000  Uiso   1.00
C593   C     0.77255   0.61560   0.08998   0.00000  Uiso   1.00
H594   H     0.74943   0.58886   0.09445   0.00000  Uiso   1.00
H595   H     0.75606   0.64839   0.08605   0.00000  Uiso   1.00
H596   H     0.78707   0.60882   0.05846   0.00000  Uiso   1.00
H597   H     0.82716   0.64519   0.12688   0.00000  Uiso   1.00
H598   H     0.82629   0.58751   0.12676   0.00000  Uiso   1.00
H599   H     0.77695   0.58322   0.18563   0.00000  Uiso   1.00
H600   H     0.75533   0.63352   0.17220   0.00000  Uiso   1.00
C601   C     0.08776   0.83345   0.25064   0.00000  Uiso   1.00
C602   C     0.24557   0.83344   0.24935   0.00000  Uiso   1.00
C603   C     0.09095   0.84567   0.01418   0.00000  Uiso   1.00
C604   C     0.24100   0.81330   0.48571   0.00000  Uiso   1.00
C605   C     0.02129   0.79316   0.25132   0.00000  Uiso   1.00
C606   C     0.31197   0.87500   0.25033   0.00000  Uiso   1.00
C607   C     0.31197   0.79320   0.24750   0.00000  Uiso   1.00
C608   C     0.02140   0.87501   0.25073   0.00000  Uiso   1.00
C609   C     0.29033   0.83392   0.24875   0.00000  Uiso   1.00
C610   C     0.04299   0.83390   0.25122   0.00000  Uiso   1.00
C611   C     0.14631   0.69112   0.21411   0.00000  Uiso   1.00
C612   C     0.18726   0.97512   0.28530   0.00000  Uiso   1.00
C613   C     0.18725   0.69103   0.28581   0.00000  Uiso   1.00
C614   C     0.14598   0.97516   0.21468   0.00000  Uiso   1.00
C615   C     0.16654   0.83311   0.16495   0.00000  Uiso   1.00
C616   C     0.16678   0.83324   0.33506   0.00000  Uiso   1.00
C617   C     0.20297   0.82153   0.41011   0.00000  Uiso   1.00
C618   C     0.12906   0.83830   0.08980   0.00000  Uiso   1.00
C619   C     0.16673   0.83269   0.38327   0.00000  Uiso   1.00
C620   C     0.16622   0.83175   0.11672   0.00000  Uiso   1.00
C621   C     0.13033   0.84256   0.40205   0.00000  Uiso   1.00
C622   C     0.20265   0.82188   0.09803   0.00000  Uiso   1.00
C623   C     0.12971   0.84081   0.44865   0.00000  Uiso   1.00
C624   C     0.20273   0.82087   0.05134   0.00000  Uiso   1.00
C625   C     0.16651   0.83080   0.47649   0.00000  Uiso   1.00
C626   C     0.16568   0.82960   0.02344   0.00000  Uiso   1.00
C627   C     0.20404   0.82212   0.45726   0.00000  Uiso   1.00
C628   C     0.12798   0.83736   0.04264   0.00000  Uiso   1.00
C629   C     0.09262   0.84830   0.46748   0.00000  Uiso   1.00
C630   C     0.23960   0.81224   0.03248   0.00000  Uiso   1.00
Cu631  Cu    0.16667   0.88022   0.25000   0.00000  Uiso   1.00
Cu632  Cu    0.16667   0.78645   0.25000   0.00000  Uiso   1.00
H633   H     0.22996   0.81281   0.39356   0.00000  Uiso   1.00
H634   H     0.10171   0.84534   0.10642   0.00000  Uiso   1.00
H635   H     0.10242   0.85060   0.38021   0.00000  Uiso   1.00
H636   H     0.23096   0.81581   0.11995   0.00000  Uiso   1.00
H637   H     0.06449   0.85504   0.44548   0.00000  Uiso   1.00
H638   H     0.26776   0.80584   0.05449   0.00000  Uiso   1.00
H639   H     0.03693   0.76107   0.25441   0.00000  Uiso   1.00
H640   H     0.29600   0.90710   0.25097   0.00000  Uiso   1.00
H641   H     0.29626   0.76122   0.24353   0.00000  Uiso   1.00
H642   H     0.03742   0.90711   0.25101   0.00000  Uiso   1.00
N643   N     0.16667   0.95069   0.25000   0.00000  Uiso   1.00
N644   N     0.16667   0.71598   0.25000   0.00000  Uiso   1.00
O645   O     0.10655   0.87291   0.24999   0.00000  Uiso   1.00
O646   O     0.22679   0.79375   0.25000   0.00000  Uiso   1.00
O647   O     0.22679   0.87291   0.25000   0.00000  Uiso   1.00
O648   O     0.10655   0.79375   0.24999   0.00000  Uiso   1.00
O649   O     0.16666   0.87293   0.18513   0.00000  Uiso   1.00
O650   O     0.16668   0.79373   0.31487   0.00000  Uiso   1.00
O651   O     0.16668   0.87293   0.31487   0.00000  Uiso   1.00
O652   O     0.16666   0.79373   0.18513   0.00000  Uiso   1.00
C653   C     0.04993   0.85122   0.03148   0.00000  Uiso   1.00
O654   O     0.02591   0.88011   0.01515   0.00000  Uiso   1.00
O655   O     0.03797   0.82235   0.06497   0.00000  Uiso   1.00
H656   H     0.00936   0.82960   0.07375   0.00000  Uiso   1.00
C657   C     0.28195   0.80641   0.46868   0.00000  Uiso   1.00
O658   O     0.29303   0.83061   0.43887   0.00000  Uiso   1.00
O659   O     0.30879   0.77338   0.48848   0.00000  Uiso   1.00
H660   H     0.00269   0.77222   0.47462   0.00000  Uiso   1.00
C661   C     0.12502   0.71461   0.17107   0.00000  Uiso   1.00
C662   C     0.08420   0.73939   0.17598   0.00000  Uiso   1.00
C663   C     0.04981   0.72943   0.13798   0.00000  Uiso   1.00
H664   H     0.06029   0.73806   0.10466   0.00000  Uiso   1.00
H665   H     0.04097   0.69320   0.13824   0.00000  Uiso   1.00
H666   H     0.02206   0.75007   0.14296   0.00000  Uiso   1.00
H667   H     0.07288   0.72850   0.20796   0.00000  Uiso   1.00
H668   H     0.08945   0.77625   0.17464   0.00000  Uiso   1.00
H669   H     0.14711   0.73209   0.15173   0.00000  Uiso   1.00
H670   H     0.11615   0.69176   0.14381   0.00000  Uiso   1.00
C671   C     0.21258   0.95024   0.32394   0.00000  Uiso   1.00
C672   C     0.19139   0.94932   0.36894   0.00000  Uiso   1.00
C673   C     0.22292   0.93910   0.40936   0.00000  Uiso   1.00
H674   H     0.23993   0.90746   0.40352   0.00000  Uiso   1.00
H675   H     0.24550   0.96723   0.41482   0.00000  Uiso   1.00
H676   H     0.20682   0.93502   0.44028   0.00000  Uiso   1.00
H677   H     0.17491   0.98105   0.37542   0.00000  Uiso   1.00
H678   H     0.16593   0.92495   0.36878   0.00000  Uiso   1.00
H679   H     0.22228   0.91648   0.31455   0.00000  Uiso   1.00
H680   H     0.24372   0.96597   0.32939   0.00000  Uiso   1.00
C681   C     0.20992   0.71427   0.32842   0.00000  Uiso   1.00
C682   C     0.25106   0.73765   0.32209   0.00000  Uiso   1.00
C683   C     0.28625   0.72645   0.35885   0.00000  Uiso   1.00
H684   H     0.27722   0.73556   0.39270   0.00000  Uiso   1.00
H685   H     0.29393   0.68991   0.35828   0.00000  Uiso   1.00
H686   H     0.31432   0.74601   0.35276   0.00000  Uiso   1.00
H687   H     0.26102   0.72665   0.28946   0.00000  Uiso   1.00
H688   H     0.24675   0.77462   0.32395   0.00000  Uiso   1.00
H689   H     0.18889   0.73294   0.34805   0.00000  Uiso   1.00
H690   H     0.21882   0.69152   0.35614   0.00000  Uiso   1.00
C691   C     0.11964   0.95050   0.17642   0.00000  Uiso   1.00
C692   C     0.13919   0.94972   0.13038   0.00000  Uiso   1.00
C693   C     0.10588   0.94893   0.08998   0.00000  Uiso   1.00
H694   H     0.08276   0.92219   0.09445   0.00000  Uiso   1.00
H695   H     0.08940   0.98173   0.08605   0.00000  Uiso   1.00
H696   H     0.12040   0.94215   0.05846   0.00000  Uiso   1.00
H697   H     0.16049   0.97852   0.12688   0.00000  Uiso   1.00
H698   H     0.15962   0.92084   0.12676   0.00000  Uiso   1.00
H699   H     0.11029   0.91655   0.18563   0.00000  Uiso   1.00
H700   H     0.08867   0.96685   0.17220   0.00000  Uiso   1.00
C701   C     0.42109   0.83345   0.25064   0.00000  Uiso   1.00
C702   C     0.57891   0.83344   0.24935   0.00000  Uiso   1.00
C703   C     0.42428   0.84567   0.01418   0.00000  Uiso   1.00
C704   C     0.57433   0.81330   0.48571   0.00000  Uiso   1.00
C705   C     0.35463   0.79316   0.25132   0.00000  Uiso   1.00
C706   C     0.64530   0.87500   0.25033   0.00000  Uiso   1.00
C707   C     0.64530   0.79320   0.24750   0.00000  Uiso   1.00
C708   C     0.35474   0.87501   0.25073   0.00000  Uiso   1.00
C709   C     0.62366   0.83392   0.24875   0.00000  Uiso   1.00
C710   C     0.37633   0.83390   0.25122   0.00000  Uiso   1.00
C711   C     0.47964   0.69112   0.21411   0.00000  Uiso   1.00
C712   C     0.52060   0.97512   0.28530   0.00000  Uiso   1.00
C713   C     0.52059   0.69103   0.28581   0.00000  Uiso   1.00
C714   C     0.47931   0.97516   0.21468   0.00000  Uiso   1.00
C715   C     0.49987   0.83311   0.16495   0.00000  Uiso   1.00
C716   C     0.50012   0.83324   0.33506   0.00000  Uiso   1.00
C717   C     0.53630   0.82153   0.41011   0.00000  Uiso   1.00
C718   C     0.46239   0.83830   0.08980   0.00000  Uiso   1.00
C719   C     0.50006   0.83269   0.38327   0.00000  Uiso   1.00
C720   C     0.49955   0.83175   0.11672   0.00000  Uiso   1.00
C721   C     0.46367   0.84256   0.40205   0.00000  Uiso   1.00
C722   C     0.53598   0.82188   0.09803   0.00000  Uiso   1.00
C723   C     0.46304   0.84081   0.44865   0.00000  Uiso   1.00
C724   C     0.53606   0.82087   0.05134   0.00000  Uiso   1.00
C725   C     0.49984   0.83080   0.47649   0.00000  Uiso   1.00
C726   C     0.49901   0.82960   0.02344   0.00000  Uiso   1.00
C727   C     0.53737   0.82212   0.45726   0.00000  Uiso   1.00
C728   C     0.46131   0.83736   0.04264   0.00000  Uiso   1.00
C729   C     0.42595   0.84830   0.46748   0.00000  Uiso   1.00
C730   C     0.57293   0.81224   0.03248   0.00000  Uiso   1.00
Cu731  Cu    0.50000   0.88022   0.25000   0.00000  Uiso   1.00
Cu732  Cu    0.50000   0.78645   0.25000   0.00000  Uiso   1.00
H733   H     0.56329   0.81281   0.39356   0.00000  Uiso   1.00
H734   H     0.43505   0.84534   0.10642   0.00000  Uiso   1.00
H735   H     0.43575   0.85060   0.38021   0.00000  Uiso   1.00
H736   H     0.56429   0.81581   0.11995   0.00000  Uiso   1.00
H737   H     0.39783   0.85504   0.44548   0.00000  Uiso   1.00
H738   H     0.60109   0.80584   0.05449   0.00000  Uiso   1.00
H739   H     0.37026   0.76107   0.25441   0.00000  Uiso   1.00
H740   H     0.62934   0.90710   0.25097   0.00000  Uiso   1.00
H741   H     0.62960   0.76122   0.24353   0.00000  Uiso   1.00
H742   H     0.37075   0.90711   0.25101   0.00000  Uiso   1.00
N743   N     0.50000   0.95069   0.25000   0.00000  Uiso   1.00
N744   N     0.50000   0.71598   0.25000   0.00000  Uiso   1.00
O745   O     0.43988   0.87291   0.24999   0.00000  Uiso   1.00
O746   O     0.56012   0.79375   0.25000   0.00000  Uiso   1.00
O747   O     0.56012   0.87291   0.25000   0.00000  Uiso   1.00
O748   O     0.43988   0.79375   0.24999   0.00000  Uiso   1.00
O749   O     0.49999   0.87293   0.18513   0.00000  Uiso   1.00
O750   O     0.50001   0.79373   0.31487   0.00000  Uiso   1.00
O751   O     0.50001   0.87293   0.31487   0.00000  Uiso   1.00
O752   O     0.49999   0.79373   0.18513   0.00000  Uiso   1.00
C753   C     0.38327   0.85122   0.03148   0.00000  Uiso   1.00
O754   O     0.35924   0.88011   0.01515   0.00000  Uiso   1.00
O755   O     0.37130   0.82235   0.06497   0.00000  Uiso   1.00
H756   H     0.34269   0.82960   0.07375   0.00000  Uiso   1.00
C757   C     0.61529   0.80641   0.46868   0.00000  Uiso   1.00
O758   O     0.62636   0.83061   0.43887   0.00000  Uiso   1.00
O759   O     0.64213   0.77338   0.48848   0.00000  Uiso   1.00
H760   H     0.33602   0.77222   0.47462   0.00000  Uiso   1.00
C761   C     0.45835   0.71461   0.17107   0.00000  Uiso   1.00
C762   C     0.41753   0.73939   0.17598   0.00000  Uiso   1.00
C763   C     0.38314   0.72943   0.13798   0.00000  Uiso   1.00
H764   H     0.39363   0.73806   0.10466   0.00000  Uiso   1.00
H765   H     0.37431   0.69320   0.13824   0.00000  Uiso   1.00
H766   H     0.35539   0.75007   0.14296   0.00000  Uiso   1.00
H767   H     0.40621   0.72850   0.20796   0.00000  Uiso   1.00
H768   H     0.42279   0.77625   0.17464   0.00000  Uiso   1.00
H769   H     0.48045   0.73209   0.15173   0.00000  Uiso   1.00
H770   H     0.44948   0.69176   0.14381   0.00000  Uiso   1.00
C771   C     0.54591   0.95024   0.32394   0.00000  Uiso   1.00
C772   C     0.52473   0.94932   0.36894   0.00000  Uiso   1.00
C773   C     0.55626   0.93910   0.40936   0.00000  Uiso   1.00
H774   H     0.57326   0.90746   0.40352   0.00000  Uiso   1.00
H775   H     0.57883   0.96723   0.41482   0.00000  Uiso   1.00
H776   H     0.54015   0.93502   0.44028   0.00000  Uiso   1.00
H777   H     0.50824   0.98105   0.37542   0.00000  Uiso   1.00
H778   H     0.49926   0.92495   0.36878   0.00000  Uiso   1.00
H779   H     0.55562   0.91648   0.31455   0.00000  Uiso   1.00
H780   H     0.57705   0.96597   0.32939   0.00000  Uiso   1.00
C781   C     0.54326   0.71427   0.32842   0.00000  Uiso   1.00
C782   C     0.58440   0.73765   0.32209   0.00000  Uiso   1.00
C783   C     0.61958   0.72645   0.35885   0.00000  Uiso   1.00
H784   H     0.61055   0.73556   0.39270   0.00000  Uiso   1.00
H785   H     0.62727   0.68991   0.35828   0.00000  Uiso   1.00
H786   H     0.64765   0.74601   0.35276   0.00000  Uiso   1.00
H787   H     0.59436   0.72665   0.28946   0.00000  Uiso   1.00
H788   H     0.58008   0.77462   0.32395   0.00000  Uiso   1.00
H789   H     0.52222   0.73294   0.34805   0.00000  Uiso   1.00
H790   H     0.55215   0.69152   0.35614   0.00000  Uiso   1.00
C791   C     0.45297   0.95050   0.17642   0.00000  Uiso   1.00
C792   C     0.47252   0.94972   0.13038   0.00000  Uiso   1.00
C793   C     0.43921   0.94893   0.08998   0.00000  Uiso   1.00
H794   H     0.41610   0.92219   0.09445   0.00000  Uiso   1.00
H795   H     0.42273   0.98173   0.08605   0.00000  Uiso   1.00
H796   H     0.45374   0.94215   0.05846   0.00000  Uiso   1.00
H797   H     0.49382   0.97852   0.12688   0.00000  Uiso   1.00
H798   H     0.49296   0.92084   0.12676   0.00000  Uiso   1.00
H799   H     0.44362   0.91655   0.18563   0.00000  Uiso   1.00
H800   H     0.42200   0.96685   0.17220   0.00000  Uiso   1.00
C801   C     0.75442   0.83345   0.25064   0.00000  Uiso   1.00
C802   C     0.91224   0.83344   0.24935   0.00000  Uiso   1.00
C803   C     0.75761   0.84567   0.01418   0.00000  Uiso   1.00
C804   C     0.90767   0.81330   0.48571   0.00000  Uiso   1.00
C805   C     0.68796   0.79316   0.25132   0.00000  Uiso   1.00
C806   C     0.97864   0.87500   0.25033   0.00000  Uiso   1.00
C807   C     0.97863   0.79320   0.24750   0.00000  Uiso   1.00
C808   C     0.68807   0.87501   0.25073   0.00000  Uiso   1.00
C809   C     0.95699   0.83392   0.24875   0.00000  Uiso   1.00
C810   C     0.70966   0.83390   0.25122   0.00000  Uiso   1.00
C811   C     0.81298   0.69112   0.21411   0.00000  Uiso   1.00
C812   C     0.85393   0.97512   0.28530   0.00000  Uiso   1.00
C813   C     0.85392   0.69103   0.28581   0.00000  Uiso   1.00
C814   C     0.81264   0.97516   0.21468   0.00000  Uiso   1.00
C815   C     0.83320   0.83311   0.16495   0.00000  Uiso   1.00
C816   C     0.83345   0.83324   0.33506   0.00000  Uiso   1.00
C817   C     0.86963   0.82153   0.41011   0.00000  Uiso   1.00
C818   C     0.79573   0.83830   0.08980   0.00000  Uiso   1.00
C819   C     0.83339   0.83269   0.38327   0.00000  Uiso   1.00
C820   C     0.83289   0.83175   0.11672   0.00000  Uiso   1.00
C821   C     0.79700   0.84256   0.40205   0.00000  Uiso   1.00
C822   C     0.86932   0.82188   0.09803   0.00000  Uiso   1.00
C823   C     0.79638   0.84081   0.44865   0.00000  Uiso   1.00
C824   C     0.86939   0.82087   0.05134   0.00000  Uiso   1.00
C825   C     0.83317   0.83080   0.47649   0.00000  Uiso   1.00
C826   C     0.83235   0.82960   0.02344   0.00000  Uiso   1.00
C827   C     0.87070   0.82212   0.45726   0.00000  Uiso   1.00
C828   C     0.79464   0.83736   0.04264   0.00000  Uiso   1.00
C829   C     0.75928   0.84830   0.46748   0.00000  Uiso   1.00
C830   C     0.90626   0.81224   0.03248   0.00000  Uiso   1.00
Cu831  Cu    0.83333   0.88022   0.25000   0.00000  Uiso   1.00
Cu832  Cu    0.83333   0.78645   0.25000   0.00000  Uiso   1.00
H833   H     0.89662   0.81281   0.39356   0.00000  Uiso   1.00
H834   H     0.76838   0.84534   0.10642   0.00000  Uiso   1.00
H835   H     0.76909   0.85060   0.38021   0.00000  Uiso   1.00
H836   H     0.89763   0.81581   0.11995   0.00000  Uiso   1.00
H837   H     0.73116   0.85504   0.44548   0.00000  Uiso   1.00
H838   H     0.93443   0.80584   0.05449   0.00000  Uiso   1.00
H839   H     0.70359   0.76107   0.25441   0.00000  Uiso   1.00
H840   H     0.96267   0.90710   0.25097   0.00000  Uiso   1.00
H841   H     0.96293   0.76122   0.24353   0.00000  Uiso   1.00
H842   H     0.70408   0.90711   0.25101   0.00000  Uiso   1.00
N843   N     0.83333   0.95069   0.25000   0.00000  Uiso   1.00
N844   N     0.83333   0.71598   0.25000   0.00000  Uiso   1.00
O845   O     0.77321   0.87291   0.24999   0.00000  Uiso   1.00
O846   O     0.89345   0.79375   0.25000   0.00000  Uiso   1.00
O847   O     0.89345   0.87291   0.25000   0.00000  Uiso   1.00
O848   O     0.77321   0.79375   0.24999   0.00000  Uiso   1.00
O849   O     0.83332   0.87293   0.18513   0.00000  Uiso   1.00
O850   O     0.83334   0.79373   0.31487   0.00000  Uiso   1.00
O851   O     0.83334   0.87293   0.31487   0.00000  Uiso   1.00
O852   O     0.83332   0.79373   0.18513   0.00000  Uiso   1.00
C853   C     0.71660   0.85122   0.03148   0.00000  Uiso   1.00
O854   O     0.69257   0.88011   0.01515   0.00000  Uiso   1.00
O855   O     0.70464   0.82235   0.06497   0.00000  Uiso   1.00
H856   H     0.67602   0.82960   0.07375   0.00000  Uiso   1.00
C857   C     0.94862   0.80641   0.46868   0.00000  Uiso   1.00
O858   O     0.95970   0.83061   0.43887   0.00000  Uiso   1.00
O859   O     0.97546   0.77338   0.48848   0.00000  Uiso   1.00
H860   H     0.66935   0.77222   0.47462   0.00000  Uiso   1.00
C861   C     0.79169   0.71461   0.17107   0.00000  Uiso   1.00
C862   C     0.75087   0.73939   0.17598   0.00000  Uiso   1.00
C863   C     0.71647   0.72943   0.13798   0.00000  Uiso   1.00
H864   H     0.72696   0.73806   0.10466   0.00000  Uiso   1.00
H865   H     0.70764   0.69320   0.13824   0.00000  Uiso   1.00
H866   H     0.68872   0.75007   0.14296   0.00000  Uiso   1.00
H867   H     0.73954   0.72850   0.20796   0.00000  Uiso   1.00
H868   H     0.75612   0.77625   0.17464   0.00000  Uiso   1.00
H869   H     0.81378   0.73209   0.15173   0.00000  Uiso   1.00
H870   H     0.78281   0.69176   0.14381   0.00000  Uiso   1.00
C871   C     0.87925   0.95024   0.32394   0.00000  Uiso   1.00
C872   C     0.85806   0.94932   0.36894   0.00000  Uiso   1.00
C873   C     0.88959   0.93910   0.40936   0.00000  Uiso   1.00
H874   H     0.90659   0.90746   0.40352   0.00000  Uiso   1.00
H875   H     0.91216   0.96723   0.41482   0.00000  Uiso   1.00
H876   H     0.87348   0.93502   0.44028   0.00000  Uiso   1.00
H877   H     0.84157   0.98105   0.37542   0.00000  Uiso   1.00
H878   H     0.83260   0.92495   0.36878   0.00000  Uiso   1.00
H879   H     0.88895   0.91648   0.31455   0.00000  Uiso   1.00
H880   H     0.91038   0.96597   0.32939   0.00000  Uiso   1.00
C881   C     0.87659   0.71427   0.32842   0.00000  Uiso   1.00
C882   C     0.91773   0.73765   0.32209   0.00000  Uiso   1.00
C883   C     0.95292   0.72645   0.35885   0.00000  Uiso   1.00
H884   H     0.94388   0.73556   0.39270   0.00000  Uiso   1.00
H885   H     0.96060   0.68991   0.35828   0.00000  Uiso   1.00
H886   H     0.98099   0.74601   0.35276   0.00000  Uiso   1.00
H887   H     0.92769   0.72665   0.28946   0.00000  Uiso   1.00
H888   H     0.91342   0.77462   0.32395   0.00000  Uiso   1.00
H889   H     0.85556   0.73294   0.34805   0.00000  Uiso   1.00
H890   H     0.88548   0.69152   0.35614   0.00000  Uiso   1.00
C891   C     0.78630   0.95050   0.17642   0.00000  Uiso   1.00
C892   C     0.80586   0.94972   0.13038   0.00000  Uiso   1.00
C893   C     0.77255   0.94893   0.08998   0.00000  Uiso   1.00
H894   H     0.74943   0.92219   0.09445   0.00000  Uiso   1.00
H895   H     0.75606   0.98173   0.08605   0.00000  Uiso   1.00
H896   H     0.78707   0.94215   0.05846   0.00000  Uiso   1.00
H897   H     0.82716   0.97852   0.12688   0.00000  Uiso   1.00
H898   H     0.82629   0.92084   0.12676   0.00000  Uiso   1.00
H899   H     0.77695   0.91655   0.18563   0.00000  Uiso   1.00
H900   H     0.75533   0.96685   0.17220   0.00000  Uiso   1.00
C901   C     0.08776   0.16679   0.75064   0.00000  Uiso   1.00
C902   C     0.24557   0.16678   0.74935   0.00000  Uiso   1.00
C903   C     0.09095   0.17900   0.51418   0.00000  Uiso   1.00
C904   C     0.24100   0.14664   0.98571   0.00000  Uiso   1.00
C905   C     0.02129   0.12649   0.75132   0.00000  Uiso   1.00
C906   C     0.31197   0.20834   0.75033   0.00000  Uiso   1.00
C907   C     0.31197   0.12654   0.74750   0.00000  Uiso   1.00
C908   C     0.02140   0.20834   0.75073   0.00000  Uiso   1.00
C909   C     0.29033   0.16725   0.74875   0.00000  Uiso   1.00
C910   C     0.04299   0.16724   0.75122   0.00000  Uiso   1.00
C911   C     0.14631   0.02446   0.71411   0.00000  Uiso   1.00
C912   C     0.18726   0.30845   0.78530   0.00000  Uiso   1.00
C913   C     0.18725   0.02436   0.78581   0.00000  Uiso   1.00
C914   C     0.14598   0.30849   0.71468   0.00000  Uiso   1.00
C915   C     0.16654   0.16644   0.66495   0.00000  Uiso   1.00
C916   C     0.16678   0.16657   0.83506   0.00000  Uiso   1.00
C917   C     0.20297   0.15486   0.91011   0.00000  Uiso   1.00
C918   C     0.12906   0.17163   0.58980   0.00000  Uiso   1.00
C919   C     0.16673   0.16603   0.88327   0.00000  Uiso   1.00
C920   C     0.16622   0.16509   0.61672   0.00000  Uiso   1.00
C921   C     0.13033   0.17589   0.90205   0.00000  Uiso   1.00
C922   C     0.20265   0.15522   0.59803   0.00000  Uiso   1.00
C923   C     0.12971   0.17414   0.94865   0.00000  Uiso   1.00
C924   C     0.20273   0.15420   0.55134   0.00000  Uiso   1.00
C925   C     0.16651   0.16414   0.97649   0.00000  Uiso   1.00
C926   C     0.16568   0.16293   0.52344   0.00000  Uiso   1.00
C927   C     0.20404   0.15545   0.95726   0.00000  Uiso   1.00
C928   C     0.12798   0.17070   0.54264   0.00000  Uiso   1.00
C929   C     0.09262   0.18163   0.96748   0.00000  Uiso   1.00
C930   C     0.23960   0.14557   0.53248   0.00000  Uiso   1.00
Cu931  Cu    0.16667   0.21355   0.75000   0.00000  Uiso   1.00
Cu932  Cu    0.16667   0.11978   0.75000   0.00000  Uiso   1.00
H933   H     0.22996   0.14614   0.89356   0.00000  Uiso   1.00
H934   H     0.10171   0.17867   0.60642   0.00000  Uiso   1.00
H935   H     0.10242   0.18393   0.88021   0.00000  Uiso   1.00
H936   H     0.23096   0.14914   0.61995   0.00000  Uiso   1.00
H937   H     0.06449   0.18837   0.94548   0.00000  Uiso   1.00
H938   H     0.26776   0.13918   0.55449   0.00000  Uiso   1.00
H939   H     0.03693   0.09440   0.75441   0.00000  Uiso   1.00
H940   H     0.29600   0.24043   0.75097   0.00000  Uiso   1.00
H941   H     0.29626   0.09456   0.74353   0.00000  Uiso   1.00
H942   H     0.03742   0.24044   0.75101   0.00000  Uiso   1.00
N943   N     0.16667   0.28402   0.75000   0.00000  Uiso   1.00
N944   N     0.16667   0.04931   0.75000   0.00000  Uiso   1.00
O945   O     0.10655   0.20625   0.74999   0.00000  Uiso   1.00
O946   O     0.22679   0.12709   0.75000   0.00000  Uiso   1.00
O947   O     0.22679   0.20625   0.75000   0.00000  Uiso   1.00
O948   O     0.10655   0.12709   0.74999   0.00000  Uiso   1.00
O949   O     0.16666   0.20627   0.68513   0.00000  Uiso   1.00
O950   O     0.16668   0.12707   0.81487   0.00000  Uiso   1.00
O951   O     0.16668   0.20627   0.81487   0.00000  Uiso   1.00
O952   O     0.16666   0.12707   0.68513   0.00000  Uiso   1.00
C953   C     0.04993   0.18455   0.53148   0.00000  Uiso   1.00
O954   O     0.02591   0.21344   0.51515   0.00000  Uiso   1.00
O955   O     0.03797   0.15569   0.56497   0.00000  Uiso   1.00
H956   H     0.00936   0.16293   0.57375   0.00000  Uiso   1.00
C957   C     0.28195   0.13974   0.96868   0.00000  Uiso   1.00
O958   O     0.29303   0.16395   0.93887   0.00000  Uiso   1.00
O959   O     0.30879   0.10671   0.98848   0.00000  Uiso   1.00
H960   H     0.00269   0.10555   0.97462   0.00000  Uiso   1.00
C961   C     0.12502   0.04795   0.67107   0.00000  Uiso   1.00
C962   C     0.08420   0.07272   0.67598   0.00000  Uiso   1.00
C963   C     0.04981   0.06276   0.63798   0.00000  Uiso   1.00
H964   H     0.06029   0.07139   0.60466   0.00000  Uiso   1.00
H965   H     0.04097   0.02654   0.63824   0.00000  Uiso   1.00
H966   H     0.02206   0.08340   0.64296   0.00000  Uiso   1.00
H967   H     0.07288   0.06184   0.70796   0.00000  Uiso   1.00
H968   H     0.08945   0.10958   0.67464   0.00000  Uiso   1.00
H969   H     0.14711   0.06542   0.65173   0.00000  Uiso   1.00
H970   H     0.11615   0.02509   0.64381   0.00000  Uiso   1.00
C971   C     0.21258   0.28357   0.82394   0.00000  Uiso   1.00
C972   C     0.19139   0.28265   0.86894   0.00000  Uiso   1.00
C973   C     0.22292   0.27243   0.90936   0.00000  Uiso   1.00
H974   H     0.23993   0.24079   0.90352   0.00000  Uiso   1.00
H975   H     0.24550   0.30057   0.91482   0.00000  Uiso   1.00
H976   H     0.20682   0.26835   0.94028   0.00000  Uiso   1.00
H977   H     0.17491   0.31438   0.87542   0.00000  Uiso   1.00
H978   H     0.16593   0.25829   0.86878   0.00000  Uiso   1.00
H979   H     0.22228   0.24981   0.81455   0.00000  Uiso   1.00
H980   H     0.24372   0.29930   0.82939   0.00000  Uiso   1.00
C981   C     0.20992   0.04761   0.82842   0.00000  Uiso   1.00
C982   C     0.25106   0.07099   0.82209   0.00000  Uiso   1.00
C983   C     0.28625   0.05978   0.85885   0.00000  Uiso   1.00
H984   H     0.27722   0.06889   0.89270   0.00000  Uiso   1.00
H985   H     0.29393   0.02324   0.85828   0.00000  Uiso   1.00
H986   H     0.31432   0.07935   0.85276   0.00000  Uiso   1.00
H987   H     0.26102   0.05998   0.78946   0.00000  Uiso   1.00
H988   H     0.24675   0.10795   0.82395   0.00000  Uiso   1.00
H989   H     0.18889   0.06628   0.84805   0.00000  Uiso   1.00
H990   H     0.21882   0.02486   0.85614   0.00000  Uiso   1.00
C991   C     0.11964   0.28383   0.67642   0.00000  Uiso   1.00
C992   C     0.13919   0.28305   0.63038   0.00000  Uiso   1.00
C993   C     0.10588   0.28226   0.58998   0.00000  Uiso   1.00
H994   H     0.08276   0.25552   0.59445   0.00000  Uiso   1.00
H995   H     0.08940   0.31506   0.58605   0.00000  Uiso   1.00
H996   H     0.12040   0.27548   0.55846   0.00000  Uiso   1.00
H997   H     0.16049   0.31186   0.62688   0.00000  Uiso   1.00
H998   H     0.15962   0.25418   0.62676   0.00000  Uiso   1.00
H999   H     0.11029   0.24989   0.68563   0.00000  Uiso   1.00
H1000  H     0.08867   0.30019   0.67220   0.00000  Uiso   1.00
C1001  C     0.42109   0.16679   0.75064   0.00000  Uiso   1.00
C1002  C     0.57891   0.16678   0.74935   0.00000  Uiso   1.00
C1003  C     0.42428   0.17900   0.51418   0.00000  Uiso   1.00
C1004  C     0.57433   0.14664   0.98571   0.00000  Uiso   1.00
C1005  C     0.35463   0.12649   0.75132   0.00000  Uiso   1.00
C1006  C     0.64530   0.20834   0.75033   0.00000  Uiso   1.00
C1007  C     0.64530   0.12654   0.74750   0.00000  Uiso   1.00
C1008  C     0.35474   0.20834   0.75073   0.00000  Uiso   1.00
C1009  C     0.62366   0.16725   0.74875   0.00000  Uiso   1.00
C1010  C     0.37633   0.16724   0.75122   0.00000  Uiso   1.00
C1011  C     0.47964   0.02446   0.71411   0.00000  Uiso   1.00
C1012  C     0.52060   0.30845   0.78530   0.00000  Uiso   1.00
C1013  C     0.52059   0.02436   0.78581   0.00000  Uiso   1.00
C1014  C     0.47931   0.30849   0.71468   0.00000  Uiso   1.00
C1015  C     0.49987   0.16644   0.66495   0.00000  Uiso   1.00
C1016  C     0.50012   0.16657   0.83506   0.00000  Uiso   1.00
C1017  C     0.53630   0.15486   0.91011   0.00000  Uiso   1.00
C1018  C     0.46239   0.17163   0.58980   0.00000  Uiso   1.00
C1019  C     0.50006   0.16603   0.88327   0.00000  Uiso   1.00
C1020  C     0.49955   0.16509   0.61672   0.00000  Uiso   1.00
C1021  C     0.46367   0.17589   0.90205   0.00000  Uiso   1.00
C1022  C     0.53598   0.15522   0.59803   0.00000  Uiso   1.00
C1023  C     0.46304   0.17414   0.94865   0.00000  Uiso   1.00
C1024  C     0.53606   0.15420   0.55134   0.00000  Uiso   1.00
C1025  C     0.49984   0.16414   0.97649   0.00000  Uiso   1.00
C1026  C     0.49901   0.16293   0.52344   0.00000  Uiso   1.00
C1027  C     0.53737   0.15545   0.95726   0.00000  Uiso   1.00
C1028  C     0.46131   0.17070   0.54264   0.00000  Uiso   1.00
C1029  C     0.42595   0.18163   0.96748   0.00000  Uiso   1.00
C1030  C     0.57293   0.14557   0.53248   0.00000  Uiso   1.00
Cu1031 Cu    0.50000   0.21355   0.75000   0.00000  Uiso   1.00
Cu1032 Cu    0.50000   0.11978   0.75000   0.00000  Uiso   1.00
H1033  H     0.56329   0.14614   0.89356   0.00000  Uiso   1.00
H1034  H     0.43505   0.17867   0.60642   0.00000  Uiso   1.00
H1035  H     0.43575   0.18393   0.88021   0.00000  Uiso   1.00
H1036  H     0.56429   0.14914   0.61995   0.00000  Uiso   1.00
H1037  H     0.39783   0.18837   0.94548   0.00000  Uiso   1.00
H1038  H     0.60109   0.13918   0.55449   0.00000  Uiso   1.00
H1039  H     0.37026   0.09440   0.75441   0.00000  Uiso   1.00
H1040  H     0.62934   0.24043   0.75097   0.00000  Uiso   1.00
H1041  H     0.62960   0.09456   0.74353   0.00000  Uiso   1.00
H1042  H     0.37075   0.24044   0.75101   0.00000  Uiso   1.00
N1043  N     0.50000   0.28402   0.75000   0.00000  Uiso   1.00
N1044  N     0.50000   0.04931   0.75000   0.00000  Uiso   1.00
O1045  O     0.43988   0.20625   0.74999   0.00000  Uiso   1.00
O1046  O     0.56012   0.12709   0.75000   0.00000  Uiso   1.00
O1047  O     0.56012   0.20625   0.75000   0.00000  Uiso   1.00
O1048  O     0.43988   0.12709   0.74999   0.00000  Uiso   1.00
O1049  O     0.49999   0.20627   0.68513   0.00000  Uiso   1.00
O1050  O     0.50001   0.12707   0.81487   0.00000  Uiso   1.00
O1051  O     0.50001   0.20627   0.81487   0.00000  Uiso   1.00
O1052  O     0.49999   0.12707   0.68513   0.00000  Uiso   1.00
C1053  C     0.38327   0.18455   0.53148   0.00000  Uiso   1.00
O1054  O     0.35924   0.21344   0.51515   0.00000  Uiso   1.00
O1055  O     0.37130   0.15569   0.56497   0.00000  Uiso   1.00
H1056  H     0.34269   0.16293   0.57375   0.00000  Uiso   1.00
C1057  C     0.61529   0.13974   0.96868   0.00000  Uiso   1.00
O1058  O     0.62636   0.16395   0.93887   0.00000  Uiso   1.00
O1059  O     0.64213   0.10671   0.98848   0.00000  Uiso   1.00
H1060  H     0.33602   0.10555   0.97462   0.00000  Uiso   1.00
C1061  C     0.45835   0.04795   0.67107   0.00000  Uiso   1.00
C1062  C     0.41753   0.07272   0.67598   0.00000  Uiso   1.00
C1063  C     0.38314   0.06276   0.63798   0.00000  Uiso   1.00
H1064  H     0.39363   0.07139   0.60466   0.00000  Uiso   1.00
H1065  H     0.37431   0.02654   0.63824   0.00000  Uiso   1.00
H1066  H     0.35539   0.08340   0.64296   0.00000  Uiso   1.00
H1067  H     0.40621   0.06184   0.70796   0.00000  Uiso   1.00
H1068  H     0.42279   0.10958   0.67464   0.00000  Uiso   1.00
H1069  H     0.48045   0.06542   0.65173   0.00000  Uiso   1.00
H1070  H     0.44948   0.02509   0.64381   0.00000  Uiso   1.00
C1071  C     0.54591   0.28357   0.82394   0.00000  Uiso   1.00
C1072  C     0.52473   0.28265   0.86894   0.00000  Uiso   1.00
C1073  C     0.55626   0.27243   0.90936   0.00000  Uiso   1.00
H1074  H     0.57326   0.24079   0.90352   0.00000  Uiso   1.00
H1075  H     0.57883   0.30057   0.91482   0.00000  Uiso   1.00
H1076  H     0.54015   0.26835   0.94028   0.00000  Uiso   1.00
H1077  H     0.50824   0.31438   0.87542   0.00000  Uiso   1.00
H1078  H     0.49926   0.25829   0.86878   0.00000  Uiso   1.00
H1079  H     0.55562   0.24981   0.81455   0.00000  Uiso   1.00
H1080  H     0.57705   0.29930   0.82939   0.00000  Uiso   1.00
C1081  C     0.54326   0.04761   0.82842   0.00000  Uiso   1.00
C1082  C     0.58440   0.07099   0.82209   0.00000  Uiso   1.00
C1083  C     0.61958   0.05978   0.85885   0.00000  Uiso   1.00
H1084  H     0.61055   0.06889   0.89270   0.00000  Uiso   1.00
H1085  H     0.62727   0.02324   0.85828   0.00000  Uiso   1.00
H1086  H     0.64765   0.07935   0.85276   0.00000  Uiso   1.00
H1087  H     0.59436   0.05998   0.78946   0.00000  Uiso   1.00
H1088  H     0.58008   0.10795   0.82395   0.00000  Uiso   1.00
H1089  H     0.52222   0.06628   0.84805   0.00000  Uiso   1.00
H1090  H     0.55215   0.02486   0.85614   0.00000  Uiso   1.00
C1091  C     0.45297   0.28383   0.67642   0.00000  Uiso   1.00
C1092  C     0.47252   0.28305   0.63038   0.00000  Uiso   1.00
C1093  C     0.43921   0.28226   0.58998   0.00000  Uiso   1.00
H1094  H     0.41610   0.25552   0.59445   0.00000  Uiso   1.00
H1095  H     0.42273   0.31506   0.58605   0.00000  Uiso   1.00
H1096  H     0.45374   0.27548   0.55846   0.00000  Uiso   1.00
H1097  H     0.49382   0.31186   0.62688   0.00000  Uiso   1.00
H1098  H     0.49296   0.25418   0.62676   0.00000  Uiso   1.00
H1099  H     0.44362   0.24989   0.68563   0.00000  Uiso   1.00
H1100  H     0.42200   0.30019   0.67220   0.00000  Uiso   1.00
C1101  C     0.75442   0.16679   0.75064   0.00000  Uiso   1.00
C1102  C     0.91224   0.16678   0.74935   0.00000  Uiso   1.00
C1103  C     0.75761   0.17900   0.51418   0.00000  Uiso   1.00
C1104  C     0.90767   0.14664   0.98571   0.00000  Uiso   1.00
C1105  C     0.68796   0.12649   0.75132   0.00000  Uiso   1.00
C1106  C     0.97864   0.20834   0.75033   0.00000  Uiso   1.00
C1107  C     0.97863   0.12654   0.74750   0.00000  Uiso   1.00
C1108  C     0.68807   0.20834   0.75073   0.00000  Uiso   1.00
C1109  C     0.95699   0.16725   0.74875   0.00000  Uiso   1.00
C1110  C     0.70966   0.16724   0.75122   0.00000  Uiso   1.00
C1111  C     0.81298   0.02446   0.71411   0.00000  Uiso   1.00
C1112  C     0.85393   0.30845   0.78530   0.00000  Uiso   1.00
C1113  C     0.85392   0.02436   0.78581   0.00000  Uiso   1.00
C1114  C     0.81264   0.30849   0.71468   0.00000  Uiso   1.00
C1115  C     0.83320   0.16644   0.66495   0.00000  Uiso   1.00
C1116  C     0.83345   0.16657   0.83506   0.00000  Uiso   1.00
C1117  C     0.86963   0.15486   0.91011   0.00000  Uiso   1.00
C1118  C     0.79573   0.17163   0.58980   0.00000  Uiso   1.00
C1119  C     0.83339   0.16603   0.88327   0.00000  Uiso   1.00
C1120  C     0.83289   0.16509   0.61672   0.00000  Uiso   1.00
C1121  C     0.79700   0.17589   0.90205   0.00000  Uiso   1.00
C1122  C     0.86932   0.15522   0.59803   0.00000  Uiso   1.00
C1123  C     0.79638   0.17414   0.94865   0.00000  Uiso   1.00
C1124  C     0.86939   0.15420   0.55134   0.00000  Uiso   1.00
C1125  C     0.83317   0.16414   0.97649   0.00000  Uiso   1.00
C1126  C     0.83235   0.16293   0.52344   0.00000  Uiso   1.00
C1127  C     0.87070   0.15545   0.95726   0.00000  Uiso   1.00
C1128  C     0.79464   0.17070   0.54264   0.00000  Uiso   1.00
C1129  C     0.75928   0.18163   0.96748   0.00000  Uiso   1.00
C1130  C     0.90626   0.14557   0.53248   0.00000  Uiso   1.00
Cu1131 Cu    0.83333   0.21355   0.75000   0.00000  Uiso   1.00
Cu1132 Cu    0.83333   0.11978   0.75000   0.00000  Uiso   1.00
H1133  H     0.89662   0.14614   0.89356   0.00000  Uiso   1.00
H1134  H     0.76838   0.17867   0.60642   0.00000  Uiso   1.00
H1135  H     0.76909   0.18393   0.88021   0.00000  Uiso   1.00
H1136  H     0.89763   0.14914   0.61995   0.00000  Uiso   1.00
H1137  H     0.73116   0.18837   0.94548   0.00000  Uiso   1.00
H1138  H     0.93443   0.13918   0.55449   0.00000  Uiso   1.00
H1139  H     0.70359   0.09440   0.75441   0.00000  Uiso   1.00
H1140  H     0.96267   0.24043   0.75097   0.00000  Uiso   1.00
H1141  H     0.96293   0.09456   0.74353   0.00000  Uiso   1.00
H1142  H     0.70408   0.24044   0.75101   0.00000  Uiso   1.00
N1143  N     0.83333   0.28402   0.75000   0.00000  Uiso   1.00
N1144  N     0.83333   0.04931   0.75000   0.00000  Uiso   1.00
O1145  O     0.77321   0.20625   0.74999   0.00000  Uiso   1.00
O1146  O     0.89345   0.12709   0.75000   0.00000  Uiso   1.00
O1147  O     0.89345   0.20625   0.75000   0.00000  Uiso   1.00
O1148  O     0.77321   0.12709   0.74999   0.00000  Uiso   1.00
O1149  O     0.83332   0.20627   0.68513   0.00000  Uiso   1.00
O1150  O     0.83334   0.12707   0.81487   0.00000  Uiso   1.00
O1151  O     0.83334   0.20627   0.81487   0.00000  Uiso   1.00
O1152  O     0.83332   0.12707   0.68513   0.00000  Uiso   1.00
C1153  C     0.71660   0.18455   0.53148   0.00000  Uiso   1.00
O1154  O     0.69257   0.21344   0.51515   0.00000  Uiso   1.00
O1155  O     0.70464   0.15569   0.56497   0.00000  Uiso   1.00
H1156  H     0.67602   0.16293   0.57375   0.00000  Uiso   1.00
C1157  C     0.94862   0.13974   0.96868   0.00000  Uiso   1.00
O1158  O     0.95970   0.16395   0.93887   0.00000  Uiso   1.00
O1159  O     0.97546   0.10671   0.98848   0.00000  Uiso   1.00
H1160  H     0.66935   0.10555   0.97462   0.00000  Uiso   1.00
C1161  C     0.79169   0.04795   0.67107   0.00000  Uiso   1.00
C1162  C     0.75087   0.07272   0.67598   0.00000  Uiso   1.00
C1163  C     0.71647   0.06276   0.63798   0.00000  Uiso   1.00
H1164  H     0.72696   0.07139   0.60466   0.00000  Uiso   1.00
H1165  H     0.70764   0.02654   0.63824   0.00000  Uiso   1.00
H1166  H     0.68872   0.08340   0.64296   0.00000  Uiso   1.00
H1167  H     0.73954   0.06184   0.70796   0.00000  Uiso   1.00
H1168  H     0.75612   0.10958   0.67464   0.00000  Uiso   1.00
H1169  H     0.81378   0.06542   0.65173   0.00000  Uiso   1.00
H1170  H     0.78281   0.02509   0.64381   0.00000  Uiso   1.00
C1171  C     0.87925   0.28357   0.82394   0.00000  Uiso   1.00
C1172  C     0.85806   0.28265   0.86894   0.00000  Uiso   1.00
C1173  C     0.88959   0.27243   0.90936   0.00000  Uiso   1.00
H1174  H     0.90659   0.24079   0.90352   0.00000  Uiso   1.00
H1175  H     0.91216   0.30057   0.91482   0.00000  Uiso   1.00
H1176  H     0.87348   0.26835   0.94028   0.00000  Uiso   1.00
H1177  H     0.84157   0.31438   0.87542   0.00000  Uiso   1.00
H1178  H     0.83260   0.25829   0.86878   0.00000  Uiso   1.00
H1179  H     0.88895   0.24981   0.81455   0.00000  Uiso   1.00
H1180  H     0.91038   0.29930   0.82939   0.00000  Uiso   1.00
C1181  C     0.87659   0.04761   0.82842   0.00000  Uiso   1.00
C1182  C     0.91773   0.07099   0.82209   0.00000  Uiso   1.00
C1183  C     0.95292   0.05978   0.85885   0.00000  Uiso   1.00
H1184  H     0.94388   0.06889   0.89270   0.00000  Uiso   1.00
H1185  H     0.96060   0.02324   0.85828   0.00000  Uiso   1.00
H1186  H     0.98099   0.07935   0.85276   0.00000  Uiso   1.00
H1187  H     0.92769   0.05998   0.78946   0.00000  Uiso   1.00
H1188  H     0.91342   0.10795   0.82395   0.00000  Uiso   1.00
H1189  H     0.85556   0.06628   0.84805   0.00000  Uiso   1.00
H1190  H     0.88548   0.02486   0.85614   0.00000  Uiso   1.00
C1191  C     0.78630   0.28383   0.67642   0.00000  Uiso   1.00
C1192  C     0.80586   0.28305   0.63038   0.00000  Uiso   1.00
C1193  C     0.77255   0.28226   0.58998   0.00000  Uiso   1.00
H1194  H     0.74943   0.25552   0.59445   0.00000  Uiso   1.00
H1195  H     0.75606   0.31506   0.58605   0.00000  Uiso   1.00
H1196  H     0.78707   0.27548   0.55846   0.00000  Uiso   1.00
H1197  H     0.82716   0.31186   0.62688   0.00000  Uiso   1.00
H1198  H     0.82629   0.25418   0.62676   0.00000  Uiso   1.00
H1199  H     0.77695   0.24989   0.68563   0.00000  Uiso   1.00
H1200  H     0.75533   0.30019   0.67220   0.00000  Uiso   1.00
C1201  C     0.08776   0.50012   0.75064   0.00000  Uiso   1.00
C1202  C     0.24557   0.50011   0.74935   0.00000  Uiso   1.00
C1203  C     0.09095   0.51234   0.51418   0.00000  Uiso   1.00
C1204  C     0.24100   0.47997   0.98571   0.00000  Uiso   1.00
C1205  C     0.02129   0.45982   0.75132   0.00000  Uiso   1.00
C1206  C     0.31197   0.54167   0.75033   0.00000  Uiso   1.00
C1207  C     0.31197   0.45987   0.74750   0.00000  Uiso   1.00
C1208  C     0.02140   0.54168   0.75073   0.00000  Uiso   1.00
C1209  C     0.29033   0.50058   0.74875   0.00000  Uiso   1.00
C1210  C     0.04299   0.50057   0.75122   0.00000  Uiso   1.00
C1211  C     0.14631   0.35779   0.71411   0.00000  Uiso   1.00
C1212  C     0.18726   0.64178   0.78530   0.00000  Uiso   1.00
C1213  C     0.18725   0.35770   0.78581   0.00000  Uiso   1.00
C1214  C     0.14598   0.64183   0.71468   0.00000  Uiso   1.00
C1215  C     0.16654   0.49978   0.66495   0.00000  Uiso   1.00
C1216  C     0.16678   0.49990   0.83506   0.00000  Uiso   1.00
C1217  C     0.20297   0.48819   0.91011   0.00000  Uiso   1.00
C1218  C     0.12906   0.50496   0.58980   0.00000  Uiso   1.00
C1219  C     0.16673   0.49936   0.88327   0.00000  Uiso   1.00
C1220  C     0.16622   0.49842   0.61672   0.00000  Uiso   1.00
C1221  C     0.13033   0.50922   0.90205   0.00000  Uiso   1.00
C1222  C     0.20265   0.48855   0.59803   0.00000  Uiso   1.00
C1223  C     0.12971   0.50748   0.94865   0.00000  Uiso   1.00
C1224  C     0.20273   0.48753   0.55134   0.00000  Uiso   1.00
C1225  C     0.16651   0.49747   0.97649   0.00000  Uiso   1.00
C1226  C     0.16568   0.49627   0.52344   0.00000  Uiso   1.00
C1227  C     0.20404   0.48878   0.95726   0.00000  Uiso   1.00
C1228  C     0.12798   0.50403   0.54264   0.00000  Uiso   1.00
C1229  C     0.09262   0.51497   0.96748   0.00000  Uiso   1.00
C1230  C     0.23960   0.47891   0.53248   0.00000  Uiso   1.00
Cu1231 Cu    0.16667   0.54689   0.75000   0.00000  Uiso   1.00
Cu1232 Cu    0.16667   0.45311   0.75000   0.00000  Uiso   1.00
H1233  H     0.22996   0.47947   0.89356   0.00000  Uiso   1.00
H1234  H     0.10171   0.51200   0.60642   0.00000  Uiso   1.00
H1235  H     0.10242   0.51726   0.88021   0.00000  Uiso   1.00
H1236  H     0.23096   0.48247   0.61995   0.00000  Uiso   1.00
H1237  H     0.06449   0.52170   0.94548   0.00000  Uiso   1.00
H1238  H     0.26776   0.47251   0.55449   0.00000  Uiso   1.00
H1239  H     0.03693   0.42774   0.75441   0.00000  Uiso   1.00
H1240  H     0.29600   0.57377   0.75097   0.00000  Uiso   1.00
H1241  H     0.29626   0.42789   0.74353   0.00000  Uiso   1.00
H1242  H     0.03742   0.57378   0.75101   0.00000  Uiso   1.00
N1243  N     0.16667   0.61736   0.75000   0.00000  Uiso   1.00
N1244  N     0.16667   0.38264   0.75000   0.00000  Uiso   1.00
O1245  O     0.10655   0.53958   0.74999   0.00000  Uiso   1.00
O1246  O     0.22679   0.46042   0.75000   0.00000  Uiso   1.00
O1247  O     0.22679   0.53958   0.75000   0.00000  Uiso   1.00
O1248  O     0.10655   0.46042   0.74999   0.00000  Uiso   1.00
O1249  O     0.16666   0.53960   0.68513   0.00000  Uiso   1.00
O1250  O     0.16668   0.46040   0.81487   0.00000  Uiso   1.00
O1251  O     0.16668   0.53960   0.81487   0.00000  Uiso   1.00
O1252  O     0.16666   0.46040   0.68513   0.00000  Uiso   1.00
C1253  C     0.04993   0.51789   0.53148   0.00000  Uiso   1.00
O1254  O     0.02591   0.54678   0.51515   0.00000  Uiso   1.00
O1255  O     0.03797   0.48902   0.56497   0.00000  Uiso   1.00
H1256  H     0.00936   0.49627   0.57375   0.00000  Uiso   1.00
C1257  C     0.28195   0.47307   0.96868   0.00000  Uiso   1.00
O1258  O     0.29303   0.49728   0.93887   0.00000  Uiso   1.00
O1259  O     0.30879   0.44005   0.98848   0.00000  Uiso   1.00
H1260  H     0.00269   0.43889   0.97462   0.00000  Uiso   1.00
C1261  C     0.12502   0.38128   0.67107   0.00000  Uiso   1.00
C1262  C     0.08420   0.40606   0.67598   0.00000  Uiso   1.00
C1263  C     0.04981   0.39609   0.63798   0.00000  Uiso   1.00
H1264  H     0.06029   0.40472   0.60466   0.00000  Uiso   1.00
H1265  H     0.04097   0.35987   0.63824   0.00000  Uiso   1.00
H1266  H     0.02206   0.41673   0.64296   0.00000  Uiso   1.00
H1267  H     0.07288   0.39517   0.70796   0.00000  Uiso   1.00
H1268  H     0.08945   0.44291   0.67464   0.00000  Uiso   1.00
H1269  H     0.14711   0.39876   0.65173   0.00000  Uiso   1.00
H1270  H     0.11615   0.35843   0.64381   0.00000  Uiso   1.00
C1271  C     0.21258   0.61690   0.82394   0.00000  Uiso   1.00
C1272  C     0.19139   0.61598   0.86894   0.00000  Uiso   1.00
C1273  C     0.22292   0.60577   0.90936   0.00000  Uiso   1.00
H1274  H     0.23993   0.57413   0.90352   0.00000  Uiso   1.00
H1275  H     0.24550   0.63390   0.91482   0.00000  Uiso   1.00
H1276  H     0.20682   0.60168   0.94028   0.00000  Uiso   1.00
H1277  H     0.17491   0.64771   0.87542   0.00000  Uiso   1.00
H1278  H     0.16593   0.59162   0.86878   0.00000  Uiso   1.00
H1279  H     0.22228   0.58314   0.81455   0.00000  Uiso   1.00
H1280  H     0.24372   0.63263   0.82939   0.00000  Uiso   1.00
C1281  C     0.20992   0.38094   0.82842   0.00000  Uiso   1.00
C1282  C     0.25106   0.40432   0.82209   0.00000  Uiso   1.00
C1283  C     0.28625   0.39311   0.85885   0.00000  Uiso   1.00
H1284  H     0.27722   0.40223   0.89270   0.00000  Uiso   1.00
H1285  H     0.29393   0.35658   0.85828   0.00000  Uiso   1.00
H1286  H     0.31432   0.41268   0.85276   0.00000  Uiso   1.00
H1287  H     0.26102   0.39332   0.78946   0.00000  Uiso   1.00
H1288  H     0.24675   0.44129   0.82395   0.00000  Uiso   1.00
H1289  H     0.18889   0.39961   0.84805   0.00000  Uiso   1.00
H1290  H     0.21882   0.35819   0.85614   0.00000  Uiso   1.00
C1291  C     0.11964   0.61716   0.67642   0.00000  Uiso   1.00
C1292  C     0.13919   0.61639   0.63038   0.00000  Uiso   1.00
C1293  C     0.10588   0.61560   0.58998   0.00000  Uiso   1.00
H1294  H     0.08276   0.58886   0.59445   0.00000  Uiso   1.00
H1295  H     0.08940   0.64839   0.58605   0.00000  Uiso   1.00
H1296  H     0.12040   0.60882   0.55846   0.00000  Uiso   1.00
H1297  H     0.16049   0.64519   0.62688   0.00000  Uiso   1.00
H1298  H     0.15962   0.58751   0.62676   0.00000  Uiso   1.00
H1299  H     0.11029   0.58322   0.68563   0.00000  Uiso   1.00
H1300  H     0.08867   0.63352   0.67220   0.00000  Uiso   1.00
C1301  C     0.42109   0.50012   0.75064   0.00000  Uiso   1.00
C1302  C     0.57891   0.50011   0.74935   0.00000  Uiso   1.00
C1303  C     0.42428   0.51234   0.51418   0.00000  Uiso   1.00
C1304  C     0.57433   0.47997   0.98571   0.00000  Uiso   1.00
C1305  C     0.35463   0.45982   0.75132   0.00000  Uiso   1.00
C1306  C     0.64530   0.54167   0.75033   0.00000  Uiso   1.00
C1307  C     0.64530   0.45987   0.74750   0.00000  Uiso   1.00
C1308  C     0.35474   0.54168   0.75073   0.00000  Uiso   1.00
C1309  C     0.62366   0.50058   0.74875   0.00000  Uiso   1.00
C1310  C     0.37633   0.50057   0.75122   0.00000  Uiso   1.00
C1311  C     0.47964   0.35779   0.71411   0.00000  Uiso   1.00
C1312  C     0.52060   0.64178   0.78530   0.00000  Uiso   1.00
C1313  C     0.52059   0.35770   0.78581   0.00000  Uiso   1.00
C1314  C     0.47931   0.64183   0.71468   0.00000  Uiso   1.00
C1315  C     0.49987   0.49978   0.66495   0.00000  Uiso   1.00
C1316  C     0.50012   0.49990   0.83506   0.00000  Uiso   1.00
C1317  C     0.53630   0.48819   0.91011   0.00000  Uiso   1.00
C1318  C     0.46239   0.50496   0.58980   0.00000  Uiso   1.00
C1319  C     0.50006   0.49936   0.88327   0.00000  Uiso   1.00
C1320  C     0.49955   0.49842   0.61672   0.00000  Uiso   1.00
C1321  C     0.46367   0.50922   0.90205   0.00000  Uiso   1.00
C1322  C     0.53598   0.48855   0.59803   0.00000  Uiso   1.00
C1323  C     0.46304   0.50748   0.94865   0.00000  Uiso   1.00
C1324  C     0.53606   0.48753   0.55134   0.00000  Uiso   1.00
C1325  C     0.49984   0.49747   0.97649   0.00000  Uiso   1.00
C1326  C     0.49901   0.49627   0.52344   0.00000  Uiso   1.00
C1327  C     0.53737   0.48878   0.95726   0.00000  Uiso   1.00
C1328  C     0.46131   0.50403   0.54264   0.00000  Uiso   1.00
C1329  C     0.42595   0.51497   0.96748   0.00000  Uiso   1.00
C1330  C     0.57293   0.47891   0.53248   0.00000  Uiso   1.00
Cu1331 Cu    0.50000   0.54689   0.75000   0.00000  Uiso   1.00
Cu1332 Cu    0.50000   0.45311   0.75000   0.00000  Uiso   1.00
H1333  H     0.56329   0.47947   0.89356   0.00000  Uiso   1.00
H1334  H     0.43505   0.51200   0.60642   0.00000  Uiso   1.00
H1335  H     0.43575   0.51726   0.88021   0.00000  Uiso   1.00
H1336  H     0.56429   0.48247   0.61995   0.00000  Uiso   1.00
H1337  H     0.39783   0.52170   0.94548   0.00000  Uiso   1.00
H1338  H     0.60109   0.47251   0.55449   0.00000  Uiso   1.00
H1339  H     0.37026   0.42774   0.75441   0.00000  Uiso   1.00
H1340  H     0.62934   0.57377   0.75097   0.00000  Uiso   1.00
H1341  H     0.62960   0.42789   0.74353   0.00000  Uiso   1.00
H1342  H     0.37075   0.57378   0.75101   0.00000  Uiso   1.00
N1343  N     0.50000   0.61736   0.75000   0.00000  Uiso   1.00
N1344  N     0.50000   0.38264   0.75000   0.00000  Uiso   1.00
O1345  O     0.43988   0.53958   0.74999   0.00000  Uiso   1.00
O1346  O     0.56012   0.46042   0.75000   0.00000  Uiso   1.00
O1347  O     0.56012   0.53958   0.75000   0.00000  Uiso   1.00
O1348  O     0.43988   0.46042   0.74999   0.00000  Uiso   1.00
O1349  O     0.49999   0.53960   0.68513   0.00000  Uiso   1.00
O1350  O     0.50001   0.46040   0.81487   0.00000  Uiso   1.00
O1351  O     0.50001   0.53960   0.81487   0.00000  Uiso   1.00
O1352  O     0.49999   0.46040   0.68513   0.00000  Uiso   1.00
C1353  C     0.38327   0.51789   0.53148   0.00000  Uiso   1.00
O1354  O     0.35924   0.54678   0.51515   0.00000  Uiso   1.00
O1355  O     0.37130   0.48902   0.56497   0.00000  Uiso   1.00
H1356  H     0.34269   0.49627   0.57375   0.00000  Uiso   1.00
C1357  C     0.61529   0.47307   0.96868   0.00000  Uiso   1.00
O1358  O     0.62636   0.49728   0.93887   0.00000  Uiso   1.00
O1359  O     0.64213   0.44005   0.98848   0.00000  Uiso   1.00
H1360  H     0.33602   0.43889   0.97462   0.00000  Uiso   1.00
C1361  C     0.45835   0.38128   0.67107   0.00000  Uiso   1.00
C1362  C     0.41753   0.40606   0.67598   0.00000  Uiso   1.00
C1363  C     0.38314   0.39609   0.63798   0.00000  Uiso   1.00
H1364  H     0.39363   0.40472   0.60466   0.00000  Uiso   1.00
H1365  H     0.37431   0.35987   0.63824   0.00000  Uiso   1.00
H1366  H     0.35539   0.41673   0.64296   0.00000  Uiso   1.00
H1367  H     0.40621   0.39517   0.70796   0.00000  Uiso   1.00
H1368  H     0.42279   0.44291   0.67464   0.00000  Uiso   1.00
H1369  H     0.48045   0.39876   0.65173   0.00000  Uiso   1.00
H1370  H     0.44948   0.35843   0.64381   0.00000  Uiso   1.00
C1371  C     0.54591   0.61690   0.82394   0.00000  Uiso   1.00
C1372  C     0.52473   0.61598   0.86894   0.00000  Uiso   1.00
C1373  C     0.55626   0.60577   0.90936   0.00000  Uiso   1.00
H1374  H     0.57326   0.57413   0.90352   0.00000  Uiso   1.00
H1375  H     0.57883   0.63390   0.91482   0.00000  Uiso   1.00
H1376  H     0.54015   0.60168   0.94028   0.00000  Uiso   1.00
H1377  H     0.50824   0.64771   0.87542   0.00000  Uiso   1.00
H1378  H     0.49926   0.59162   0.86878   0.00000  Uiso   1.00
H1379  H     0.55562   0.58314   0.81455   0.00000  Uiso   1.00
H1380  H     0.57705   0.63263   0.82939   0.00000  Uiso   1.00
C1381  C     0.54326   0.38094   0.82842   0.00000  Uiso   1.00
C1382  C     0.58440   0.40432   0.82209   0.00000  Uiso   1.00
C1383  C     0.61958   0.39311   0.85885   0.00000  Uiso   1.00
H1384  H     0.61055   0.40223   0.89270   0.00000  Uiso   1.00
H1385  H     0.62727   0.35658   0.85828   0.00000  Uiso   1.00
H1386  H     0.64765   0.41268   0.85276   0.00000  Uiso   1.00
H1387  H     0.59436   0.39332   0.78946   0.00000  Uiso   1.00
H1388  H     0.58008   0.44129   0.82395   0.00000  Uiso   1.00
H1389  H     0.52222   0.39961   0.84805   0.00000  Uiso   1.00
H1390  H     0.55215   0.35819   0.85614   0.00000  Uiso   1.00
C1391  C     0.45297   0.61716   0.67642   0.00000  Uiso   1.00
C1392  C     0.47252   0.61639   0.63038   0.00000  Uiso   1.00
C1393  C     0.43921   0.61560   0.58998   0.00000  Uiso   1.00
H1394  H     0.41610   0.58886   0.59445   0.00000  Uiso   1.00
H1395  H     0.42273   0.64839   0.58605   0.00000  Uiso   1.00
H1396  H     0.45374   0.60882   0.55846   0.00000  Uiso   1.00
H1397  H     0.49382   0.64519   0.62688   0.00000  Uiso   1.00
H1398  H     0.49296   0.58751   0.62676   0.00000  Uiso   1.00
H1399  H     0.44362   0.58322   0.68563   0.00000  Uiso   1.00
H1400  H     0.42200   0.63352   0.67220   0.00000  Uiso   1.00
C1401  C     0.75442   0.50012   0.75064   0.00000  Uiso   1.00
C1402  C     0.91224   0.50011   0.74935   0.00000  Uiso   1.00
C1403  C     0.75761   0.51234   0.51418   0.00000  Uiso   1.00
C1404  C     0.90767   0.47997   0.98571   0.00000  Uiso   1.00
C1405  C     0.68796   0.45982   0.75132   0.00000  Uiso   1.00
C1406  C     0.97864   0.54167   0.75033   0.00000  Uiso   1.00
C1407  C     0.97863   0.45987   0.74750   0.00000  Uiso   1.00
C1408  C     0.68807   0.54168   0.75073   0.00000  Uiso   1.00
C1409  C     0.95699   0.50058   0.74875   0.00000  Uiso   1.00
C1410  C     0.70966   0.50057   0.75122   0.00000  Uiso   1.00
C1411  C     0.81298   0.35779   0.71411   0.00000  Uiso   1.00
C1412  C     0.85393   0.64178   0.78530   0.00000  Uiso   1.00
C1413  C     0.85392   0.35770   0.78581   0.00000  Uiso   1.00
C1414  C     0.81264   0.64183   0.71468   0.00000  Uiso   1.00
C1415  C     0.83320   0.49978   0.66495   0.00000  Uiso   1.00
C1416  C     0.83345   0.49990   0.83506   0.00000  Uiso   1.00
C1417  C     0.86963   0.48819   0.91011   0.00000  Uiso   1.00
C1418  C     0.79573   0.50496   0.58980   0.00000  Uiso   1.00
C1419  C     0.83339   0.49936   0.88327   0.00000  Uiso   1.00
C1420  C     0.83289   0.49842   0.61672   0.00000  Uiso   1.00
C1421  C     0.79700   0.50922   0.90205   0.00000  Uiso   1.00
C1422  C     0.86932   0.48855   0.59803   0.00000  Uiso   1.00
C1423  C     0.79638   0.50748   0.94865   0.00000  Uiso   1.00
C1424  C     0.86939   0.48753   0.55134   0.00000  Uiso   1.00
C1425  C     0.83317   0.49747   0.97649   0.00000  Uiso   1.00
C1426  C     0.83235   0.49627   0.52344   0.00000  Uiso   1.00
C1427  C     0.87070   0.48878   0.95726   0.00000  Uiso   1.00
C1428  C     0.79464   0.50403   0.54264   0.00000  Uiso   1.00
C1429  C     0.75928   0.51497   0.96748   0.00000  Uiso   1.00
C1430  C     0.90626   0.47891   0.53248   0.00000  Uiso   1.00
Cu1431 Cu    0.83333   0.54689   0.75000   0.00000  Uiso   1.00
Cu1432 Cu    0.83333   0.45311   0.75000   0.00000  Uiso   1.00
H1433  H     0.89662   0.47947   0.89356   0.00000  Uiso   1.00
H1434  H     0.76838   0.51200   0.60642   0.00000  Uiso   1.00
H1435  H     0.76909   0.51726   0.88021   0.00000  Uiso   1.00
H1436  H     0.89763   0.48247   0.61995   0.00000  Uiso   1.00
H1437  H     0.73116   0.52170   0.94548   0.00000  Uiso   1.00
H1438  H     0.93443   0.47251   0.55449   0.00000  Uiso   1.00
H1439  H     0.70359   0.42774   0.75441   0.00000  Uiso   1.00
H1440  H     0.96267   0.57377   0.75097   0.00000  Uiso   1.00
H1441  H     0.96293   0.42789   0.74353   0.00000  Uiso   1.00
H1442  H     0.70408   0.57378   0.75101   0.00000  Uiso   1.00
N1443  N     0.83333   0.61736   0.75000   0.00000  Uiso   1.00
N1444  N     0.83333   0.38264   0.75000   0.00000  Uiso   1.00
O1445  O     0.77321   0.53958   0.74999   0.00000  Uiso   1.00
O1446  O     0.89345   0.46042   0.75000   0.00000  Uiso   1.00
O1447  O     0.89345   0.53958   0.75000   0.00000  Uiso   1.00
O1448  O     0.77321   0.46042   0.74999   0.00000  Uiso   1.00
O1449  O     0.83332   0.53960   0.68513   0.00000  Uiso   1.00
O1450  O     0.83334   0.46040   0.81487   0.00000  Uiso   1.00
O1451  O     0.83334   0.53960   0.81487   0.00000  Uiso   1.00
O1452  O     0.83332   0.46040   0.68513   0.00000  Uiso   1.00
C1453  C     0.71660   0.51789   0.53148   0.00000  Uiso   1.00
O1454  O     0.69257   0.54678   0.51515   0.00000  Uiso   1.00
O1455  O     0.70464   0.48902   0.56497   0.00000  Uiso   1.00
H1456  H     0.67602   0.49627   0.57375   0.00000  Uiso   1.00
C1457  C     0.94862   0.47307   0.96868   0.00000  Uiso   1.00
O1458  O     0.95970   0.49728   0.93887   0.00000  Uiso   1.00
O1459  O     0.97546   0.44005   0.98848   0.00000  Uiso   1.00
H1460  H     0.66935   0.43889   0.97462   0.00000  Uiso   1.00
C1461  C     0.79169   0.38128   0.67107   0.00000  Uiso   1.00
C1462  C     0.75087   0.40606   0.67598   0.00000  Uiso   1.00
C1463  C     0.71647   0.39609   0.63798   0.00000  Uiso   1.00
H1464  H     0.72696   0.40472   0.60466   0.00000  Uiso   1.00
H1465  H     0.70764   0.35987   0.63824   0.00000  Uiso   1.00
H1466  H     0.68872   0.41673   0.64296   0.00000  Uiso   1.00
H1467  H     0.73954   0.39517   0.70796   0.00000  Uiso   1.00
H1468  H     0.75612   0.44291   0.67464   0.00000  Uiso   1.00
H1469  H     0.81378   0.39876   0.65173   0.00000  Uiso   1.00
H1470  H     0.78281   0.35843   0.64381   0.00000  Uiso   1.00
C1471  C     0.87925   0.61690   0.82394   0.00000  Uiso   1.00
C1472  C     0.85806   0.61598   0.86894   0.00000  Uiso   1.00
C1473  C     0.88959   0.60577   0.90936   0.00000  Uiso   1.00
H1474  H     0.90659   0.57413   0.90352   0.00000  Uiso   1.00
H1475  H     0.91216   0.63390   0.91482   0.00000  Uiso   1.00
H1476  H     0.87348   0.60168   0.94028   0.00000  Uiso   1.00
H1477  H     0.84157   0.64771   0.87542   0.00000  Uiso   1.00
H1478  H     0.83260   0.59162   0.86878   0.00000  Uiso   1.00
H1479  H     0.88895   0.58314   0.81455   0.00000  Uiso   1.00
H1480  H     0.91038   0.63263   0.82939   0.00000  Uiso   1.00
C1481  C     0.87659   0.38094   0.82842   0.00000  Uiso   1.00
C1482  C     0.91773   0.40432   0.82209   0.00000  Uiso   1.00
C1483  C     0.95292   0.39311   0.85885   0.00000  Uiso   1.00
H1484  H     0.94388   0.40223   0.89270   0.00000  Uiso   1.00
H1485  H     0.96060   0.35658   0.85828   0.00000  Uiso   1.00
H1486  H     0.98099   0.41268   0.85276   0.00000  Uiso   1.00
H1487  H     0.92769   0.39332   0.78946   0.00000  Uiso   1.00
H1488  H     0.91342   0.44129   0.82395   0.00000  Uiso   1.00
H1489  H     0.85556   0.39961   0.84805   0.00000  Uiso   1.00
H1490  H     0.88548   0.35819   0.85614   0.00000  Uiso   1.00
C1491  C     0.78630   0.61716   0.67642   0.00000  Uiso   1.00
C1492  C     0.80586   0.61639   0.63038   0.00000  Uiso   1.00
C1493  C     0.77255   0.61560   0.58998   0.00000  Uiso   1.00
H1494  H     0.74943   0.58886   0.59445   0.00000  Uiso   1.00
H1495  H     0.75606   0.64839   0.58605   0.00000  Uiso   1.00
H1496  H     0.78707   0.60882   0.55846   0.00000  Uiso   1.00
H1497  H     0.82716   0.64519   0.62688   0.00000  Uiso   1.00
H1498  H     0.82629   0.58751   0.62676   0.00000  Uiso   1.00
H1499  H     0.77695   0.58322   0.68563   0.00000  Uiso   1.00
H1500  H     0.75533   0.63352   0.67220   0.00000  Uiso   1.00
C1501  C     0.08776   0.83345   0.75064   0.00000  Uiso   1.00
C1502  C     0.24557   0.83344   0.74935   0.00000  Uiso   1.00
C1503  C     0.09095   0.84567   0.51418   0.00000  Uiso   1.00
C1504  C     0.24100   0.81330   0.98571   0.00000  Uiso   1.00
C1505  C     0.02129   0.79316   0.75132   0.00000  Uiso   1.00
C1506  C     0.31197   0.87500   0.75033   0.00000  Uiso   1.00
C1507  C     0.31197   0.79320   0.74750   0.00000  Uiso   1.00
C1508  C     0.02140   0.87501   0.75073   0.00000  Uiso   1.00
C1509  C     0.29033   0.83392   0.74875   0.00000  Uiso   1.00
C1510  C     0.04299   0.83390   0.75122   0.00000  Uiso   1.00
C1511  C     0.14631   0.69112   0.71411   0.00000  Uiso   1.00
C1512  C     0.18726   0.97512   0.78530   0.00000  Uiso   1.00
C1513  C     0.18725   0.69103   0.78581   0.00000  Uiso   1.00
C1514  C     0.14598   0.97516   0.71468   0.00000  Uiso   1.00
C1515  C     0.16654   0.83311   0.66495   0.00000  Uiso   1.00
C1516  C     0.16678   0.83324   0.83506   0.00000  Uiso   1.00
C1517  C     0.20297   0.82153   0.91011   0.00000  Uiso   1.00
C1518  C     0.12906   0.83830   0.58980   0.00000  Uiso   1.00
C1519  C     0.16673   0.83269   0.88327   0.00000  Uiso   1.00
C1520  C     0.16622   0.83175   0.61672   0.00000  Uiso   1.00
C1521  C     0.13033   0.84256   0.90205   0.00000  Uiso   1.00
C1522  C     0.20265   0.82188   0.59803   0.00000  Uiso   1.00
C1523  C     0.12971   0.84081   0.94865   0.00000  Uiso   1.00
C1524  C     0.20273   0.82087   0.55134   0.00000  Uiso   1.00
C1525  C     0.16651   0.83080   0.97649   0.00000  Uiso   1.00
C1526  C     0.16568   0.82960   0.52344   0.00000  Uiso   1.00
C1527  C     0.20404   0.82212   0.95726   0.00000  Uiso   1.00
C1528  C     0.12798   0.83736   0.54264   0.00000  Uiso   1.00
C1529  C     0.09262   0.84830   0.96748   0.00000  Uiso   1.00
C1530  C     0.23960   0.81224   0.53248   0.00000  Uiso   1.00
Cu1531 Cu    0.16667   0.88022   0.75000   0.00000  Uiso   1.00
Cu1532 Cu    0.16667   0.78645   0.75000   0.00000  Uiso   1.00
H1533  H     0.22996   0.81281   0.89356   0.00000  Uiso   1.00
H1534  H     0.10171   0.84534   0.60642   0.00000  Uiso   1.00
H1535  H     0.10242   0.85060   0.88021   0.00000  Uiso   1.00
H1536  H     0.23096   0.81581   0.61995   0.00000  Uiso   1.00
H1537  H     0.06449   0.85504   0.94548   0.00000  Uiso   1.00
H1538  H     0.26776   0.80584   0.55449   0.00000  Uiso   1.00
H1539  H     0.03693   0.76107   0.75441   0.00000  Uiso   1.00
H1540  H     0.29600   0.90710   0.75097   0.00000  Uiso   1.00
H1541  H     0.29626   0.76122   0.74353   0.00000  Uiso   1.00
H1542  H     0.03742   0.90711   0.75101   0.00000  Uiso   1.00
N1543  N     0.16667   0.95069   0.75000   0.00000  Uiso   1.00
N1544  N     0.16667   0.71598   0.75000   0.00000  Uiso   1.00
O1545  O     0.10655   0.87291   0.74999   0.00000  Uiso   1.00
O1546  O     0.22679   0.79375   0.75000   0.00000  Uiso   1.00
O1547  O     0.22679   0.87291   0.75000   0.00000  Uiso   1.00
O1548  O     0.10655   0.79375   0.74999   0.00000  Uiso   1.00
O1549  O     0.16666   0.87293   0.68513   0.00000  Uiso   1.00
O1550  O     0.16668   0.79373   0.81487   0.00000  Uiso   1.00
O1551  O     0.16668   0.87293   0.81487   0.00000  Uiso   1.00
O1552  O     0.16666   0.79373   0.68513   0.00000  Uiso   1.00
C1553  C     0.04993   0.85122   0.53148   0.00000  Uiso   1.00
O1554  O     0.02591   0.88011   0.51515   0.00000  Uiso   1.00
O1555  O     0.03797   0.82235   0.56497   0.00000  Uiso   1.00
H1556  H     0.00936   0.82960   0.57375   0.00000  Uiso   1.00
C1557  C     0.28195   0.80641   0.96868   0.00000  Uiso   1.00
O1558  O     0.29303   0.83061   0.93887   0.00000  Uiso   1.00
O1559  O     0.30879   0.77338   0.98848   0.00000  Uiso   1.00
H1560  H     0.00269   0.77222   0.97462   0.00000  Uiso   1.00
C1561  C     0.12502   0.71461   0.67107   0.00000  Uiso   1.00
C1562  C     0.08420   0.73939   0.67598   0.00000  Uiso   1.00
C1563  C     0.04981   0.72943   0.63798   0.00000  Uiso   1.00
H1564  H     0.06029   0.73806   0.60466   0.00000  Uiso   1.00
H1565  H     0.04097   0.69320   0.63824   0.00000  Uiso   1.00
H1566  H     0.02206   0.75007   0.64296   0.00000  Uiso   1.00
H1567  H     0.07288   0.72850   0.70796   0.00000  Uiso   1.00
H1568  H     0.08945   0.77625   0.67464   0.00000  Uiso   1.00
H1569  H     0.14711   0.73209   0.65173   0.00000  Uiso   1.00
H1570  H     0.11615   0.69176   0.64381   0.00000  Uiso   1.00
C1571  C     0.21258   0.95024   0.82394   0.00000  Uiso   1.00
C1572  C     0.19139   0.94932   0.86894   0.00000  Uiso   1.00
C1573  C     0.22292   0.93910   0.90936   0.00000  Uiso   1.00
H1574  H     0.23993   0.90746   0.90352   0.00000  Uiso   1.00
H1575  H     0.24550   0.96723   0.91482   0.00000  Uiso   1.00
H1576  H     0.20682   0.93502   0.94028   0.00000  Uiso   1.00
H1577  H     0.17491   0.98105   0.87542   0.00000  Uiso   1.00
H1578  H     0.16593   0.92495   0.86878   0.00000  Uiso   1.00
H1579  H     0.22228   0.91648   0.81455   0.00000  Uiso   1.00
H1580  H     0.24372   0.96597   0.82939   0.00000  Uiso   1.00
C1581  C     0.20992   0.71427   0.82842   0.00000  Uiso   1.00
C1582  C     0.25106   0.73765   0.82209   0.00000  Uiso   1.00
C1583  C     0.28625   0.72645   0.85885   0.00000  Uiso   1.00
H1584  H     0.27722   0.73556   0.89270   0.00000  Uiso   1.00
H1585  H     0.29393   0.68991   0.85828   0.00000  Uiso   1.00
H1586  H     0.31432   0.74601   0.85276   0.00000  Uiso   1.00
H1587  H     0.26102   0.72665   0.78946   0.00000  Uiso   1.00
H1588  H     0.24675   0.77462   0.82395   0.00000  Uiso   1.00
H1589  H     0.18889   0.73294   0.84805   0.00000  Uiso   1.00
H1590  H     0.21882   0.69152   0.85614   0.00000  Uiso   1.00
C1591  C     0.11964   0.95050   0.67642   0.00000  Uiso   1.00
C1592  C     0.13919   0.94972   0.63038   0.00000  Uiso   1.00
C1593  C     0.10588   0.94893   0.58998   0.00000  Uiso   1.00
H1594  H     0.08276   0.92219   0.59445   0.00000  Uiso   1.00
H1595  H     0.08940   0.98173   0.58605   0.00000  Uiso   1.00
H1596  H     0.12040   0.94215   0.55846   0.00000  Uiso   1.00
H1597  H     0.16049   0.97852   0.62688   0.00000  Uiso   1.00
H1598  H     0.15962   0.92084   0.62676   0.00000  Uiso   1.00
H1599  H     0.11029   0.91655   0.68563   0.00000  Uiso   1.00
H1600  H     0.08867   0.96685   0.67220   0.00000  Uiso   1.00
C1601  C     0.42109   0.83345   0.75064   0.00000  Uiso   1.00
C1602  C     0.57891   0.83344   0.74935   0.00000  Uiso   1.00
C1603  C     0.42428   0.84567   0.51418   0.00000  Uiso   1.00
C1604  C     0.57433   0.81330   0.98571   0.00000  Uiso   1.00
C1605  C     0.35463   0.79316   0.75132   0.00000  Uiso   1.00
C1606  C     0.64530   0.87500   0.75033   0.00000  Uiso   1.00
C1607  C     0.64530   0.79320   0.74750   0.00000  Uiso   1.00
C1608  C     0.35474   0.87501   0.75073   0.00000  Uiso   1.00
C1609  C     0.62366   0.83392   0.74875   0.00000  Uiso   1.00
C1610  C     0.37633   0.83390   0.75122   0.00000  Uiso   1.00
C1611  C     0.47964   0.69112   0.71411   0.00000  Uiso   1.00
C1612  C     0.52060   0.97512   0.78530   0.00000  Uiso   1.00
C1613  C     0.52059   0.69103   0.78581   0.00000  Uiso   1.00
C1614  C     0.47931   0.97516   0.71468   0.00000  Uiso   1.00
C1615  C     0.49987   0.83311   0.66495   0.00000  Uiso   1.00
C1616  C     0.50012   0.83324   0.83506   0.00000  Uiso   1.00
C1617  C     0.53630   0.82153   0.91011   0.00000  Uiso   1.00
C1618  C     0.46239   0.83830   0.58980   0.00000  Uiso   1.00
C1619  C     0.50006   0.83269   0.88327   0.00000  Uiso   1.00
C1620  C     0.49955   0.83175   0.61672   0.00000  Uiso   1.00
C1621  C     0.46367   0.84256   0.90205   0.00000  Uiso   1.00
C1622  C     0.53598   0.82188   0.59803   0.00000  Uiso   1.00
C1623  C     0.46304   0.84081   0.94865   0.00000  Uiso   1.00
C1624  C     0.53606   0.82087   0.55134   0.00000  Uiso   1.00
C1625  C     0.49984   0.83080   0.97649   0.00000  Uiso   1.00
C1626  C     0.49901   0.82960   0.52344   0.00000  Uiso   1.00
C1627  C     0.53737   0.82212   0.95726   0.00000  Uiso   1.00
C1628  C     0.46131   0.83736   0.54264   0.00000  Uiso   1.00
C1629  C     0.42595   0.84830   0.96748   0.00000  Uiso   1.00
C1630  C     0.57293   0.81224   0.53248   0.00000  Uiso   1.00
Cu1631 Cu    0.50000   0.88022   0.75000   0.00000  Uiso   1.00
Cu1632 Cu    0.50000   0.78645   0.75000   0.00000  Uiso   1.00
H1633  H     0.56329   0.81281   0.89356   0.00000  Uiso   1.00
H1634  H     0.43505   0.84534   0.60642   0.00000  Uiso   1.00
H1635  H     0.43575   0.85060   0.88021   0.00000  Uiso   1.00
H1636  H     0.56429   0.81581   0.61995   0.00000  Uiso   1.00
H1637  H     0.39783   0.85504   0.94548   0.00000  Uiso   1.00
H1638  H     0.60109   0.80584   0.55449   0.00000  Uiso   1.00
H1639  H     0.37026   0.76107   0.75441   0.00000  Uiso   1.00
H1640  H     0.62934   0.90710   0.75097   0.00000  Uiso   1.00
H1641  H     0.62960   0.76122   0.74353   0.00000  Uiso   1.00
H1642  H     0.37075   0.90711   0.75101   0.00000  Uiso   1.00
N1643  N     0.50000   0.95069   0.75000   0.00000  Uiso   1.00
N1644  N     0.50000   0.71598   0.75000   0.00000  Uiso   1.00
O1645  O     0.43988   0.87291   0.74999   0.00000  Uiso   1.00
O1646  O     0.56012   0.79375   0.75000   0.00000  Uiso   1.00
O1647  O     0.56012   0.87291   0.75000   0.00000  Uiso   1.00
O1648  O     0.43988   0.79375   0.74999   0.00000  Uiso   1.00
O1649  O     0.49999   0.87293   0.68513   0.00000  Uiso   1.00
O1650  O     0.50001   0.79373   0.81487   0.00000  Uiso   1.00
O1651  O     0.50001   0.87293   0.81487   0.00000  Uiso   1.00
O1652  O     0.49999   0.79373   0.68513   0.00000  Uiso   1.00
C1653  C     0.38327   0.85122   0.53148   0.00000  Uiso   1.00
O1654  O     0.35924   0.88011   0.51515   0.00000  Uiso   1.00
O1655  O     0.37130   0.82235   0.56497   0.00000  Uiso   1.00
H1656  H     0.34269   0.82960   0.57375   0.00000  Uiso   1.00
C1657  C     0.61529   0.80641   0.96868   0.00000  Uiso   1.00
O1658  O     0.62636   0.83061   0.93887   0.00000  Uiso   1.00
O1659  O     0.64213   0.77338   0.98848   0.00000  Uiso   1.00
H1660  H     0.33602   0.77222   0.97462   0.00000  Uiso   1.00
C1661  C     0.45835   0.71461   0.67107   0.00000  Uiso   1.00
C1662  C     0.41753   0.73939   0.67598   0.00000  Uiso   1.00
C1663  C     0.38314   0.72943   0.63798   0.00000  Uiso   1.00
H1664  H     0.39363   0.73806   0.60466   0.00000  Uiso   1.00
H1665  H     0.37431   0.69320   0.63824   0.00000  Uiso   1.00
H1666  H     0.35539   0.75007   0.64296   0.00000  Uiso   1.00
H1667  H     0.40621   0.72850   0.70796   0.00000  Uiso   1.00
H1668  H     0.42279   0.77625   0.67464   0.00000  Uiso   1.00
H1669  H     0.48045   0.73209   0.65173   0.00000  Uiso   1.00
H1670  H     0.44948   0.69176   0.64381   0.00000  Uiso   1.00
C1671  C     0.54591   0.95024   0.82394   0.00000  Uiso   1.00
C1672  C     0.52473   0.94932   0.86894   0.00000  Uiso   1.00
C1673  C     0.55626   0.93910   0.90936   0.00000  Uiso   1.00
H1674  H     0.57326   0.90746   0.90352   0.00000  Uiso   1.00
H1675  H     0.57883   0.96723   0.91482   0.00000  Uiso   1.00
H1676  H     0.54015   0.93502   0.94028   0.00000  Uiso   1.00
H1677  H     0.50824   0.98105   0.87542   0.00000  Uiso   1.00
H1678  H     0.49926   0.92495   0.86878   0.00000  Uiso   1.00
H1679  H     0.55562   0.91648   0.81455   0.00000  Uiso   1.00
H1680  H     0.57705   0.96597   0.82939   0.00000  Uiso   1.00
C1681  C     0.54326   0.71427   0.82842   0.00000  Uiso   1.00
C1682  C     0.58440   0.73765   0.82209   0.00000  Uiso   1.00
C1683  C     0.61958   0.72645   0.85885   0.00000  Uiso   1.00
H1684  H     0.61055   0.73556   0.89270   0.00000  Uiso   1.00
H1685  H     0.62727   0.68991   0.85828   0.00000  Uiso   1.00
H1686  H     0.64765   0.74601   0.85276   0.00000  Uiso   1.00
H1687  H     0.59436   0.72665   0.78946   0.00000  Uiso   1.00
H1688  H     0.58008   0.77462   0.82395   0.00000  Uiso   1.00
H1689  H     0.52222   0.73294   0.84805   0.00000  Uiso   1.00
H1690  H     0.55215   0.69152   0.85614   0.00000  Uiso   1.00
C1691  C     0.45297   0.95050   0.67642   0.00000  Uiso   1.00
C1692  C     0.47252   0.94972   0.63038   0.00000  Uiso   1.00
C1693  C     0.43921   0.94893   0.58998   0.00000  Uiso   1.00
H1694  H     0.41610   0.92219   0.59445   0.00000  Uiso   1.00
H1695  H     0.42273   0.98173   0.58605   0.00000  Uiso   1.00
H1696  H     0.45374   0.94215   0.55846   0.00000  Uiso   1.00
H1697  H     0.49382   0.97852   0.62688   0.00000  Uiso   1.00
H1698  H     0.49296   0.92084   0.62676   0.00000  Uiso   1.00
H1699  H     0.44362   0.91655   0.68563   0.00000  Uiso   1.00
H1700  H     0.42200   0.96685   0.67220   0.00000  Uiso   1.00
C1701  C     0.75442   0.83345   0.75064   0.00000  Uiso   1.00
C1702  C     0.91224   0.83344   0.74935   0.00000  Uiso   1.00
C1703  C     0.75761   0.84567   0.51418   0.00000  Uiso   1.00
C1704  C     0.90767   0.81330   0.98571   0.00000  Uiso   1.00
C1705  C     0.68796   0.79316   0.75132   0.00000  Uiso   1.00
C1706  C     0.97864   0.87500   0.75033   0.00000  Uiso   1.00
C1707  C     0.97863   0.79320   0.74750   0.00000  Uiso   1.00
C1708  C     0.68807   0.87501   0.75073   0.00000  Uiso   1.00
C1709  C     0.95699   0.83392   0.74875   0.00000  Uiso   1.00
C1710  C     0.70966   0.83390   0.75122   0.00000  Uiso   1.00
C1711  C     0.81298   0.69112   0.71411   0.00000  Uiso   1.00
C1712  C     0.85393   0.97512   0.78530   0.00000  Uiso   1.00
C1713  C     0.85392   0.69103   0.78581   0.00000  Uiso   1.00
C1714  C     0.81264   0.97516   0.71468   0.00000  Uiso   1.00
C1715  C     0.83320   0.83311   0.66495   0.00000  Uiso   1.00
C1716  C     0.83345   0.83324   0.83506   0.00000  Uiso   1.00
C1717  C     0.86963   0.82153   0.91011   0.00000  Uiso   1.00
C1718  C     0.79573   0.83830   0.58980   0.00000  Uiso   1.00
C1719  C     0.83339   0.83269   0.88327   0.00000  Uiso   1.00
C1720  C     0.83289   0.83175   0.61672   0.00000  Uiso   1.00
C1721  C     0.79700   0.84256   0.90205   0.00000  Uiso   1.00
C1722  C     0.86932   0.82188   0.59803   0.00000  Uiso   1.00
C1723  C     0.79638   0.84081   0.94865   0.00000  Uiso   1.00
C1724  C     0.86939   0.82087   0.55134   0.00000  Uiso   1.00
C1725  C     0.83317   0.83080   0.97649   0.00000  Uiso   1.00
C1726  C     0.83235   0.82960   0.52344   0.00000  Uiso   1.00
C1727  C     0.87070   0.82212   0.95726   0.00000  Uiso   1.00
C1728  C     0.79464   0.83736   0.54264   0.00000  Uiso   1.00
C1729  C     0.75928   0.84830   0.96748   0.00000  Uiso   1.00
C1730  C     0.90626   0.81224   0.53248   0.00000  Uiso   1.00
Cu1731 Cu    0.83333   0.88022   0.75000   0.00000  Uiso   1.00
Cu1732 Cu    0.83333   0.78645   0.75000   0.00000  Uiso   1.00
H1733  H     0.89662   0.81281   0.89356   0.00000  Uiso   1.00
H1734  H     0.76838   0.84534   0.60642   0.00000  Uiso   1.00
H1735  H     0.76909   0.85060   0.88021   0.00000  Uiso   1.00
H1736  H     0.89763   0.81581   0.61995   0.00000  Uiso   1.00
H1737  H     0.73116   0.85504   0.94548   0.00000  Uiso   1.00
H1738  H     0.93443   0.80584   0.55449   0.00000  Uiso   1.00
H1739  H     0.70359   0.76107   0.75441   0.00000  Uiso   1.00
H1740  H     0.96267   0.90710   0.75097   0.00000  Uiso   1.00
H1741  H     0.96293   0.76122   0.74353   0.00000  Uiso   1.00
H1742  H     0.70408   0.90711   0.75101   0.00000  Uiso   1.00
N1743  N     0.83333   0.95069   0.75000   0.00000  Uiso   1.00
N1744  N     0.83333   0.71598   0.75000   0.00000  Uiso   1.00
O1745  O     0.77321   0.87291   0.74999   0.00000  Uiso   1.00
O1746  O     0.89345   0.79375   0.75000   0.00000  Uiso   1.00
O1747  O     0.89345   0.87291   0.75000   0.00000  Uiso   1.00
O1748  O     0.77321   0.79375   0.74999   0.00000  Uiso   1.00
O1749  O     0.83332   0.87293   0.68513   0.00000  Uiso   1.00
O1750  O     0.83334   0.79373   0.81487   0.00000  Uiso   1.00
O1751  O     0.83334   0.87293   0.81487   0.00000  Uiso   1.00
O1752  O     0.83332   0.79373   0.68513   0.00000  Uiso   1.00
C1753  C     0.71660   0.85122   0.53148   0.00000  Uiso   1.00
O1754  O     0.69257   0.88011   0.51515   0.00000  Uiso   1.00
O1755  O     0.70464   0.82235   0.56497   0.00000  Uiso   1.00
H1756  H     0.67602   0.82960   0.57375   0.00000  Uiso   1.00
C1757  C     0.94862   0.80641   0.96868   0.00000  Uiso   1.00
O1758  O     0.95970   0.83061   0.93887   0.00000  Uiso   1.00
O1759  O     0.97546   0.77338   0.98848   0.00000  Uiso   1.00
H1760  H     0.66935   0.77222   0.97462   0.00000  Uiso   1.00
C1761  C     0.79169   0.71461   0.67107   0.00000  Uiso   1.00
C1762  C     0.75087   0.73939   0.67598   0.00000  Uiso   1.00
C1763  C     0.71647   0.72943   0.63798   0.00000  Uiso   1.00
H1764  H     0.72696   0.73806   0.60466   0.00000  Uiso   1.00
H1765  H     0.70764   0.69320   0.63824   0.00000  Uiso   1.00
H1766  H     0.68872   0.75007   0.64296   0.00000  Uiso   1.00
H1767  H     0.73954   0.72850   0.70796   0.00000  Uiso   1.00
H1768  H     0.75612   0.77625   0.67464   0.00000  Uiso   1.00
H1769  H     0.81378   0.73209   0.65173   0.00000  Uiso   1.00
H1770  H     0.78281   0.69176   0.64381   0.00000  Uiso   1.00
C1771  C     0.87925   0.95024   0.82394   0.00000  Uiso   1.00
C1772  C     0.85806   0.94932   0.86894   0.00000  Uiso   1.00
C1773  C     0.88959   0.93910   0.90936   0.00000  Uiso   1.00
H1774  H     0.90659   0.90746   0.90352   0.00000  Uiso   1.00
H1775  H     0.91216   0.96723   0.91482   0.00000  Uiso   1.00
H1776  H     0.87348   0.93502   0.94028   0.00000  Uiso   1.00
H1777  H     0.84157   0.98105   0.87542   0.00000  Uiso   1.00
H1778  H     0.83260   0.92495   0.86878   0.00000  Uiso   1.00
H1779  H     0.88895   0.91648   0.81455   0.00000  Uiso   1.00
H1780  H     0.91038   0.96597   0.82939   0.00000  Uiso   1.00
C1781  C     0.87659   0.71427   0.82842   0.00000  Uiso   1.00
C1782  C     0.91773   0.73765   0.82209   0.00000  Uiso   1.00
C1783  C     0.95292   0.72645   0.85885   0.00000  Uiso   1.00
H1784  H     0.94388   0.73556   0.89270   0.00000  Uiso   1.00
H1785  H     0.96060   0.68991   0.85828   0.00000  Uiso   1.00
H1786  H     0.98099   0.74601   0.85276   0.00000  Uiso   1.00
H1787  H     0.92769   0.72665   0.78946   0.00000  Uiso   1.00
H1788  H     0.91342   0.77462   0.82395   0.00000  Uiso   1.00
H1789  H     0.85556   0.73294   0.84805   0.00000  Uiso   1.00
H1790  H     0.88548   0.69152   0.85614   0.00000  Uiso   1.00
C1791  C     0.78630   0.95050   0.67642   0.00000  Uiso   1.00
C1792  C     0.80586   0.94972   0.63038   0.00000  Uiso   1.00
C1793  C     0.77255   0.94893   0.58998   0.00000  Uiso   1.00
H1794  H     0.74943   0.92219   0.59445   0.00000  Uiso   1.00
H1795  H     0.75606   0.98173   0.58605   0.00000  Uiso   1.00
H1796  H     0.78707   0.94215   0.55846   0.00000  Uiso   1.00
H1797  H     0.82716   0.97852   0.62688   0.00000  Uiso   1.00
H1798  H     0.82629   0.92084   0.62676   0.00000  Uiso   1.00
H1799  H     0.77695   0.91655   0.68563   0.00000  Uiso   1.00
H1800  H     0.75533   0.96685   0.67220   0.00000  Uiso   1.00
loop_
_geom_bond_atom_site_label_1
_geom_bond_atom_site_label_2
_geom_bond_distance
_geom_bond_site_symmetry_2
_ccdc_geom_bond_type
C1     C10     1.455   .     S
C1     O48     1.325   .     A
C1     O45     1.319   .     A
C2     O46     1.325   .     A
C2     O47     1.319   .     A
C2     C9      1.455   .     S
C3     C28     1.418   .     A
C3     C53     1.485   .     S
C3     C929    1.398   1_554 S
C4     C57     1.485   .     S
C4     C27     1.419   .     A
C4     C930    1.397   .     S
C5     H39     1.076   .     S
C5     C10     1.397   .     A
C5     C207    1.378   1_455 S
C6     C9      1.403   .     A
C6     H40     1.083   .     S
C6     C108    1.387   .     S
C7     C9      1.397   .     A
C7     H41     1.076   .     S
C7     C105    1.378   .     S
C8     H42     1.083   .     S
C8     C10     1.403   .     A
C8     C206    1.387   1_455 S
C11    N44     1.405   .     A
C11    C61     1.555   .     S
C11    C614    1.459   1_545 S
C12    N43     1.389   .     A
C12    C71     1.531   .     S
C12    C313    1.458   .     S
C13    C81     1.559   .     S
C13    N44     1.407   .     A
C13    C612    1.458   1_545 S
C14    C91     1.536   .     S
C14    N43     1.390   .     A
C14    C311    1.459   .     S
C15    O49     1.323   .     A
C15    C20     1.434   .     S
C15    O52     1.311   .     A
C16    O51     1.320   .     A
C16    C19     1.435   .     S
C16    O50     1.314   .     A
C17    H33     1.080   .     S
C17    C27     1.400   .     A
C17    C19     1.392   .     A
C18    C20     1.391   .     A
C18    C28     1.400   .     A
C18    H34     1.080   .     S
C19    C21     1.389   .     A
C20    C22     1.389   .     A
C21    C23     1.390   .     A
C21    H35     1.085   .     S
C22    C24     1.390   .     A
C22    H36     1.085   .     S
C23    C29     1.397   .     A
C23    C25     1.413   .     A
C24    C26     1.413   .     A
C24    C30     1.397   .     A
C25    C27     1.422   .     A
C25    C926    1.401   .     S
C26    C28     1.422   .     A
C26    C925    1.401   1_554 S
C29    H37     1.085   .     S
C29    C903    1.398   .     S
C30    H38     1.085   .     S
C30    C904    1.397   1_554 S
Cu31   N43     2.086   .     S
Cu31   Cu32    2.776   .     S
Cu31   O47     1.964   .     S
Cu31   O49     1.942   .     S
Cu31   O51     1.942   .     S
Cu31   O45     1.964   .     S
Cu32   O48     1.964   .     S
Cu32   O52     1.942   .     S
Cu32   N44     2.086   .     S
Cu32   O50     1.942   .     S
Cu32   O46     1.964   .     S
C53    O54     1.223   .     D
C53    O55     1.398   .     S
O55    H56     1.014   .     S
C57    O59     1.398   .     S
C57    O58     1.223   .     D
O59    H160    1.014   .     S
H60    O259    1.014   1_455 S
C61    H70     1.072   .     S
C61    H69     1.095   .     S
C61    C62     1.535   .     S
C62    H67     1.103   .     S
C62    C63     1.533   .     S
C62    H68     1.106   .     S
C63    H65     1.110   .     S
C63    H66     1.111   .     S
C63    H64     1.111   .     S
C71    H79     1.093   .     S
C71    H80     1.110   .     S
C71    C72     1.568   .     S
C72    H77     1.108   .     S
C72    H78     1.097   .     S
C72    C73     1.527   .     S
C73    H74     1.110   .     S
C73    H75     1.111   .     S
C73    H76     1.111   .     S
C81    C82     1.534   .     S
C81    H89     1.093   .     S
C81    H90     1.080   .     S
C82    H87     1.104   .     S
C82    H88     1.105   .     S
C82    C83     1.534   .     S
C83    H84     1.111   .     S
C83    H85     1.110   .     S
C83    H86     1.111   .     S
C91    H100    1.111   .     S
C91    C92     1.568   .     S
C91    H99     1.093   .     S
C92    H98     1.094   .     S
C92    H97     1.110   .     S
C92    C93     1.531   .     S
C93    H94     1.109   .     S
C93    H95     1.109   .     S
C93    H96     1.111   .     S
C101   C110    1.455   .     S
C101   O148    1.325   .     A
C101   O145    1.319   .     A
C102   O146    1.325   .     A
C102   O147    1.319   .     A
C102   C109    1.455   .     S
C103   C128    1.418   .     A
C103   C153    1.485   .     S
C103   C1029   1.398   1_554 S
C104   C157    1.485   .     S
C104   C127    1.419   .     A
C104   C1030   1.397   .     S
C105   H139    1.076   .     S
C105   C110    1.397   .     A
C106   C109    1.403   .     A
C106   H140    1.083   .     S
C106   C208    1.387   .     S
C107   C109    1.397   .     A
C107   H141    1.076   .     S
C107   C205    1.378   .     S
C108   H142    1.083   .     S
C108   C110    1.403   .     A
C111   N144    1.405   .     A
C111   C161    1.555   .     S
C111   C714    1.459   1_545 S
C112   N143    1.389   .     A
C112   C171    1.531   .     S
C112   C413    1.458   .     S
C113   C181    1.559   .     S
C113   N144    1.407   .     A
C113   C712    1.458   1_545 S
C114   C191    1.536   .     S
C114   N143    1.390   .     A
C114   C411    1.459   .     S
C115   O149    1.323   .     A
C115   C120    1.434   .     S
C115   O152    1.311   .     A
C116   O151    1.320   .     A
C116   C119    1.435   .     S
C116   O150    1.314   .     A
C117   H133    1.080   .     S
C117   C127    1.400   .     A
C117   C119    1.392   .     A
C118   C120    1.391   .     A
C118   C128    1.400   .     A
C118   H134    1.080   .     S
C119   C121    1.389   .     A
C120   C122    1.389   .     A
C121   C123    1.390   .     A
C121   H135    1.085   .     S
C122   C124    1.390   .     A
C122   H136    1.085   .     S
C123   C129    1.397   .     A
C123   C125    1.413   .     A
C124   C126    1.413   .     A
C124   C130    1.397   .     A
C125   C127    1.422   .     A
C125   C1026   1.401   .     S
C126   C128    1.422   .     A
C126   C1025   1.401   1_554 S
C129   H137    1.085   .     S
C129   C1003   1.398   .     S
C130   H138    1.085   .     S
C130   C1004   1.397   1_554 S
Cu131  N143    2.086   .     S
Cu131  Cu132   2.776   .     S
Cu131  O147    1.964   .     S
Cu131  O149    1.942   .     S
Cu131  O151    1.942   .     S
Cu131  O145    1.964   .     S
Cu132  O148    1.964   .     S
Cu132  O152    1.942   .     S
Cu132  N144    2.086   .     S
Cu132  O150    1.942   .     S
Cu132  O146    1.964   .     S
C153   O154    1.223   .     D
C153   O155    1.398   .     S
O155   H156    1.014   .     S
C157   O159    1.398   .     S
C157   O158    1.223   .     D
O159   H260    1.014   .     S
C161   H170    1.072   .     S
C161   H169    1.095   .     S
C161   C162    1.535   .     S
C162   H167    1.103   .     S
C162   C163    1.533   .     S
C162   H168    1.106   .     S
C163   H165    1.110   .     S
C163   H166    1.111   .     S
C163   H164    1.111   .     S
C171   H179    1.093   .     S
C171   H180    1.110   .     S
C171   C172    1.568   .     S
C172   H177    1.108   .     S
C172   H178    1.097   .     S
C172   C173    1.527   .     S
C173   H174    1.110   .     S
C173   H175    1.111   .     S
C173   H176    1.111   .     S
C181   C182    1.534   .     S
C181   H189    1.093   .     S
C181   H190    1.080   .     S
C182   H187    1.104   .     S
C182   H188    1.105   .     S
C182   C183    1.534   .     S
C183   H184    1.111   .     S
C183   H185    1.110   .     S
C183   H186    1.111   .     S
C191   H200    1.111   .     S
C191   C192    1.568   .     S
C191   H199    1.093   .     S
C192   H198    1.094   .     S
C192   H197    1.110   .     S
C192   C193    1.531   .     S
C193   H194    1.109   .     S
C193   H195    1.109   .     S
C193   H196    1.111   .     S
C201   C210    1.455   .     S
C201   O248    1.325   .     A
C201   O245    1.319   .     A
C202   O246    1.325   .     A
C202   O247    1.319   .     A
C202   C209    1.455   .     S
C203   C228    1.418   .     A
C203   C253    1.485   .     S
C203   C1129   1.398   1_554 S
C204   C257    1.485   .     S
C204   C227    1.419   .     A
C204   C1130   1.397   .     S
C205   H239    1.076   .     S
C205   C210    1.397   .     A
C206   C209    1.403   .     A
C206   H240    1.083   .     S
C206   C8      1.387   1_655 S
C207   C209    1.397   .     A
C207   H241    1.076   .     S
C207   C5      1.378   1_655 S
C208   H242    1.083   .     S
C208   C210    1.403   .     A
C211   N244    1.405   .     A
C211   C261    1.555   .     S
C211   C814    1.459   1_545 S
C212   N243    1.389   .     A
C212   C271    1.531   .     S
C212   C513    1.458   .     S
C213   C281    1.559   .     S
C213   N244    1.407   .     A
C213   C812    1.458   1_545 S
C214   C291    1.536   .     S
C214   N243    1.390   .     A
C214   C511    1.459   .     S
C215   O249    1.323   .     A
C215   C220    1.434   .     S
C215   O252    1.311   .     A
C216   O251    1.320   .     A
C216   C219    1.435   .     S
C216   O250    1.314   .     A
C217   H233    1.080   .     S
C217   C227    1.400   .     A
C217   C219    1.392   .     A
C218   C220    1.391   .     A
C218   C228    1.400   .     A
C218   H234    1.080   .     S
C219   C221    1.389   .     A
C220   C222    1.389   .     A
C221   C223    1.390   .     A
C221   H235    1.085   .     S
C222   C224    1.390   .     A
C222   H236    1.085   .     S
C223   C229    1.397   .     A
C223   C225    1.413   .     A
C224   C226    1.413   .     A
C224   C230    1.397   .     A
C225   C227    1.422   .     A
C225   C1126   1.401   .     S
C226   C228    1.422   .     A
C226   C1125   1.401   1_554 S
C229   H237    1.085   .     S
C229   C1103   1.398   .     S
C230   H238    1.085   .     S
C230   C1104   1.397   1_554 S
Cu231  N243    2.086   .     S
Cu231  Cu232   2.776   .     S
Cu231  O247    1.964   .     S
Cu231  O249    1.942   .     S
Cu231  O251    1.942   .     S
Cu231  O245    1.964   .     S
Cu232  O248    1.964   .     S
Cu232  O252    1.942   .     S
Cu232  N244    2.086   .     S
Cu232  O250    1.942   .     S
Cu232  O246    1.964   .     S
C253   O254    1.223   .     D
C253   O255    1.398   .     S
O255   H256    1.014   .     S
C257   O259    1.398   .     S
C257   O258    1.223   .     D
O259   H60     1.014   1_655 S
C261   H270    1.072   .     S
C261   H269    1.095   .     S
C261   C262    1.535   .     S
C262   H267    1.103   .     S
C262   C263    1.533   .     S
C262   H268    1.106   .     S
C263   H265    1.110   .     S
C263   H266    1.111   .     S
C263   H264    1.111   .     S
C271   H279    1.093   .     S
C271   H280    1.110   .     S
C271   C272    1.568   .     S
C272   H277    1.108   .     S
C272   H278    1.097   .     S
C272   C273    1.527   .     S
C273   H274    1.110   .     S
C273   H275    1.111   .     S
C273   H276    1.111   .     S
C281   C282    1.534   .     S
C281   H289    1.093   .     S
C281   H290    1.080   .     S
C282   H287    1.104   .     S
C282   H288    1.105   .     S
C282   C283    1.534   .     S
C283   H284    1.111   .     S
C283   H285    1.110   .     S
C283   H286    1.111   .     S
C291   H300    1.111   .     S
C291   C292    1.568   .     S
C291   H299    1.093   .     S
C292   H298    1.094   .     S
C292   H297    1.110   .     S
C292   C293    1.531   .     S
C293   H294    1.109   .     S
C293   H295    1.109   .     S
C293   H296    1.111   .     S
C301   C310    1.455   .     S
C301   O348    1.325   .     A
C301   O345    1.319   .     A
C302   O346    1.325   .     A
C302   O347    1.319   .     A
C302   C309    1.455   .     S
C303   C328    1.418   .     A
C303   C353    1.485   .     S
C303   C1229   1.398   1_554 S
C304   C357    1.485   .     S
C304   C327    1.419   .     A
C304   C1230   1.397   .     S
C305   H339    1.076   .     S
C305   C310    1.397   .     A
C305   C507    1.378   1_455 S
C306   C309    1.403   .     A
C306   H340    1.083   .     S
C306   C408    1.387   .     S
C307   C309    1.397   .     A
C307   H341    1.076   .     S
C307   C405    1.378   .     S
C308   H342    1.083   .     S
C308   C310    1.403   .     A
C308   C506    1.387   1_455 S
C311   N344    1.405   .     A
C311   C361    1.555   .     S
C312   N343    1.389   .     A
C312   C371    1.531   .     S
C312   C613    1.458   .     S
C313   C381    1.559   .     S
C313   N344    1.407   .     A
C314   C391    1.536   .     S
C314   N343    1.390   .     A
C314   C611    1.459   .     S
C315   O349    1.323   .     A
C315   C320    1.434   .     S
C315   O352    1.311   .     A
C316   O351    1.320   .     A
C316   C319    1.435   .     S
C316   O350    1.314   .     A
C317   H333    1.080   .     S
C317   C327    1.400   .     A
C317   C319    1.392   .     A
C318   C320    1.391   .     A
C318   C328    1.400   .     A
C318   H334    1.080   .     S
C319   C321    1.389   .     A
C320   C322    1.389   .     A
C321   C323    1.390   .     A
C321   H335    1.085   .     S
C322   C324    1.390   .     A
C322   H336    1.085   .     S
C323   C329    1.397   .     A
C323   C325    1.413   .     A
C324   C326    1.413   .     A
C324   C330    1.397   .     A
C325   C327    1.422   .     A
C325   C1226   1.401   .     S
C326   C328    1.422   .     A
C326   C1225   1.401   1_554 S
C329   H337    1.085   .     S
C329   C1203   1.398   .     S
C330   H338    1.085   .     S
C330   C1204   1.397   1_554 S
Cu331  N343    2.086   .     S
Cu331  Cu332   2.776   .     S
Cu331  O347    1.964   .     S
Cu331  O349    1.942   .     S
Cu331  O351    1.942   .     S
Cu331  O345    1.964   .     S
Cu332  O348    1.964   .     S
Cu332  O352    1.942   .     S
Cu332  N344    2.086   .     S
Cu332  O350    1.942   .     S
Cu332  O346    1.964   .     S
C353   O354    1.223   .     D
C353   O355    1.398   .     S
O355   H356    1.014   .     S
C357   O359    1.398   .     S
C357   O358    1.223   .     D
O359   H460    1.014   .     S
H360   O559    1.014   1_455 S
C361   H370    1.072   .     S
C361   H369    1.095   .     S
C361   C362    1.535   .     S
C362   H367    1.103   .     S
C362   C363    1.533   .     S
C362   H368    1.106   .     S
C363   H365    1.110   .     S
C363   H366    1.111   .     S
C363   H364    1.111   .     S
C371   H379    1.093   .     S
C371   H380    1.110   .     S
C371   C372    1.568   .     S
C372   H377    1.108   .     S
C372   H378    1.097   .     S
C372   C373    1.527   .     S
C373   H374    1.110   .     S
C373   H375    1.111   .     S
C373   H376    1.111   .     S
C381   C382    1.534   .     S
C381   H389    1.093   .     S
C381   H390    1.080   .     S
C382   H387    1.104   .     S
C382   H388    1.105   .     S
C382   C383    1.534   .     S
C383   H384    1.111   .     S
C383   H385    1.110   .     S
C383   H386    1.111   .     S
C391   H400    1.111   .     S
C391   C392    1.568   .     S
C391   H399    1.093   .     S
C392   H398    1.094   .     S
C392   H397    1.110   .     S
C392   C393    1.531   .     S
C393   H394    1.109   .     S
C393   H395    1.109   .     S
C393   H396    1.111   .     S
C401   C410    1.455   .     S
C401   O448    1.325   .     A
C401   O445    1.319   .     A
C402   O446    1.325   .     A
C402   O447    1.319   .     A
C402   C409    1.455   .     S
C403   C428    1.418   .     A
C403   C453    1.485   .     S
C403   C1329   1.398   1_554 S
C404   C457    1.485   .     S
C404   C427    1.419   .     A
C404   C1330   1.397   .     S
C405   H439    1.076   .     S
C405   C410    1.397   .     A
C406   C409    1.403   .     A
C406   H440    1.083   .     S
C406   C508    1.387   .     S
C407   C409    1.397   .     A
C407   H441    1.076   .     S
C407   C505    1.378   .     S
C408   H442    1.083   .     S
C408   C410    1.403   .     A
C411   N444    1.405   .     A
C411   C461    1.555   .     S
C412   N443    1.389   .     A
C412   C471    1.531   .     S
C412   C713    1.458   .     S
C413   C481    1.559   .     S
C413   N444    1.407   .     A
C414   C491    1.536   .     S
C414   N443    1.390   .     A
C414   C711    1.459   .     S
C415   O449    1.323   .     A
C415   C420    1.434   .     S
C415   O452    1.311   .     A
C416   O451    1.320   .     A
C416   C419    1.435   .     S
C416   O450    1.314   .     A
C417   H433    1.080   .     S
C417   C427    1.400   .     A
C417   C419    1.392   .     A
C418   C420    1.391   .     A
C418   C428    1.400   .     A
C418   H434    1.080   .     S
C419   C421    1.389   .     A
C420   C422    1.389   .     A
C421   C423    1.390   .     A
C421   H435    1.085   .     S
C422   C424    1.390   .     A
C422   H436    1.085   .     S
C423   C429    1.397   .     A
C423   C425    1.413   .     A
C424   C426    1.413   .     A
C424   C430    1.397   .     A
C425   C427    1.422   .     A
C425   C1326   1.401   .     S
C426   C428    1.422   .     A
C426   C1325   1.401   1_554 S
C429   H437    1.085   .     S
C429   C1303   1.398   .     S
C430   H438    1.085   .     S
C430   C1304   1.397   1_554 S
Cu431  N443    2.086   .     S
Cu431  Cu432   2.776   .     S
Cu431  O447    1.964   .     S
Cu431  O449    1.942   .     S
Cu431  O451    1.942   .     S
Cu431  O445    1.964   .     S
Cu432  O448    1.964   .     S
Cu432  O452    1.942   .     S
Cu432  N444    2.086   .     S
Cu432  O450    1.942   .     S
Cu432  O446    1.964   .     S
C453   O454    1.223   .     D
C453   O455    1.398   .     S
O455   H456    1.014   .     S
C457   O459    1.398   .     S
C457   O458    1.223   .     D
O459   H560    1.014   .     S
C461   H470    1.072   .     S
C461   H469    1.095   .     S
C461   C462    1.535   .     S
C462   H467    1.103   .     S
C462   C463    1.533   .     S
C462   H468    1.106   .     S
C463   H465    1.110   .     S
C463   H466    1.111   .     S
C463   H464    1.111   .     S
C471   H479    1.093   .     S
C471   H480    1.110   .     S
C471   C472    1.568   .     S
C472   H477    1.108   .     S
C472   H478    1.097   .     S
C472   C473    1.527   .     S
C473   H474    1.110   .     S
C473   H475    1.111   .     S
C473   H476    1.111   .     S
C481   C482    1.534   .     S
C481   H489    1.093   .     S
C481   H490    1.080   .     S
C482   H487    1.104   .     S
C482   H488    1.105   .     S
C482   C483    1.534   .     S
C483   H484    1.111   .     S
C483   H485    1.110   .     S
C483   H486    1.111   .     S
C491   H500    1.111   .     S
C491   C492    1.568   .     S
C491   H499    1.093   .     S
C492   H498    1.094   .     S
C492   H497    1.110   .     S
C492   C493    1.531   .     S
C493   H494    1.109   .     S
C493   H495    1.109   .     S
C493   H496    1.111   .     S
C501   C510    1.455   .     S
C501   O548    1.325   .     A
C501   O545    1.319   .     A
C502   O546    1.325   .     A
C502   O547    1.319   .     A
C502   C509    1.455   .     S
C503   C528    1.418   .     A
C503   C553    1.485   .     S
C503   C1429   1.398   1_554 S
C504   C557    1.485   .     S
C504   C527    1.419   .     A
C504   C1430   1.397   .     S
C505   H539    1.076   .     S
C505   C510    1.397   .     A
C506   C509    1.403   .     A
C506   H540    1.083   .     S
C506   C308    1.387   1_655 S
C507   C509    1.397   .     A
C507   H541    1.076   .     S
C507   C305    1.378   1_655 S
C508   H542    1.083   .     S
C508   C510    1.403   .     A
C511   N544    1.405   .     A
C511   C561    1.555   .     S
C512   N543    1.389   .     A
C512   C571    1.531   .     S
C512   C813    1.458   .     S
C513   C581    1.559   .     S
C513   N544    1.407   .     A
C514   C591    1.536   .     S
C514   N543    1.390   .     A
C514   C811    1.459   .     S
C515   O549    1.323   .     A
C515   C520    1.434   .     S
C515   O552    1.311   .     A
C516   O551    1.320   .     A
C516   C519    1.435   .     S
C516   O550    1.314   .     A
C517   H533    1.080   .     S
C517   C527    1.400   .     A
C517   C519    1.392   .     A
C518   C520    1.391   .     A
C518   C528    1.400   .     A
C518   H534    1.080   .     S
C519   C521    1.389   .     A
C520   C522    1.389   .     A
C521   C523    1.390   .     A
C521   H535    1.085   .     S
C522   C524    1.390   .     A
C522   H536    1.085   .     S
C523   C529    1.397   .     A
C523   C525    1.413   .     A
C524   C526    1.413   .     A
C524   C530    1.397   .     A
C525   C527    1.422   .     A
C525   C1426   1.401   .     S
C526   C528    1.422   .     A
C526   C1425   1.401   1_554 S
C529   H537    1.085   .     S
C529   C1403   1.398   .     S
C530   H538    1.085   .     S
C530   C1404   1.397   1_554 S
Cu531  N543    2.086   .     S
Cu531  Cu532   2.776   .     S
Cu531  O547    1.964   .     S
Cu531  O549    1.942   .     S
Cu531  O551    1.942   .     S
Cu531  O545    1.964   .     S
Cu532  O548    1.964   .     S
Cu532  O552    1.942   .     S
Cu532  N544    2.086   .     S
Cu532  O550    1.942   .     S
Cu532  O546    1.964   .     S
C553   O554    1.223   .     D
C553   O555    1.398   .     S
O555   H556    1.014   .     S
C557   O559    1.398   .     S
C557   O558    1.223   .     D
O559   H360    1.014   1_655 S
C561   H570    1.072   .     S
C561   H569    1.095   .     S
C561   C562    1.535   .     S
C562   H567    1.103   .     S
C562   C563    1.533   .     S
C562   H568    1.106   .     S
C563   H565    1.110   .     S
C563   H566    1.111   .     S
C563   H564    1.111   .     S
C571   H579    1.093   .     S
C571   H580    1.110   .     S
C571   C572    1.568   .     S
C572   H577    1.108   .     S
C572   H578    1.097   .     S
C572   C573    1.527   .     S
C573   H574    1.110   .     S
C573   H575    1.111   .     S
C573   H576    1.111   .     S
C581   C582    1.534   .     S
C581   H589    1.093   .     S
C581   H590    1.080   .     S
C582   H587    1.104   .     S
C582   H588    1.105   .     S
C582   C583    1.534   .     S
C583   H584    1.111   .     S
C583   H585    1.110   .     S
C583   H586    1.111   .     S
C591   H600    1.111   .     S
C591   C592    1.568   .     S
C591   H599    1.093   .     S
C592   H598    1.094   .     S
C592   H597    1.110   .     S
C592   C593    1.531   .     S
C593   H594    1.109   .     S
C593   H595    1.109   .     S
C593   H596    1.111   .     S
C601   C610    1.455   .     S
C601   O648    1.325   .     A
C601   O645    1.319   .     A
C602   O646    1.325   .     A
C602   O647    1.319   .     A
C602   C609    1.455   .     S
C603   C628    1.418   .     A
C603   C653    1.485   .     S
C603   C1529   1.398   1_554 S
C604   C657    1.485   .     S
C604   C627    1.419   .     A
C604   C1530   1.397   .     S
C605   H639    1.076   .     S
C605   C610    1.397   .     A
C605   C807    1.378   1_455 S
C606   C609    1.403   .     A
C606   H640    1.083   .     S
C606   C708    1.387   .     S
C607   C609    1.397   .     A
C607   H641    1.076   .     S
C607   C705    1.378   .     S
C608   H642    1.083   .     S
C608   C610    1.403   .     A
C608   C806    1.387   1_455 S
C611   N644    1.405   .     A
C611   C661    1.555   .     S
C612   N643    1.389   .     A
C612   C671    1.531   .     S
C612   C13     1.458   1_565 S
C613   C681    1.559   .     S
C613   N644    1.407   .     A
C614   C691    1.536   .     S
C614   N643    1.390   .     A
C614   C11     1.459   1_565 S
C615   O649    1.323   .     A
C615   C620    1.434   .     S
C615   O652    1.311   .     A
C616   O651    1.320   .     A
C616   C619    1.435   .     S
C616   O650    1.314   .     A
C617   H633    1.080   .     S
C617   C627    1.400   .     A
C617   C619    1.392   .     A
C618   C620    1.391   .     A
C618   C628    1.400   .     A
C618   H634    1.080   .     S
C619   C621    1.389   .     A
C620   C622    1.389   .     A
C621   C623    1.390   .     A
C621   H635    1.085   .     S
C622   C624    1.390   .     A
C622   H636    1.085   .     S
C623   C629    1.397   .     A
C623   C625    1.413   .     A
C624   C626    1.413   .     A
C624   C630    1.397   .     A
C625   C627    1.422   .     A
C625   C1526   1.401   .     S
C626   C628    1.422   .     A
C626   C1525   1.401   1_554 S
C629   H637    1.085   .     S
C629   C1503   1.398   .     S
C630   H638    1.085   .     S
C630   C1504   1.397   1_554 S
Cu631  N643    2.086   .     S
Cu631  Cu632   2.776   .     S
Cu631  O647    1.964   .     S
Cu631  O649    1.942   .     S
Cu631  O651    1.942   .     S
Cu631  O645    1.964   .     S
Cu632  O648    1.964   .     S
Cu632  O652    1.942   .     S
Cu632  N644    2.086   .     S
Cu632  O650    1.942   .     S
Cu632  O646    1.964   .     S
C653   O654    1.223   .     D
C653   O655    1.398   .     S
O655   H656    1.014   .     S
C657   O659    1.398   .     S
C657   O658    1.223   .     D
O659   H760    1.014   .     S
H660   O859    1.014   1_455 S
C661   H670    1.072   .     S
C661   H669    1.095   .     S
C661   C662    1.535   .     S
C662   H667    1.103   .     S
C662   C663    1.533   .     S
C662   H668    1.106   .     S
C663   H665    1.110   .     S
C663   H666    1.111   .     S
C663   H664    1.111   .     S
C671   H679    1.093   .     S
C671   H680    1.110   .     S
C671   C672    1.568   .     S
C672   H677    1.108   .     S
C672   H678    1.097   .     S
C672   C673    1.527   .     S
C673   H674    1.110   .     S
C673   H675    1.111   .     S
C673   H676    1.111   .     S
C681   C682    1.534   .     S
C681   H689    1.093   .     S
C681   H690    1.080   .     S
C682   H687    1.104   .     S
C682   H688    1.105   .     S
C682   C683    1.534   .     S
C683   H684    1.111   .     S
C683   H685    1.110   .     S
C683   H686    1.111   .     S
C691   H700    1.111   .     S
C691   C692    1.568   .     S
C691   H699    1.093   .     S
C692   H698    1.094   .     S
C692   H697    1.110   .     S
C692   C693    1.531   .     S
C693   H694    1.109   .     S
C693   H695    1.109   .     S
C693   H696    1.111   .     S
C701   C710    1.455   .     S
C701   O748    1.325   .     A
C701   O745    1.319   .     A
C702   O746    1.325   .     A
C702   O747    1.319   .     A
C702   C709    1.455   .     S
C703   C728    1.418   .     A
C703   C753    1.485   .     S
C703   C1629   1.398   1_554 S
C704   C757    1.485   .     S
C704   C727    1.419   .     A
C704   C1630   1.397   .     S
C705   H739    1.076   .     S
C705   C710    1.397   .     A
C706   C709    1.403   .     A
C706   H740    1.083   .     S
C706   C808    1.387   .     S
C707   C709    1.397   .     A
C707   H741    1.076   .     S
C707   C805    1.378   .     S
C708   H742    1.083   .     S
C708   C710    1.403   .     A
C711   N744    1.405   .     A
C711   C761    1.555   .     S
C712   N743    1.389   .     A
C712   C771    1.531   .     S
C712   C113    1.458   1_565 S
C713   C781    1.559   .     S
C713   N744    1.407   .     A
C714   C791    1.536   .     S
C714   N743    1.390   .     A
C714   C111    1.459   1_565 S
C715   O749    1.323   .     A
C715   C720    1.434   .     S
C715   O752    1.311   .     A
C716   O751    1.320   .     A
C716   C719    1.435   .     S
C716   O750    1.314   .     A
C717   H733    1.080   .     S
C717   C727    1.400   .     A
C717   C719    1.392   .     A
C718   C720    1.391   .     A
C718   C728    1.400   .     A
C718   H734    1.080   .     S
C719   C721    1.389   .     A
C720   C722    1.389   .     A
C721   C723    1.390   .     A
C721   H735    1.085   .     S
C722   C724    1.390   .     A
C722   H736    1.085   .     S
C723   C729    1.397   .     A
C723   C725    1.413   .     A
C724   C726    1.413   .     A
C724   C730    1.397   .     A
C725   C727    1.422   .     A
C725   C1626   1.401   .     S
C726   C728    1.422   .     A
C726   C1625   1.401   1_554 S
C729   H737    1.085   .     S
C729   C1603   1.398   .     S
C730   H738    1.085   .     S
C730   C1604   1.397   1_554 S
Cu731  N743    2.086   .     S
Cu731  Cu732   2.776   .     S
Cu731  O747    1.964   .     S
Cu731  O749    1.942   .     S
Cu731  O751    1.942   .     S
Cu731  O745    1.964   .     S
Cu732  O748    1.964   .     S
Cu732  O752    1.942   .     S
Cu732  N744    2.086   .     S
Cu732  O750    1.942   .     S
Cu732  O746    1.964   .     S
C753   O754    1.223   .     D
C753   O755    1.398   .     S
O755   H756    1.014   .     S
C757   O759    1.398   .     S
C757   O758    1.223   .     D
O759   H860    1.014   .     S
C761   H770    1.072   .     S
C761   H769    1.095   .     S
C761   C762    1.535   .     S
C762   H767    1.103   .     S
C762   C763    1.533   .     S
C762   H768    1.106   .     S
C763   H765    1.110   .     S
C763   H766    1.111   .     S
C763   H764    1.111   .     S
C771   H779    1.093   .     S
C771   H780    1.110   .     S
C771   C772    1.568   .     S
C772   H777    1.108   .     S
C772   H778    1.097   .     S
C772   C773    1.527   .     S
C773   H774    1.110   .     S
C773   H775    1.111   .     S
C773   H776    1.111   .     S
C781   C782    1.534   .     S
C781   H789    1.093   .     S
C781   H790    1.080   .     S
C782   H787    1.104   .     S
C782   H788    1.105   .     S
C782   C783    1.534   .     S
C783   H784    1.111   .     S
C783   H785    1.110   .     S
C783   H786    1.111   .     S
C791   H800    1.111   .     S
C791   C792    1.568   .     S
C791   H799    1.093   .     S
C792   H798    1.094   .     S
C792   H797    1.110   .     S
C792   C793    1.531   .     S
C793   H794    1.109   .     S
C793   H795    1.109   .     S
C793   H796    1.111   .     S
C801   C810    1.455   .     S
C801   O848    1.325   .     A
C801   O845    1.319   .     A
C802   O846    1.325   .     A
C802   O847    1.319   .     A
C802   C809    1.455   .     S
C803   C828    1.418   .     A
C803   C853    1.485   .     S
C803   C1729   1.398   1_554 S
C804   C857    1.485   .     S
C804   C827    1.419   .     A
C804   C1730   1.397   .     S
C805   H839    1.076   .     S
C805   C810    1.397   .     A
C806   C809    1.403   .     A
C806   H840    1.083   .     S
C806   C608    1.387   1_655 S
C807   C809    1.397   .     A
C807   H841    1.076   .     S
C807   C605    1.378   1_655 S
C808   H842    1.083   .     S
C808   C810    1.403   .     A
C811   N844    1.405   .     A
C811   C861    1.555   .     S
C812   N843    1.389   .     A
C812   C871    1.531   .     S
C812   C213    1.458   1_565 S
C813   C881    1.559   .     S
C813   N844    1.407   .     A
C814   C891    1.536   .     S
C814   N843    1.390   .     A
C814   C211    1.459   1_565 S
C815   O849    1.323   .     A
C815   C820    1.434   .     S
C815   O852    1.311   .     A
C816   O851    1.320   .     A
C816   C819    1.435   .     S
C816   O850    1.314   .     A
C817   H833    1.080   .     S
C817   C827    1.400   .     A
C817   C819    1.392   .     A
C818   C820    1.391   .     A
C818   C828    1.400   .     A
C818   H834    1.080   .     S
C819   C821    1.389   .     A
C820   C822    1.389   .     A
C821   C823    1.390   .     A
C821   H835    1.085   .     S
C822   C824    1.390   .     A
C822   H836    1.085   .     S
C823   C829    1.397   .     A
C823   C825    1.413   .     A
C824   C826    1.413   .     A
C824   C830    1.397   .     A
C825   C827    1.422   .     A
C825   C1726   1.401   .     S
C826   C828    1.422   .     A
C826   C1725   1.401   1_554 S
C829   H837    1.085   .     S
C829   C1703   1.398   .     S
C830   H838    1.085   .     S
C830   C1704   1.397   1_554 S
Cu831  N843    2.086   .     S
Cu831  Cu832   2.776   .     S
Cu831  O847    1.964   .     S
Cu831  O849    1.942   .     S
Cu831  O851    1.942   .     S
Cu831  O845    1.964   .     S
Cu832  O848    1.964   .     S
Cu832  O852    1.942   .     S
Cu832  N844    2.086   .     S
Cu832  O850    1.942   .     S
Cu832  O846    1.964   .     S
C853   O854    1.223   .     D
C853   O855    1.398   .     S
O855   H856    1.014   .     S
C857   O859    1.398   .     S
C857   O858    1.223   .     D
O859   H660    1.014   1_655 S
C861   H870    1.072   .     S
C861   H869    1.095   .     S
C861   C862    1.535   .     S
C862   H867    1.103   .     S
C862   C863    1.533   .     S
C862   H868    1.106   .     S
C863   H865    1.110   .     S
C863   H866    1.111   .     S
C863   H864    1.111   .     S
C871   H879    1.093   .     S
C871   H880    1.110   .     S
C871   C872    1.568   .     S
C872   H877    1.108   .     S
C872   H878    1.097   .     S
C872   C873    1.527   .     S
C873   H874    1.110   .     S
C873   H875    1.111   .     S
C873   H876    1.111   .     S
C881   C882    1.534   .     S
C881   H889    1.093   .     S
C881   H890    1.080   .     S
C882   H887    1.104   .     S
C882   H888    1.105   .     S
C882   C883    1.534   .     S
C883   H884    1.111   .     S
C883   H885    1.110   .     S
C883   H886    1.111   .     S
C891   H900    1.111   .     S
C891   C892    1.568   .     S
C891   H899    1.093   .     S
C892   H898    1.094   .     S
C892   H897    1.110   .     S
C892   C893    1.531   .     S
C893   H894    1.109   .     S
C893   H895    1.109   .     S
C893   H896    1.111   .     S
C901   C910    1.455   .     S
C901   O948    1.325   .     A
C901   O945    1.319   .     A
C902   O946    1.325   .     A
C902   O947    1.319   .     A
C902   C909    1.455   .     S
C903   C928    1.418   .     A
C903   C953    1.485   .     S
C904   C957    1.485   .     S
C904   C927    1.419   .     A
C904   C30     1.397   1_556 S
C905   H939    1.076   .     S
C905   C910    1.397   .     A
C905   C1107   1.378   1_455 S
C906   C909    1.403   .     A
C906   H940    1.083   .     S
C906   C1008   1.387   .     S
C907   C909    1.397   .     A
C907   H941    1.076   .     S
C907   C1005   1.378   .     S
C908   H942    1.083   .     S
C908   C910    1.403   .     A
C908   C1106   1.387   1_455 S
C911   N944    1.405   .     A
C911   C961    1.555   .     S
C911   C1514   1.459   1_545 S
C912   N943    1.389   .     A
C912   C971    1.531   .     S
C912   C1213   1.458   .     S
C913   C981    1.559   .     S
C913   N944    1.407   .     A
C913   C1512   1.458   1_545 S
C914   C991    1.536   .     S
C914   N943    1.390   .     A
C914   C1211   1.459   .     S
C915   O949    1.323   .     A
C915   C920    1.434   .     S
C915   O952    1.311   .     A
C916   O951    1.320   .     A
C916   C919    1.435   .     S
C916   O950    1.314   .     A
C917   H933    1.080   .     S
C917   C927    1.400   .     A
C917   C919    1.392   .     A
C918   C920    1.391   .     A
C918   C928    1.400   .     A
C918   H934    1.080   .     S
C919   C921    1.389   .     A
C920   C922    1.389   .     A
C921   C923    1.390   .     A
C921   H935    1.085   .     S
C922   C924    1.390   .     A
C922   H936    1.085   .     S
C923   C929    1.397   .     A
C923   C925    1.413   .     A
C924   C926    1.413   .     A
C924   C930    1.397   .     A
C925   C927    1.422   .     A
C925   C26     1.401   1_556 S
C926   C928    1.422   .     A
C929   H937    1.085   .     S
C929   C3      1.398   1_556 S
C930   H938    1.085   .     S
Cu931  N943    2.086   .     S
Cu931  Cu932   2.776   .     S
Cu931  O947    1.964   .     S
Cu931  O949    1.942   .     S
Cu931  O951    1.942   .     S
Cu931  O945    1.964   .     S
Cu932  O948    1.964   .     S
Cu932  O952    1.942   .     S
Cu932  N944    2.086   .     S
Cu932  O950    1.942   .     S
Cu932  O946    1.964   .     S
C953   O954    1.223   .     D
C953   O955    1.398   .     S
O955   H956    1.014   .     S
C957   O959    1.398   .     S
C957   O958    1.223   .     D
O959   H1060   1.014   .     S
H960   O1159   1.014   1_455 S
C961   H970    1.072   .     S
C961   H969    1.095   .     S
C961   C962    1.535   .     S
C962   H967    1.103   .     S
C962   C963    1.533   .     S
C962   H968    1.106   .     S
C963   H965    1.110   .     S
C963   H966    1.111   .     S
C963   H964    1.111   .     S
C971   H979    1.093   .     S
C971   H980    1.110   .     S
C971   C972    1.568   .     S
C972   H977    1.108   .     S
C972   H978    1.097   .     S
C972   C973    1.527   .     S
C973   H974    1.110   .     S
C973   H975    1.111   .     S
C973   H976    1.111   .     S
C981   C982    1.534   .     S
C981   H989    1.093   .     S
C981   H990    1.080   .     S
C982   H987    1.104   .     S
C982   H988    1.105   .     S
C982   C983    1.534   .     S
C983   H984    1.111   .     S
C983   H985    1.110   .     S
C983   H986    1.111   .     S
C991   H1000   1.111   .     S
C991   C992    1.568   .     S
C991   H999    1.093   .     S
C992   H998    1.094   .     S
C992   H997    1.110   .     S
C992   C993    1.531   .     S
C993   H994    1.109   .     S
C993   H995    1.109   .     S
C993   H996    1.111   .     S
C1001  C1010   1.455   .     S
C1001  O1048   1.325   .     A
C1001  O1045   1.319   .     A
C1002  O1046   1.325   .     A
C1002  O1047   1.319   .     A
C1002  C1009   1.455   .     S
C1003  C1028   1.418   .     A
C1003  C1053   1.485   .     S
C1004  C1057   1.485   .     S
C1004  C1027   1.419   .     A
C1004  C130    1.397   1_556 S
C1005  H1039   1.076   .     S
C1005  C1010   1.397   .     A
C1006  C1009   1.403   .     A
C1006  H1040   1.083   .     S
C1006  C1108   1.387   .     S
C1007  C1009   1.397   .     A
C1007  H1041   1.076   .     S
C1007  C1105   1.378   .     S
C1008  H1042   1.083   .     S
C1008  C1010   1.403   .     A
C1011  N1044   1.405   .     A
C1011  C1061   1.555   .     S
C1011  C1614   1.459   1_545 S
C1012  N1043   1.389   .     A
C1012  C1071   1.531   .     S
C1012  C1313   1.458   .     S
C1013  C1081   1.559   .     S
C1013  N1044   1.407   .     A
C1013  C1612   1.458   1_545 S
C1014  C1091   1.536   .     S
C1014  N1043   1.390   .     A
C1014  C1311   1.459   .     S
C1015  O1049   1.323   .     A
C1015  C1020   1.434   .     S
C1015  O1052   1.311   .     A
C1016  O1051   1.320   .     A
C1016  C1019   1.435   .     S
C1016  O1050   1.314   .     A
C1017  H1033   1.080   .     S
C1017  C1027   1.400   .     A
C1017  C1019   1.392   .     A
C1018  C1020   1.391   .     A
C1018  C1028   1.400   .     A
C1018  H1034   1.080   .     S
C1019  C1021   1.389   .     A
C1020  C1022   1.389   .     A
C1021  C1023   1.390   .     A
C1021  H1035   1.085   .     S
C1022  C1024   1.390   .     A
C1022  H1036   1.085   .     S
C1023  C1029   1.397   .     A
C1023  C1025   1.413   .     A
C1024  C1026   1.413   .     A
C1024  C1030   1.397   .     A
C1025  C1027   1.422   .     A
C1025  C126    1.401   1_556 S
C1026  C1028   1.422   .     A
C1029  H1037   1.085   .     S
C1029  C103    1.398   1_556 S
C1030  H1038   1.085   .     S
Cu1031 N1043   2.086   .     S
Cu1031 Cu1032  2.776   .     S
Cu1031 O1047   1.964   .     S
Cu1031 O1049   1.942   .     S
Cu1031 O1051   1.942   .     S
Cu1031 O1045   1.964   .     S
Cu1032 O1048   1.964   .     S
Cu1032 O1052   1.942   .     S
Cu1032 N1044   2.086   .     S
Cu1032 O1050   1.942   .     S
Cu1032 O1046   1.964   .     S
C1053  O1054   1.223   .     D
C1053  O1055   1.398   .     S
O1055  H1056   1.014   .     S
C1057  O1059   1.398   .     S
C1057  O1058   1.223   .     D
O1059  H1160   1.014   .     S
C1061  H1070   1.072   .     S
C1061  H1069   1.095   .     S
C1061  C1062   1.535   .     S
C1062  H1067   1.103   .     S
C1062  C1063   1.533   .     S
C1062  H1068   1.106   .     S
C1063  H1065   1.110   .     S
C1063  H1066   1.111   .     S
C1063  H1064   1.111   .     S
C1071  H1079   1.093   .     S
C1071  H1080   1.110   .     S
C1071  C1072   1.568   .     S
C1072  H1077   1.108   .     S
C1072  H1078   1.097   .     S
C1072  C1073   1.527   .     S
C1073  H1074   1.110   .     S
C1073  H1075   1.111   .     S
C1073  H1076   1.111   .     S
C1081  C1082   1.534   .     S
C1081  H1089   1.093   .     S
C1081  H1090   1.080   .     S
C1082  H1087   1.104   .     S
C1082  H1088   1.105   .     S
C1082  C1083   1.534   .     S
C1083  H1084   1.111   .     S
C1083  H1085   1.110   .     S
C1083  H1086   1.111   .     S
C1091  H1100   1.111   .     S
C1091  C1092   1.568   .     S
C1091  H1099   1.093   .     S
C1092  H1098   1.094   .     S
C1092  H1097   1.110   .     S
C1092  C1093   1.531   .     S
C1093  H1094   1.109   .     S
C1093  H1095   1.109   .     S
C1093  H1096   1.111   .     S
C1101  C1110   1.455   .     S
C1101  O1148   1.325   .     A
C1101  O1145   1.319   .     A
C1102  O1146   1.325   .     A
C1102  O1147   1.319   .     A
C1102  C1109   1.455   .     S
C1103  C1128   1.418   .     A
C1103  C1153   1.485   .     S
C1104  C1157   1.485   .     S
C1104  C1127   1.419   .     A
C1104  C230    1.397   1_556 S
C1105  H1139   1.076   .     S
C1105  C1110   1.397   .     A
C1106  C1109   1.403   .     A
C1106  H1140   1.083   .     S
C1106  C908    1.387   1_655 S
C1107  C1109   1.397   .     A
C1107  H1141   1.076   .     S
C1107  C905    1.378   1_655 S
C1108  H1142   1.083   .     S
C1108  C1110   1.403   .     A
C1111  N1144   1.405   .     A
C1111  C1161   1.555   .     S
C1111  C1714   1.459   1_545 S
C1112  N1143   1.389   .     A
C1112  C1171   1.531   .     S
C1112  C1413   1.458   .     S
C1113  C1181   1.559   .     S
C1113  N1144   1.407   .     A
C1113  C1712   1.458   1_545 S
C1114  C1191   1.536   .     S
C1114  N1143   1.390   .     A
C1114  C1411   1.459   .     S
C1115  O1149   1.323   .     A
C1115  C1120   1.434   .     S
C1115  O1152   1.311   .     A
C1116  O1151   1.320   .     A
C1116  C1119   1.435   .     S
C1116  O1150   1.314   .     A
C1117  H1133   1.080   .     S
C1117  C1127   1.400   .     A
C1117  C1119   1.392   .     A
C1118  C1120   1.391   .     A
C1118  C1128   1.400   .     A
C1118  H1134   1.080   .     S
C1119  C1121   1.389   .     A
C1120  C1122   1.389   .     A
C1121  C1123   1.390   .     A
C1121  H1135   1.085   .     S
C1122  C1124   1.390   .     A
C1122  H1136   1.085   .     S
C1123  C1129   1.397   .     A
C1123  C1125   1.413   .     A
C1124  C1126   1.413   .     A
C1124  C1130   1.397   .     A
C1125  C1127   1.422   .     A
C1125  C226    1.401   1_556 S
C1126  C1128   1.422   .     A
C1129  H1137   1.085   .     S
C1129  C203    1.398   1_556 S
C1130  H1138   1.085   .     S
Cu1131 N1143   2.086   .     S
Cu1131 Cu1132  2.776   .     S
Cu1131 O1147   1.964   .     S
Cu1131 O1149   1.942   .     S
Cu1131 O1151   1.942   .     S
Cu1131 O1145   1.964   .     S
Cu1132 O1148   1.964   .     S
Cu1132 O1152   1.942   .     S
Cu1132 N1144   2.086   .     S
Cu1132 O1150   1.942   .     S
Cu1132 O1146   1.964   .     S
C1153  O1154   1.223   .     D
C1153  O1155   1.398   .     S
O1155  H1156   1.014   .     S
C1157  O1159   1.398   .     S
C1157  O1158   1.223   .     D
O1159  H960    1.014   1_655 S
C1161  H1170   1.072   .     S
C1161  H1169   1.095   .     S
C1161  C1162   1.535   .     S
C1162  H1167   1.103   .     S
C1162  C1163   1.533   .     S
C1162  H1168   1.106   .     S
C1163  H1165   1.110   .     S
C1163  H1166   1.111   .     S
C1163  H1164   1.111   .     S
C1171  H1179   1.093   .     S
C1171  H1180   1.110   .     S
C1171  C1172   1.568   .     S
C1172  H1177   1.108   .     S
C1172  H1178   1.097   .     S
C1172  C1173   1.527   .     S
C1173  H1174   1.110   .     S
C1173  H1175   1.111   .     S
C1173  H1176   1.111   .     S
C1181  C1182   1.534   .     S
C1181  H1189   1.093   .     S
C1181  H1190   1.080   .     S
C1182  H1187   1.104   .     S
C1182  H1188   1.105   .     S
C1182  C1183   1.534   .     S
C1183  H1184   1.111   .     S
C1183  H1185   1.110   .     S
C1183  H1186   1.111   .     S
C1191  H1200   1.111   .     S
C1191  C1192   1.568   .     S
C1191  H1199   1.093   .     S
C1192  H1198   1.094   .     S
C1192  H1197   1.110   .     S
C1192  C1193   1.531   .     S
C1193  H1194   1.109   .     S
C1193  H1195   1.109   .     S
C1193  H1196   1.111   .     S
C1201  C1210   1.455   .     S
C1201  O1248   1.325   .     A
C1201  O1245   1.319   .     A
C1202  O1246   1.325   .     A
C1202  O1247   1.319   .     A
C1202  C1209   1.455   .     S
C1203  C1228   1.418   .     A
C1203  C1253   1.485   .     S
C1204  C1257   1.485   .     S
C1204  C1227   1.419   .     A
C1204  C330    1.397   1_556 S
C1205  H1239   1.076   .     S
C1205  C1210   1.397   .     A
C1205  C1407   1.378   1_455 S
C1206  C1209   1.403   .     A
C1206  H1240   1.083   .     S
C1206  C1308   1.387   .     S
C1207  C1209   1.397   .     A
C1207  H1241   1.076   .     S
C1207  C1305   1.378   .     S
C1208  H1242   1.083   .     S
C1208  C1210   1.403   .     A
C1208  C1406   1.387   1_455 S
C1211  N1244   1.405   .     A
C1211  C1261   1.555   .     S
C1212  N1243   1.389   .     A
C1212  C1271   1.531   .     S
C1212  C1513   1.458   .     S
C1213  C1281   1.559   .     S
C1213  N1244   1.407   .     A
C1214  C1291   1.536   .     S
C1214  N1243   1.390   .     A
C1214  C1511   1.459   .     S
C1215  O1249   1.323   .     A
C1215  C1220   1.434   .     S
C1215  O1252   1.311   .     A
C1216  O1251   1.320   .     A
C1216  C1219   1.435   .     S
C1216  O1250   1.314   .     A
C1217  H1233   1.080   .     S
C1217  C1227   1.400   .     A
C1217  C1219   1.392   .     A
C1218  C1220   1.391   .     A
C1218  C1228   1.400   .     A
C1218  H1234   1.080   .     S
C1219  C1221   1.389   .     A
C1220  C1222   1.389   .     A
C1221  C1223   1.390   .     A
C1221  H1235   1.085   .     S
C1222  C1224   1.390   .     A
C1222  H1236   1.085   .     S
C1223  C1229   1.397   .     A
C1223  C1225   1.413   .     A
C1224  C1226   1.413   .     A
C1224  C1230   1.397   .     A
C1225  C1227   1.422   .     A
C1225  C326    1.401   1_556 S
C1226  C1228   1.422   .     A
C1229  H1237   1.085   .     S
C1229  C303    1.398   1_556 S
C1230  H1238   1.085   .     S
Cu1231 N1243   2.086   .     S
Cu1231 Cu1232  2.776   .     S
Cu1231 O1247   1.964   .     S
Cu1231 O1249   1.942   .     S
Cu1231 O1251   1.942   .     S
Cu1231 O1245   1.964   .     S
Cu1232 O1248   1.964   .     S
Cu1232 O1252   1.942   .     S
Cu1232 N1244   2.086   .     S
Cu1232 O1250   1.942   .     S
Cu1232 O1246   1.964   .     S
C1253  O1254   1.223   .     D
C1253  O1255   1.398   .     S
O1255  H1256   1.014   .     S
C1257  O1259   1.398   .     S
C1257  O1258   1.223   .     D
O1259  H1360   1.014   .     S
H1260  O1459   1.014   1_455 S
C1261  H1270   1.072   .     S
C1261  H1269   1.095   .     S
C1261  C1262   1.535   .     S
C1262  H1267   1.103   .     S
C1262  C1263   1.533   .     S
C1262  H1268   1.106   .     S
C1263  H1265   1.110   .     S
C1263  H1266   1.111   .     S
C1263  H1264   1.111   .     S
C1271  H1279   1.093   .     S
C1271  H1280   1.110   .     S
C1271  C1272   1.568   .     S
C1272  H1277   1.108   .     S
C1272  H1278   1.097   .     S
C1272  C1273   1.527   .     S
C1273  H1274   1.110   .     S
C1273  H1275   1.111   .     S
C1273  H1276   1.111   .     S
C1281  C1282   1.534   .     S
C1281  H1289   1.093   .     S
C1281  H1290   1.080   .     S
C1282  H1287   1.104   .     S
C1282  H1288   1.105   .     S
C1282  C1283   1.534   .     S
C1283  H1284   1.111   .     S
C1283  H1285   1.110   .     S
C1283  H1286   1.111   .     S
C1291  H1300   1.111   .     S
C1291  C1292   1.568   .     S
C1291  H1299   1.093   .     S
C1292  H1298   1.094   .     S
C1292  H1297   1.110   .     S
C1292  C1293   1.531   .     S
C1293  H1294   1.109   .     S
C1293  H1295   1.109   .     S
C1293  H1296   1.111   .     S
C1301  C1310   1.455   .     S
C1301  O1348   1.325   .     A
C1301  O1345   1.319   .     A
C1302  O1346   1.325   .     A
C1302  O1347   1.319   .     A
C1302  C1309   1.455   .     S
C1303  C1328   1.418   .     A
C1303  C1353   1.485   .     S
C1304  C1357   1.485   .     S
C1304  C1327   1.419   .     A
C1304  C430    1.397   1_556 S
C1305  H1339   1.076   .     S
C1305  C1310   1.397   .     A
C1306  C1309   1.403   .     A
C1306  H1340   1.083   .     S
C1306  C1408   1.387   .     S
C1307  C1309   1.397   .     A
C1307  H1341   1.076   .     S
C1307  C1405   1.378   .     S
C1308  H1342   1.083   .     S
C1308  C1310   1.403   .     A
C1311  N1344   1.405   .     A
C1311  C1361   1.555   .     S
C1312  N1343   1.389   .     A
C1312  C1371   1.531   .     S
C1312  C1613   1.458   .     S
C1313  C1381   1.559   .     S
C1313  N1344   1.407   .     A
C1314  C1391   1.536   .     S
C1314  N1343   1.390   .     A
C1314  C1611   1.459   .     S
C1315  O1349   1.323   .     A
C1315  C1320   1.434   .     S
C1315  O1352   1.311   .     A
C1316  O1351   1.320   .     A
C1316  C1319   1.435   .     S
C1316  O1350   1.314   .     A
C1317  H1333   1.080   .     S
C1317  C1327   1.400   .     A
C1317  C1319   1.392   .     A
C1318  C1320   1.391   .     A
C1318  C1328   1.400   .     A
C1318  H1334   1.080   .     S
C1319  C1321   1.389   .     A
C1320  C1322   1.389   .     A
C1321  C1323   1.390   .     A
C1321  H1335   1.085   .     S
C1322  C1324   1.390   .     A
C1322  H1336   1.085   .     S
C1323  C1329   1.397   .     A
C1323  C1325   1.413   .     A
C1324  C1326   1.413   .     A
C1324  C1330   1.397   .     A
C1325  C1327   1.422   .     A
C1325  C426    1.401   1_556 S
C1326  C1328   1.422   .     A
C1329  H1337   1.085   .     S
C1329  C403    1.398   1_556 S
C1330  H1338   1.085   .     S
Cu1331 N1343   2.086   .     S
Cu1331 Cu1332  2.776   .     S
Cu1331 O1347   1.964   .     S
Cu1331 O1349   1.942   .     S
Cu1331 O1351   1.942   .     S
Cu1331 O1345   1.964   .     S
Cu1332 O1348   1.964   .     S
Cu1332 O1352   1.942   .     S
Cu1332 N1344   2.086   .     S
Cu1332 O1350   1.942   .     S
Cu1332 O1346   1.964   .     S
C1353  O1354   1.223   .     D
C1353  O1355   1.398   .     S
O1355  H1356   1.014   .     S
C1357  O1359   1.398   .     S
C1357  O1358   1.223   .     D
O1359  H1460   1.014   .     S
C1361  H1370   1.072   .     S
C1361  H1369   1.095   .     S
C1361  C1362   1.535   .     S
C1362  H1367   1.103   .     S
C1362  C1363   1.533   .     S
C1362  H1368   1.106   .     S
C1363  H1365   1.110   .     S
C1363  H1366   1.111   .     S
C1363  H1364   1.111   .     S
C1371  H1379   1.093   .     S
C1371  H1380   1.110   .     S
C1371  C1372   1.568   .     S
C1372  H1377   1.108   .     S
C1372  H1378   1.097   .     S
C1372  C1373   1.527   .     S
C1373  H1374   1.110   .     S
C1373  H1375   1.111   .     S
C1373  H1376   1.111   .     S
C1381  C1382   1.534   .     S
C1381  H1389   1.093   .     S
C1381  H1390   1.080   .     S
C1382  H1387   1.104   .     S
C1382  H1388   1.105   .     S
C1382  C1383   1.534   .     S
C1383  H1384   1.111   .     S
C1383  H1385   1.110   .     S
C1383  H1386   1.111   .     S
C1391  H1400   1.111   .     S
C1391  C1392   1.568   .     S
C1391  H1399   1.093   .     S
C1392  H1398   1.094   .     S
C1392  H1397   1.110   .     S
C1392  C1393   1.531   .     S
C1393  H1394   1.109   .     S
C1393  H1395   1.109   .     S
C1393  H1396   1.111   .     S
C1401  C1410   1.455   .     S
C1401  O1448   1.325   .     A
C1401  O1445   1.319   .     A
C1402  O1446   1.325   .     A
C1402  O1447   1.319   .     A
C1402  C1409   1.455   .     S
C1403  C1428   1.418   .     A
C1403  C1453   1.485   .     S
C1404  C1457   1.485   .     S
C1404  C1427   1.419   .     A
C1404  C530    1.397   1_556 S
C1405  H1439   1.076   .     S
C1405  C1410   1.397   .     A
C1406  C1409   1.403   .     A
C1406  H1440   1.083   .     S
C1406  C1208   1.387   1_655 S
C1407  C1409   1.397   .     A
C1407  H1441   1.076   .     S
C1407  C1205   1.378   1_655 S
C1408  H1442   1.083   .     S
C1408  C1410   1.403   .     A
C1411  N1444   1.405   .     A
C1411  C1461   1.555   .     S
C1412  N1443   1.389   .     A
C1412  C1471   1.531   .     S
C1412  C1713   1.458   .     S
C1413  C1481   1.559   .     S
C1413  N1444   1.407   .     A
C1414  C1491   1.536   .     S
C1414  N1443   1.390   .     A
C1414  C1711   1.459   .     S
C1415  O1449   1.323   .     A
C1415  C1420   1.434   .     S
C1415  O1452   1.311   .     A
C1416  O1451   1.320   .     A
C1416  C1419   1.435   .     S
C1416  O1450   1.314   .     A
C1417  H1433   1.080   .     S
C1417  C1427   1.400   .     A
C1417  C1419   1.392   .     A
C1418  C1420   1.391   .     A
C1418  C1428   1.400   .     A
C1418  H1434   1.080   .     S
C1419  C1421   1.389   .     A
C1420  C1422   1.389   .     A
C1421  C1423   1.390   .     A
C1421  H1435   1.085   .     S
C1422  C1424   1.390   .     A
C1422  H1436   1.085   .     S
C1423  C1429   1.397   .     A
C1423  C1425   1.413   .     A
C1424  C1426   1.413   .     A
C1424  C1430   1.397   .     A
C1425  C1427   1.422   .     A
C1425  C526    1.401   1_556 S
C1426  C1428   1.422   .     A
C1429  H1437   1.085   .     S
C1429  C503    1.398   1_556 S
C1430  H1438   1.085   .     S
Cu1431 N1443   2.086   .     S
Cu1431 Cu1432  2.776   .     S
Cu1431 O1447   1.964   .     S
Cu1431 O1449   1.942   .     S
Cu1431 O1451   1.942   .     S
Cu1431 O1445   1.964   .     S
Cu1432 O1448   1.964   .     S
Cu1432 O1452   1.942   .     S
Cu1432 N1444   2.086   .     S
Cu1432 O1450   1.942   .     S
Cu1432 O1446   1.964   .     S
C1453  O1454   1.223   .     D
C1453  O1455   1.398   .     S
O1455  H1456   1.014   .     S
C1457  O1459   1.398   .     S
C1457  O1458   1.223   .     D
O1459  H1260   1.014   1_655 S
C1461  H1470   1.072   .     S
C1461  H1469   1.095   .     S
C1461  C1462   1.535   .     S
C1462  H1467   1.103   .     S
C1462  C1463   1.533   .     S
C1462  H1468   1.106   .     S
C1463  H1465   1.110   .     S
C1463  H1466   1.111   .     S
C1463  H1464   1.111   .     S
C1471  H1479   1.093   .     S
C1471  H1480   1.110   .     S
C1471  C1472   1.568   .     S
C1472  H1477   1.108   .     S
C1472  H1478   1.097   .     S
C1472  C1473   1.527   .     S
C1473  H1474   1.110   .     S
C1473  H1475   1.111   .     S
C1473  H1476   1.111   .     S
C1481  C1482   1.534   .     S
C1481  H1489   1.093   .     S
C1481  H1490   1.080   .     S
C1482  H1487   1.104   .     S
C1482  H1488   1.105   .     S
C1482  C1483   1.534   .     S
C1483  H1484   1.111   .     S
C1483  H1485   1.110   .     S
C1483  H1486   1.111   .     S
C1491  H1500   1.111   .     S
C1491  C1492   1.568   .     S
C1491  H1499   1.093   .     S
C1492  H1498   1.094   .     S
C1492  H1497   1.110   .     S
C1492  C1493   1.531   .     S
C1493  H1494   1.109   .     S
C1493  H1495   1.109   .     S
C1493  H1496   1.111   .     S
C1501  C1510   1.455   .     S
C1501  O1548   1.325   .     A
C1501  O1545   1.319   .     A
C1502  O1546   1.325   .     A
C1502  O1547   1.319   .     A
C1502  C1509   1.455   .     S
C1503  C1528   1.418   .     A
C1503  C1553   1.485   .     S
C1504  C1557   1.485   .     S
C1504  C1527   1.419   .     A
C1504  C630    1.397   1_556 S
C1505  H1539   1.076   .     S
C1505  C1510   1.397   .     A
C1505  C1707   1.378   1_455 S
C1506  C1509   1.403   .     A
C1506  H1540   1.083   .     S
C1506  C1608   1.387   .     S
C1507  C1509   1.397   .     A
C1507  H1541   1.076   .     S
C1507  C1605   1.378   .     S
C1508  H1542   1.083   .     S
C1508  C1510   1.403   .     A
C1508  C1706   1.387   1_455 S
C1511  N1544   1.405   .     A
C1511  C1561   1.555   .     S
C1512  N1543   1.389   .     A
C1512  C1571   1.531   .     S
C1512  C913    1.458   1_565 S
C1513  C1581   1.559   .     S
C1513  N1544   1.407   .     A
C1514  C1591   1.536   .     S
C1514  N1543   1.390   .     A
C1514  C911    1.459   1_565 S
C1515  O1549   1.323   .     A
C1515  C1520   1.434   .     S
C1515  O1552   1.311   .     A
C1516  O1551   1.320   .     A
C1516  C1519   1.435   .     S
C1516  O1550   1.314   .     A
C1517  H1533   1.080   .     S
C1517  C1527   1.400   .     A
C1517  C1519   1.392   .     A
C1518  C1520   1.391   .     A
C1518  C1528   1.400   .     A
C1518  H1534   1.080   .     S
C1519  C1521   1.389   .     A
C1520  C1522   1.389   .     A
C1521  C1523   1.390   .     A
C1521  H1535   1.085   .     S
C1522  C1524   1.390   .     A
C1522  H1536   1.085   .     S
C1523  C1529   1.397   .     A
C1523  C1525   1.413   .     A
C1524  C1526   1.413   .     A
C1524  C1530   1.397   .     A
C1525  C1527   1.422   .     A
C1525  C626    1.401   1_556 S
C1526  C1528   1.422   .     A
C1529  H1537   1.085   .     S
C1529  C603    1.398   1_556 S
C1530  H1538   1.085   .     S
Cu1531 N1543   2.086   .     S
Cu1531 Cu1532  2.776   .     S
Cu1531 O1547   1.964   .     S
Cu1531 O1549   1.942   .     S
Cu1531 O1551   1.942   .     S
Cu1531 O1545   1.964   .     S
Cu1532 O1548   1.964   .     S
Cu1532 O1552   1.942   .     S
Cu1532 N1544   2.086   .     S
Cu1532 O1550   1.942   .     S
Cu1532 O1546   1.964   .     S
C1553  O1554   1.223   .     D
C1553  O1555   1.398   .     S
O1555  H1556   1.014   .     S
C1557  O1559   1.398   .     S
C1557  O1558   1.223   .     D
O1559  H1660   1.014   .     S
H1560  O1759   1.014   1_455 S
C1561  H1570   1.072   .     S
C1561  H1569   1.095   .     S
C1561  C1562   1.535   .     S
C1562  H1567   1.103   .     S
C1562  C1563   1.533   .     S
C1562  H1568   1.106   .     S
C1563  H1565   1.110   .     S
C1563  H1566   1.111   .     S
C1563  H1564   1.111   .     S
C1571  H1579   1.093   .     S
C1571  H1580   1.110   .     S
C1571  C1572   1.568   .     S
C1572  H1577   1.108   .     S
C1572  H1578   1.097   .     S
C1572  C1573   1.527   .     S
C1573  H1574   1.110   .     S
C1573  H1575   1.111   .     S
C1573  H1576   1.111   .     S
C1581  C1582   1.534   .     S
C1581  H1589   1.093   .     S
C1581  H1590   1.080   .     S
C1582  H1587   1.104   .     S
C1582  H1588   1.105   .     S
C1582  C1583   1.534   .     S
C1583  H1584   1.111   .     S
C1583  H1585   1.110   .     S
C1583  H1586   1.111   .     S
C1591  H1600   1.111   .     S
C1591  C1592   1.568   .     S
C1591  H1599   1.093   .     S
C1592  H1598   1.094   .     S
C1592  H1597   1.110   .     S
C1592  C1593   1.531   .     S
C1593  H1594   1.109   .     S
C1593  H1595   1.109   .     S
C1593  H1596   1.111   .     S
C1601  C1610   1.455   .     S
C1601  O1648   1.325   .     A
C1601  O1645   1.319   .     A
C1602  O1646   1.325   .     A
C1602  O1647   1.319   .     A
C1602  C1609   1.455   .     S
C1603  C1628   1.418   .     A
C1603  C1653   1.485   .     S
C1604  C1657   1.485   .     S
C1604  C1627   1.419   .     A
C1604  C730    1.397   1_556 S
C1605  H1639   1.076   .     S
C1605  C1610   1.397   .     A
C1606  C1609   1.403   .     A
C1606  H1640   1.083   .     S
C1606  C1708   1.387   .     S
C1607  C1609   1.397   .     A
C1607  H1641   1.076   .     S
C1607  C1705   1.378   .     S
C1608  H1642   1.083   .     S
C1608  C1610   1.403   .     A
C1611  N1644   1.405   .     A
C1611  C1661   1.555   .     S
C1612  N1643   1.389   .     A
C1612  C1671   1.531   .     S
C1612  C1013   1.458   1_565 S
C1613  C1681   1.559   .     S
C1613  N1644   1.407   .     A
C1614  C1691   1.536   .     S
C1614  N1643   1.390   .     A
C1614  C1011   1.459   1_565 S
C1615  O1649   1.323   .     A
C1615  C1620   1.434   .     S
C1615  O1652   1.311   .     A
C1616  O1651   1.320   .     A
C1616  C1619   1.435   .     S
C1616  O1650   1.314   .     A
C1617  H1633   1.080   .     S
C1617  C1627   1.400   .     A
C1617  C1619   1.392   .     A
C1618  C1620   1.391   .     A
C1618  C1628   1.400   .     A
C1618  H1634   1.080   .     S
C1619  C1621   1.389   .     A
C1620  C1622   1.389   .     A
C1621  C1623   1.390   .     A
C1621  H1635   1.085   .     S
C1622  C1624   1.390   .     A
C1622  H1636   1.085   .     S
C1623  C1629   1.397   .     A
C1623  C1625   1.413   .     A
C1624  C1626   1.413   .     A
C1624  C1630   1.397   .     A
C1625  C1627   1.422   .     A
C1625  C726    1.401   1_556 S
C1626  C1628   1.422   .     A
C1629  H1637   1.085   .     S
C1629  C703    1.398   1_556 S
C1630  H1638   1.085   .     S
Cu1631 N1643   2.086   .     S
Cu1631 Cu1632  2.776   .     S
Cu1631 O1647   1.964   .     S
Cu1631 O1649   1.942   .     S
Cu1631 O1651   1.942   .     S
Cu1631 O1645   1.964   .     S
Cu1632 O1648   1.964   .     S
Cu1632 O1652   1.942   .     S
Cu1632 N1644   2.086   .     S
Cu1632 O1650   1.942   .     S
Cu1632 O1646   1.964   .     S
C1653  O1654   1.223   .     D
C1653  O1655   1.398   .     S
O1655  H1656   1.014   .     S
C1657  O1659   1.398   .     S
C1657  O1658   1.223   .     D
O1659  H1760   1.014   .     S
C1661  H1670   1.072   .     S
C1661  H1669   1.095   .     S
C1661  C1662   1.535   .     S
C1662  H1667   1.103   .     S
C1662  C1663   1.533   .     S
C1662  H1668   1.106   .     S
C1663  H1665   1.110   .     S
C1663  H1666   1.111   .     S
C1663  H1664   1.111   .     S
C1671  H1679   1.093   .     S
C1671  H1680   1.110   .     S
C1671  C1672   1.568   .     S
C1672  H1677   1.108   .     S
C1672  H1678   1.097   .     S
C1672  C1673   1.527   .     S
C1673  H1674   1.110   .     S
C1673  H1675   1.111   .     S
C1673  H1676   1.111   .     S
C1681  C1682   1.534   .     S
C1681  H1689   1.093   .     S
C1681  H1690   1.080   .     S
C1682  H1687   1.104   .     S
C1682  H1688   1.105   .     S
C1682  C1683   1.534   .     S
C1683  H1684   1.111   .     S
C1683  H1685   1.110   .     S
C1683  H1686   1.111   .     S
C1691  H1700   1.111   .     S
C1691  C1692   1.568   .     S
C1691  H1699   1.093   .     S
C1692  H1698   1.094   .     S
C1692  H1697   1.110   .     S
C1692  C1693   1.531   .     S
C1693  H1694   1.109   .     S
C1693  H1695   1.109   .     S
C1693  H1696   1.111   .     S
C1701  C1710   1.455   .     S
C1701  O1748   1.325   .     A
C1701  O1745   1.319   .     A
C1702  O1746   1.325   .     A
C1702  O1747   1.319   .     A
C1702  C1709   1.455   .     S
C1703  C1728   1.418   .     A
C1703  C1753   1.485   .     S
C1704  C1757   1.485   .     S
C1704  C1727   1.419   .     A
C1704  C830    1.397   1_556 S
C1705  H1739   1.076   .     S
C1705  C1710   1.397   .     A
C1706  C1709   1.403   .     A
C1706  H1740   1.083   .     S
C1706  C1508   1.387   1_655 S
C1707  C1709   1.397   .     A
C1707  H1741   1.076   .     S
C1707  C1505   1.378   1_655 S
C1708  H1742   1.083   .     S
C1708  C1710   1.403   .     A
C1711  N1744   1.405   .     A
C1711  C1761   1.555   .     S
C1712  N1743   1.389   .     A
C1712  C1771   1.531   .     S
C1712  C1113   1.458   1_565 S
C1713  C1781   1.559   .     S
C1713  N1744   1.407   .     A
C1714  C1791   1.536   .     S
C1714  N1743   1.390   .     A
C1714  C1111   1.459   1_565 S
C1715  O1749   1.323   .     A
C1715  C1720   1.434   .     S
C1715  O1752   1.311   .     A
C1716  O1751   1.320   .     A
C1716  C1719   1.435   .     S
C1716  O1750   1.314   .     A
C1717  H1733   1.080   .     S
C1717  C1727   1.400   .     A
C1717  C1719   1.392   .     A
C1718  C1720   1.391   .     A
C1718  C1728   1.400   .     A
C1718  H1734   1.080   .     S
C1719  C1721   1.389   .     A
C1720  C1722   1.389   .     A
C1721  C1723   1.390   .     A
C1721  H1735   1.085   .     S
C1722  C1724   1.390   .     A
C1722  H1736   1.085   .     S
C1723  C1729   1.397   .     A
C1723  C1725   1.413   .     A
C1724  C1726   1.413   .     A
C1724  C1730   1.397   .     A
C1725  C1727   1.422   .     A
C1725  C826    1.401   1_556 S
C1726  C1728   1.422   .     A
C1729  H1737   1.085   .     S
C1729  C803    1.398   1_556 S
C1730  H1738   1.085   .     S
Cu1731 N1743   2.086   .     S
Cu1731 Cu1732  2.776   .     S
Cu1731 O1747   1.964   .     S
Cu1731 O1749   1.942   .     S
Cu1731 O1751   1.942   .     S
Cu1731 O1745   1.964   .     S
Cu1732 O1748   1.964   .     S
Cu1732 O1752   1.942   .     S
Cu1732 N1744   2.086   .     S
Cu1732 O1750   1.942   .     S
Cu1732 O1746   1.964   .     S
C1753  O1754   1.223   .     D
C1753  O1755   1.398   .     S
O1755  H1756   1.014   .     S
C1757  O1759   1.398   .     S
C1757  O1758   1.223   .     D
O1759  H1560   1.014   1_655 S
C1761  H1770   1.072   .     S
C1761  H1769   1.095   .     S
C1761  C1762   1.535   .     S
C1762  H1767   1.103   .     S
C1762  C1763   1.533   .     S
C1762  H1768   1.106   .     S
C1763  H1765   1.110   .     S
C1763  H1766   1.111   .     S
C1763  H1764   1.111   .     S
C1771  H1779   1.093   .     S
C1771  H1780   1.110   .     S
C1771  C1772   1.568   .     S
C1772  H1777   1.108   .     S
C1772  H1778   1.097   .     S
C1772  C1773   1.527   .     S
C1773  H1774   1.110   .     S
C1773  H1775   1.111   .     S
C1773  H1776   1.111   .     S
C1781  C1782   1.534   .     S
C1781  H1789   1.093   .     S
C1781  H1790   1.080   .     S
C1782  H1787   1.104   .     S
C1782  H1788   1.105   .     S
C1782  C1783   1.534   .     S
C1783  H1784   1.111   .     S
C1783  H1785   1.110   .     S
C1783  H1786   1.111   .     S
C1791  H1800   1.111   .     S
C1791  C1792   1.568   .     S
C1791  H1799   1.093   .     S
C1792  H1798   1.094   .     S
C1792  H1797   1.110   .     S
C1792  C1793   1.531   .     S
C1793  H1794   1.109   .     S
C1793  H1795   1.109   .     S
C1793  H1796   1.111   .     S
