data_str_m2_o1_o16_pcu_sym.198
_audit_creation_date              2020-01-03
_audit_creation_method            'Materials Studio'
_symmetry_space_group_name_H-M    'P1'
_symmetry_Int_Tables_number       1
_symmetry_cell_setting            triclinic
loop_
_symmetry_equiv_pos_as_xyz
  x,y,z
_cell_length_a                    28.7329
_cell_length_b                    32.5458
_cell_length_c                    26.9925
_cell_angle_alpha                 91.3591
_cell_angle_beta                  72.4520
_cell_angle_gamma                 89.4985
loop_
_atom_site_label
_atom_site_type_symbol
_atom_site_fract_x
_atom_site_fract_y
_atom_site_fract_z
_atom_site_U_iso_or_equiv
_atom_site_adp_type
_atom_site_occupancy
C1     C     0.16646   0.24582   0.25010   0.00000  Uiso   1.00
C2     C     0.14525   0.16201   0.48950   0.00000  Uiso   1.00
C3     C     0.15831   0.15296   0.43526   0.00000  Uiso   1.00
C4     C     0.18140   0.15758   0.01551   0.00000  Uiso   1.00
C5     C     0.22848   0.14156   0.48794   0.00000  Uiso   1.00
C6     C     0.23861   0.12864   0.43635   0.00000  Uiso   1.00
C7     C     0.20386   0.13342   0.41083   0.00000  Uiso   1.00
C8     C     0.17243   0.16872   0.06809   0.00000  Uiso   1.00
C9     C     0.25431   0.14778   0.06521   0.00000  Uiso   1.00
C10    C     0.12515   0.16323   0.40726   0.00000  Uiso   1.00
C11    C     0.20045   0.31098   0.26905   0.00000  Uiso   1.00
C12    C     0.14062   0.16469   0.34993   0.00000  Uiso   1.00
C13    C     0.20123   0.02032   0.27063   0.00000  Uiso   1.00
C14    C     0.16713   0.04256   0.25246   0.00000  Uiso   1.00
C15    C     0.13239   0.02138   0.23505   0.00000  Uiso   1.00
C16    C     0.13168   0.31218   0.23465   0.00000  Uiso   1.00
C17    C     0.16607   0.29031   0.25113   0.00000  Uiso   1.00
C18    C     0.29947   0.19139   0.28471   0.00000  Uiso   1.00
C19    C     0.01547   0.19069   0.28443   0.00000  Uiso   1.00
C20    C     0.03529   0.14239   0.21582   0.00000  Uiso   1.00
C21    C     0.31944   0.14178   0.21558   0.00000  Uiso   1.00
C22    C     0.16667   0.08738   0.25115   0.00000  Uiso   1.00
C23    C     0.19282   0.16640   0.15012   0.00000  Uiso   1.00
C24    C     0.26471   0.13757   0.01266   0.00000  Uiso   1.00
C25    C     0.20765   0.16223   0.09340   0.00000  Uiso   1.00
C26    C     0.07736   0.17600   0.43464   0.00000  Uiso   1.00
C27    C     0.06301   0.18077   0.48833   0.00000  Uiso   1.00
C28    C     0.09648   0.17470   0.01554   0.00000  Uiso   1.00
Cu29   Cu    0.11978   0.16666   0.25000   0.00000  Uiso   1.00
Cu30   Cu    0.21355   0.16667   0.25000   0.00000  Uiso   1.00
H31    H     0.28212   0.14297   0.08403   0.00000  Uiso   1.00
H32    H     0.10598   0.03769   0.22110   0.00000  Uiso   1.00
H33    H     0.10484   0.29643   0.22066   0.00000  Uiso   1.00
H34    H     0.02698   0.20983   0.31184   0.00000  Uiso   1.00
H35    H     0.06251   0.12296   0.18862   0.00000  Uiso   1.00
H36    H     0.27362   0.11458   0.41553   0.00000  Uiso   1.00
H37    H     0.30074   0.12555   0.49161   0.00000  Uiso   1.00
H38    H     0.13801   0.18214   0.09069   0.00000  Uiso   1.00
H39    H     0.05111   0.18328   0.41442   0.00000  Uiso   1.00
H40    H     0.08255   0.17948   0.05704   0.00000  Uiso   1.00
H41    H     0.02594   0.19047   0.00897   0.00000  Uiso   1.00
H42    H     0.21337   0.12058   0.37200   0.00000  Uiso   1.00
N43    N     0.04931   0.16666   0.24999   0.00000  Uiso   1.00
N44    N     0.28402   0.16669   0.25000   0.00000  Uiso   1.00
O45    O     0.12708   0.22678   0.25001   0.00000  Uiso   1.00
O46    O     0.20627   0.22679   0.25001   0.00000  Uiso   1.00
O47    O     0.10775   0.16665   0.32549   0.00000  Uiso   1.00
O48    O     0.18694   0.16666   0.32549   0.00000  Uiso   1.00
O49    O     0.12706   0.10654   0.25000   0.00000  Uiso   1.00
O50    O     0.20625   0.10655   0.25000   0.00000  Uiso   1.00
O51    O     0.14640   0.16667   0.17451   0.00000  Uiso   1.00
O52    O     0.22559   0.16668   0.17451   0.00000  Uiso   1.00
C53    C     0.23725   0.04048   0.29382   0.00000  Uiso   1.00
H54    H     0.21748   0.06198   0.32571   0.00000  Uiso   1.00
H55    H     0.25684   0.01778   0.31072   0.00000  Uiso   1.00
H56    H     0.26529   0.05684   0.26366   0.00000  Uiso   1.00
C57    C     0.26688   0.22019   0.32530   0.00000  Uiso   1.00
H58    H     0.26362   0.20855   0.36452   0.00000  Uiso   1.00
H59    H     0.28365   0.25103   0.32227   0.00000  Uiso   1.00
H60    H     0.23015   0.22532   0.32282   0.00000  Uiso   1.00
C61    C     0.30988   0.11252   0.17587   0.00000  Uiso   1.00
H62    H     0.27185   0.10977   0.17686   0.00000  Uiso   1.00
H63    H     0.33115   0.12211   0.13641   0.00000  Uiso   1.00
H64    H     0.32263   0.08117   0.18156   0.00000  Uiso   1.00
H65    H     0.22641   0.29375   0.28262   0.00000  Uiso   1.00
C66    C     0.49980   0.24582   0.25010   0.00000  Uiso   1.00
C67    C     0.47858   0.16201   0.48950   0.00000  Uiso   1.00
C68    C     0.49165   0.15296   0.43526   0.00000  Uiso   1.00
C69    C     0.51474   0.15758   0.01551   0.00000  Uiso   1.00
C70    C     0.56181   0.14156   0.48794   0.00000  Uiso   1.00
C71    C     0.57194   0.12864   0.43635   0.00000  Uiso   1.00
C72    C     0.53719   0.13342   0.41083   0.00000  Uiso   1.00
C73    C     0.50576   0.16872   0.06809   0.00000  Uiso   1.00
C74    C     0.58764   0.14778   0.06521   0.00000  Uiso   1.00
C75    C     0.45848   0.16323   0.40726   0.00000  Uiso   1.00
C76    C     0.53378   0.31098   0.26905   0.00000  Uiso   1.00
C77    C     0.47395   0.16469   0.34993   0.00000  Uiso   1.00
C78    C     0.53456   0.02032   0.27063   0.00000  Uiso   1.00
C79    C     0.50046   0.04256   0.25246   0.00000  Uiso   1.00
C80    C     0.46572   0.02138   0.23505   0.00000  Uiso   1.00
C81    C     0.46502   0.31218   0.23465   0.00000  Uiso   1.00
C82    C     0.49941   0.29031   0.25113   0.00000  Uiso   1.00
C83    C     0.63280   0.19139   0.28471   0.00000  Uiso   1.00
C84    C     0.34881   0.19069   0.28443   0.00000  Uiso   1.00
C85    C     0.36862   0.14239   0.21582   0.00000  Uiso   1.00
C86    C     0.65277   0.14178   0.21558   0.00000  Uiso   1.00
C87    C     0.50001   0.08738   0.25115   0.00000  Uiso   1.00
C88    C     0.52616   0.16640   0.15012   0.00000  Uiso   1.00
C89    C     0.59804   0.13757   0.01266   0.00000  Uiso   1.00
C90    C     0.54099   0.16223   0.09340   0.00000  Uiso   1.00
C91    C     0.41069   0.17600   0.43464   0.00000  Uiso   1.00
C92    C     0.39635   0.18077   0.48833   0.00000  Uiso   1.00
C93    C     0.42981   0.17470   0.01554   0.00000  Uiso   1.00
Cu94   Cu    0.45311   0.16666   0.25000   0.00000  Uiso   1.00
Cu95   Cu    0.54689   0.16667   0.25000   0.00000  Uiso   1.00
H96    H     0.61545   0.14297   0.08403   0.00000  Uiso   1.00
H97    H     0.43931   0.03769   0.22110   0.00000  Uiso   1.00
H98    H     0.43817   0.29643   0.22066   0.00000  Uiso   1.00
H99    H     0.36031   0.20983   0.31184   0.00000  Uiso   1.00
H100   H     0.39585   0.12296   0.18862   0.00000  Uiso   1.00
H101   H     0.60695   0.11458   0.41553   0.00000  Uiso   1.00
H102   H     0.63407   0.12555   0.49161   0.00000  Uiso   1.00
H103   H     0.47134   0.18214   0.09069   0.00000  Uiso   1.00
H104   H     0.38445   0.18328   0.41442   0.00000  Uiso   1.00
H105   H     0.41588   0.17948   0.05704   0.00000  Uiso   1.00
H106   H     0.35927   0.19047   0.00897   0.00000  Uiso   1.00
H107   H     0.54670   0.12058   0.37200   0.00000  Uiso   1.00
N108   N     0.38265   0.16666   0.24999   0.00000  Uiso   1.00
N109   N     0.61735   0.16669   0.25000   0.00000  Uiso   1.00
O110   O     0.46042   0.22678   0.25001   0.00000  Uiso   1.00
O111   O     0.53961   0.22679   0.25001   0.00000  Uiso   1.00
O112   O     0.44108   0.16665   0.32549   0.00000  Uiso   1.00
O113   O     0.52027   0.16666   0.32549   0.00000  Uiso   1.00
O114   O     0.46039   0.10654   0.25000   0.00000  Uiso   1.00
O115   O     0.53958   0.10655   0.25000   0.00000  Uiso   1.00
O116   O     0.47973   0.16667   0.17451   0.00000  Uiso   1.00
O117   O     0.55892   0.16668   0.17451   0.00000  Uiso   1.00
C118   C     0.57058   0.04048   0.29382   0.00000  Uiso   1.00
H119   H     0.55081   0.06198   0.32571   0.00000  Uiso   1.00
H120   H     0.59018   0.01778   0.31072   0.00000  Uiso   1.00
H121   H     0.59862   0.05684   0.26366   0.00000  Uiso   1.00
C122   C     0.60021   0.22019   0.32530   0.00000  Uiso   1.00
H123   H     0.59695   0.20855   0.36452   0.00000  Uiso   1.00
H124   H     0.61698   0.25103   0.32227   0.00000  Uiso   1.00
H125   H     0.56348   0.22532   0.32282   0.00000  Uiso   1.00
C126   C     0.64321   0.11252   0.17587   0.00000  Uiso   1.00
H127   H     0.60518   0.10977   0.17686   0.00000  Uiso   1.00
H128   H     0.66449   0.12211   0.13641   0.00000  Uiso   1.00
H129   H     0.65596   0.08117   0.18156   0.00000  Uiso   1.00
H130   H     0.55974   0.29375   0.28262   0.00000  Uiso   1.00
C131   C     0.83313   0.24582   0.25010   0.00000  Uiso   1.00
C132   C     0.81191   0.16201   0.48950   0.00000  Uiso   1.00
C133   C     0.82498   0.15296   0.43526   0.00000  Uiso   1.00
C134   C     0.84807   0.15758   0.01551   0.00000  Uiso   1.00
C135   C     0.89514   0.14156   0.48794   0.00000  Uiso   1.00
C136   C     0.90528   0.12864   0.43635   0.00000  Uiso   1.00
C137   C     0.87052   0.13342   0.41083   0.00000  Uiso   1.00
C138   C     0.83910   0.16872   0.06809   0.00000  Uiso   1.00
C139   C     0.92097   0.14778   0.06521   0.00000  Uiso   1.00
C140   C     0.79181   0.16323   0.40726   0.00000  Uiso   1.00
C141   C     0.86711   0.31098   0.26905   0.00000  Uiso   1.00
C142   C     0.80728   0.16469   0.34993   0.00000  Uiso   1.00
C143   C     0.86790   0.02032   0.27063   0.00000  Uiso   1.00
C144   C     0.83379   0.04256   0.25246   0.00000  Uiso   1.00
C145   C     0.79906   0.02138   0.23505   0.00000  Uiso   1.00
C146   C     0.79835   0.31218   0.23465   0.00000  Uiso   1.00
C147   C     0.83274   0.29031   0.25113   0.00000  Uiso   1.00
C148   C     0.96613   0.19139   0.28471   0.00000  Uiso   1.00
C149   C     0.68214   0.19069   0.28443   0.00000  Uiso   1.00
C150   C     0.70195   0.14239   0.21582   0.00000  Uiso   1.00
C151   C     0.98611   0.14178   0.21558   0.00000  Uiso   1.00
C152   C     0.83334   0.08738   0.25115   0.00000  Uiso   1.00
C153   C     0.85949   0.16640   0.15012   0.00000  Uiso   1.00
C154   C     0.93138   0.13757   0.01266   0.00000  Uiso   1.00
C155   C     0.87432   0.16223   0.09340   0.00000  Uiso   1.00
C156   C     0.74402   0.17600   0.43464   0.00000  Uiso   1.00
C157   C     0.72968   0.18077   0.48833   0.00000  Uiso   1.00
C158   C     0.76314   0.17470   0.01554   0.00000  Uiso   1.00
Cu159  Cu    0.78645   0.16666   0.25000   0.00000  Uiso   1.00
Cu160  Cu    0.88022   0.16667   0.25000   0.00000  Uiso   1.00
H161   H     0.94878   0.14297   0.08403   0.00000  Uiso   1.00
H162   H     0.77265   0.03769   0.22110   0.00000  Uiso   1.00
H163   H     0.77151   0.29643   0.22066   0.00000  Uiso   1.00
H164   H     0.69365   0.20983   0.31184   0.00000  Uiso   1.00
H165   H     0.72918   0.12296   0.18862   0.00000  Uiso   1.00
H166   H     0.94029   0.11458   0.41553   0.00000  Uiso   1.00
H167   H     0.96740   0.12555   0.49161   0.00000  Uiso   1.00
H168   H     0.80468   0.18214   0.09069   0.00000  Uiso   1.00
H169   H     0.71778   0.18328   0.41442   0.00000  Uiso   1.00
H170   H     0.74921   0.17948   0.05704   0.00000  Uiso   1.00
H171   H     0.69261   0.19047   0.00897   0.00000  Uiso   1.00
H172   H     0.88004   0.12058   0.37200   0.00000  Uiso   1.00
N173   N     0.71598   0.16666   0.24999   0.00000  Uiso   1.00
N174   N     0.95069   0.16669   0.25000   0.00000  Uiso   1.00
O175   O     0.79375   0.22678   0.25001   0.00000  Uiso   1.00
O176   O     0.87294   0.22679   0.25001   0.00000  Uiso   1.00
O177   O     0.77441   0.16665   0.32549   0.00000  Uiso   1.00
O178   O     0.85360   0.16666   0.32549   0.00000  Uiso   1.00
O179   O     0.79373   0.10654   0.25000   0.00000  Uiso   1.00
O180   O     0.87292   0.10655   0.25000   0.00000  Uiso   1.00
O181   O     0.81306   0.16667   0.17451   0.00000  Uiso   1.00
O182   O     0.89225   0.16668   0.17451   0.00000  Uiso   1.00
C183   C     0.90391   0.04048   0.29382   0.00000  Uiso   1.00
H184   H     0.88414   0.06198   0.32571   0.00000  Uiso   1.00
H185   H     0.92351   0.01778   0.31072   0.00000  Uiso   1.00
H186   H     0.93196   0.05684   0.26366   0.00000  Uiso   1.00
C187   C     0.93354   0.22019   0.32530   0.00000  Uiso   1.00
H188   H     0.93029   0.20855   0.36452   0.00000  Uiso   1.00
H189   H     0.95031   0.25103   0.32227   0.00000  Uiso   1.00
H190   H     0.89681   0.22532   0.32282   0.00000  Uiso   1.00
C191   C     0.97655   0.11252   0.17587   0.00000  Uiso   1.00
H192   H     0.93852   0.10977   0.17686   0.00000  Uiso   1.00
H193   H     0.99782   0.12211   0.13641   0.00000  Uiso   1.00
H194   H     0.98930   0.08117   0.18156   0.00000  Uiso   1.00
H195   H     0.89308   0.29375   0.28262   0.00000  Uiso   1.00
C196   C     0.16646   0.57916   0.25010   0.00000  Uiso   1.00
C197   C     0.14525   0.49534   0.48950   0.00000  Uiso   1.00
C198   C     0.15831   0.48630   0.43526   0.00000  Uiso   1.00
C199   C     0.18140   0.49091   0.01551   0.00000  Uiso   1.00
C200   C     0.22848   0.47489   0.48794   0.00000  Uiso   1.00
C201   C     0.23861   0.46197   0.43635   0.00000  Uiso   1.00
C202   C     0.20386   0.46675   0.41083   0.00000  Uiso   1.00
C203   C     0.17243   0.50205   0.06809   0.00000  Uiso   1.00
C204   C     0.25431   0.48112   0.06521   0.00000  Uiso   1.00
C205   C     0.12515   0.49656   0.40726   0.00000  Uiso   1.00
C206   C     0.20045   0.64432   0.26905   0.00000  Uiso   1.00
C207   C     0.14062   0.49802   0.34993   0.00000  Uiso   1.00
C208   C     0.20123   0.35366   0.27063   0.00000  Uiso   1.00
C209   C     0.16713   0.37590   0.25246   0.00000  Uiso   1.00
C210   C     0.13239   0.35471   0.23505   0.00000  Uiso   1.00
C211   C     0.13168   0.64552   0.23465   0.00000  Uiso   1.00
C212   C     0.16607   0.62364   0.25113   0.00000  Uiso   1.00
C213   C     0.29947   0.52472   0.28471   0.00000  Uiso   1.00
C214   C     0.01547   0.52402   0.28443   0.00000  Uiso   1.00
C215   C     0.03529   0.47572   0.21582   0.00000  Uiso   1.00
C216   C     0.31944   0.47511   0.21558   0.00000  Uiso   1.00
C217   C     0.16667   0.42072   0.25115   0.00000  Uiso   1.00
C218   C     0.19282   0.49973   0.15012   0.00000  Uiso   1.00
C219   C     0.26471   0.47091   0.01266   0.00000  Uiso   1.00
C220   C     0.20765   0.49557   0.09340   0.00000  Uiso   1.00
C221   C     0.07736   0.50933   0.43464   0.00000  Uiso   1.00
C222   C     0.06301   0.51411   0.48833   0.00000  Uiso   1.00
C223   C     0.09648   0.50803   0.01554   0.00000  Uiso   1.00
Cu224  Cu    0.11978   0.49999   0.25000   0.00000  Uiso   1.00
Cu225  Cu    0.21355   0.50001   0.25000   0.00000  Uiso   1.00
H226   H     0.28212   0.47631   0.08403   0.00000  Uiso   1.00
H227   H     0.10598   0.37103   0.22110   0.00000  Uiso   1.00
H228   H     0.10484   0.62977   0.22066   0.00000  Uiso   1.00
H229   H     0.02698   0.54317   0.31184   0.00000  Uiso   1.00
H230   H     0.06251   0.45629   0.18862   0.00000  Uiso   1.00
H231   H     0.27362   0.44791   0.41553   0.00000  Uiso   1.00
H232   H     0.30074   0.45888   0.49161   0.00000  Uiso   1.00
H233   H     0.13801   0.51548   0.09069   0.00000  Uiso   1.00
H234   H     0.05111   0.51661   0.41442   0.00000  Uiso   1.00
H235   H     0.08255   0.51281   0.05704   0.00000  Uiso   1.00
H236   H     0.02594   0.52381   0.00897   0.00000  Uiso   1.00
H237   H     0.21337   0.45391   0.37200   0.00000  Uiso   1.00
N238   N     0.04931   0.49999   0.24999   0.00000  Uiso   1.00
N239   N     0.28402   0.50002   0.25000   0.00000  Uiso   1.00
O240   O     0.12708   0.56011   0.25001   0.00000  Uiso   1.00
O241   O     0.20627   0.56012   0.25001   0.00000  Uiso   1.00
O242   O     0.10775   0.49998   0.32549   0.00000  Uiso   1.00
O243   O     0.18694   0.49999   0.32549   0.00000  Uiso   1.00
O244   O     0.12706   0.43988   0.25000   0.00000  Uiso   1.00
O245   O     0.20625   0.43989   0.25000   0.00000  Uiso   1.00
O246   O     0.14640   0.50001   0.17451   0.00000  Uiso   1.00
O247   O     0.22559   0.50002   0.17451   0.00000  Uiso   1.00
C248   C     0.23725   0.37382   0.29382   0.00000  Uiso   1.00
H249   H     0.21748   0.39531   0.32571   0.00000  Uiso   1.00
H250   H     0.25684   0.35111   0.31072   0.00000  Uiso   1.00
H251   H     0.26529   0.39017   0.26366   0.00000  Uiso   1.00
C252   C     0.26688   0.55353   0.32530   0.00000  Uiso   1.00
H253   H     0.26362   0.54189   0.36452   0.00000  Uiso   1.00
H254   H     0.28365   0.58436   0.32227   0.00000  Uiso   1.00
H255   H     0.23015   0.55865   0.32282   0.00000  Uiso   1.00
C256   C     0.30988   0.44586   0.17587   0.00000  Uiso   1.00
H257   H     0.27185   0.44311   0.17686   0.00000  Uiso   1.00
H258   H     0.33115   0.45544   0.13641   0.00000  Uiso   1.00
H259   H     0.32263   0.41450   0.18156   0.00000  Uiso   1.00
H260   H     0.22641   0.62708   0.28262   0.00000  Uiso   1.00
C261   C     0.49980   0.57916   0.25010   0.00000  Uiso   1.00
C262   C     0.47858   0.49534   0.48950   0.00000  Uiso   1.00
C263   C     0.49165   0.48630   0.43526   0.00000  Uiso   1.00
C264   C     0.51474   0.49091   0.01551   0.00000  Uiso   1.00
C265   C     0.56181   0.47489   0.48794   0.00000  Uiso   1.00
C266   C     0.57194   0.46197   0.43635   0.00000  Uiso   1.00
C267   C     0.53719   0.46675   0.41083   0.00000  Uiso   1.00
C268   C     0.50576   0.50205   0.06809   0.00000  Uiso   1.00
C269   C     0.58764   0.48112   0.06521   0.00000  Uiso   1.00
C270   C     0.45848   0.49656   0.40726   0.00000  Uiso   1.00
C271   C     0.53378   0.64432   0.26905   0.00000  Uiso   1.00
C272   C     0.47395   0.49802   0.34993   0.00000  Uiso   1.00
C273   C     0.53456   0.35366   0.27063   0.00000  Uiso   1.00
C274   C     0.50046   0.37590   0.25246   0.00000  Uiso   1.00
C275   C     0.46572   0.35471   0.23505   0.00000  Uiso   1.00
C276   C     0.46502   0.64552   0.23465   0.00000  Uiso   1.00
C277   C     0.49941   0.62364   0.25113   0.00000  Uiso   1.00
C278   C     0.63280   0.52472   0.28471   0.00000  Uiso   1.00
C279   C     0.34881   0.52402   0.28443   0.00000  Uiso   1.00
C280   C     0.36862   0.47572   0.21582   0.00000  Uiso   1.00
C281   C     0.65277   0.47511   0.21558   0.00000  Uiso   1.00
C282   C     0.50001   0.42072   0.25115   0.00000  Uiso   1.00
C283   C     0.52616   0.49973   0.15012   0.00000  Uiso   1.00
C284   C     0.59804   0.47091   0.01266   0.00000  Uiso   1.00
C285   C     0.54099   0.49557   0.09340   0.00000  Uiso   1.00
C286   C     0.41069   0.50933   0.43464   0.00000  Uiso   1.00
C287   C     0.39635   0.51411   0.48833   0.00000  Uiso   1.00
C288   C     0.42981   0.50803   0.01554   0.00000  Uiso   1.00
Cu289  Cu    0.45311   0.49999   0.25000   0.00000  Uiso   1.00
Cu290  Cu    0.54689   0.50001   0.25000   0.00000  Uiso   1.00
H291   H     0.61545   0.47631   0.08403   0.00000  Uiso   1.00
H292   H     0.43931   0.37103   0.22110   0.00000  Uiso   1.00
H293   H     0.43817   0.62977   0.22066   0.00000  Uiso   1.00
H294   H     0.36031   0.54317   0.31184   0.00000  Uiso   1.00
H295   H     0.39585   0.45629   0.18862   0.00000  Uiso   1.00
H296   H     0.60695   0.44791   0.41553   0.00000  Uiso   1.00
H297   H     0.63407   0.45888   0.49161   0.00000  Uiso   1.00
H298   H     0.47134   0.51548   0.09069   0.00000  Uiso   1.00
H299   H     0.38445   0.51661   0.41442   0.00000  Uiso   1.00
H300   H     0.41588   0.51281   0.05704   0.00000  Uiso   1.00
H301   H     0.35927   0.52381   0.00897   0.00000  Uiso   1.00
H302   H     0.54670   0.45391   0.37200   0.00000  Uiso   1.00
N303   N     0.38265   0.49999   0.24999   0.00000  Uiso   1.00
N304   N     0.61735   0.50002   0.25000   0.00000  Uiso   1.00
O305   O     0.46042   0.56011   0.25001   0.00000  Uiso   1.00
O306   O     0.53961   0.56012   0.25001   0.00000  Uiso   1.00
O307   O     0.44108   0.49998   0.32549   0.00000  Uiso   1.00
O308   O     0.52027   0.49999   0.32549   0.00000  Uiso   1.00
O309   O     0.46039   0.43988   0.25000   0.00000  Uiso   1.00
O310   O     0.53958   0.43989   0.25000   0.00000  Uiso   1.00
O311   O     0.47973   0.50001   0.17451   0.00000  Uiso   1.00
O312   O     0.55892   0.50002   0.17451   0.00000  Uiso   1.00
C313   C     0.57058   0.37382   0.29382   0.00000  Uiso   1.00
H314   H     0.55081   0.39531   0.32571   0.00000  Uiso   1.00
H315   H     0.59018   0.35111   0.31072   0.00000  Uiso   1.00
H316   H     0.59862   0.39017   0.26366   0.00000  Uiso   1.00
C317   C     0.60021   0.55353   0.32530   0.00000  Uiso   1.00
H318   H     0.59695   0.54189   0.36452   0.00000  Uiso   1.00
H319   H     0.61698   0.58436   0.32227   0.00000  Uiso   1.00
H320   H     0.56348   0.55865   0.32282   0.00000  Uiso   1.00
C321   C     0.64321   0.44586   0.17587   0.00000  Uiso   1.00
H322   H     0.60518   0.44311   0.17686   0.00000  Uiso   1.00
H323   H     0.66449   0.45544   0.13641   0.00000  Uiso   1.00
H324   H     0.65596   0.41450   0.18156   0.00000  Uiso   1.00
H325   H     0.55974   0.62708   0.28262   0.00000  Uiso   1.00
C326   C     0.83313   0.57916   0.25010   0.00000  Uiso   1.00
C327   C     0.81191   0.49534   0.48950   0.00000  Uiso   1.00
C328   C     0.82498   0.48630   0.43526   0.00000  Uiso   1.00
C329   C     0.84807   0.49091   0.01551   0.00000  Uiso   1.00
C330   C     0.89514   0.47489   0.48794   0.00000  Uiso   1.00
C331   C     0.90528   0.46197   0.43635   0.00000  Uiso   1.00
C332   C     0.87052   0.46675   0.41083   0.00000  Uiso   1.00
C333   C     0.83910   0.50205   0.06809   0.00000  Uiso   1.00
C334   C     0.92097   0.48112   0.06521   0.00000  Uiso   1.00
C335   C     0.79181   0.49656   0.40726   0.00000  Uiso   1.00
C336   C     0.86711   0.64432   0.26905   0.00000  Uiso   1.00
C337   C     0.80728   0.49802   0.34993   0.00000  Uiso   1.00
C338   C     0.86790   0.35366   0.27063   0.00000  Uiso   1.00
C339   C     0.83379   0.37590   0.25246   0.00000  Uiso   1.00
C340   C     0.79906   0.35471   0.23505   0.00000  Uiso   1.00
C341   C     0.79835   0.64552   0.23465   0.00000  Uiso   1.00
C342   C     0.83274   0.62364   0.25113   0.00000  Uiso   1.00
C343   C     0.96613   0.52472   0.28471   0.00000  Uiso   1.00
C344   C     0.68214   0.52402   0.28443   0.00000  Uiso   1.00
C345   C     0.70195   0.47572   0.21582   0.00000  Uiso   1.00
C346   C     0.98611   0.47511   0.21558   0.00000  Uiso   1.00
C347   C     0.83334   0.42072   0.25115   0.00000  Uiso   1.00
C348   C     0.85949   0.49973   0.15012   0.00000  Uiso   1.00
C349   C     0.93138   0.47091   0.01266   0.00000  Uiso   1.00
C350   C     0.87432   0.49557   0.09340   0.00000  Uiso   1.00
C351   C     0.74402   0.50933   0.43464   0.00000  Uiso   1.00
C352   C     0.72968   0.51411   0.48833   0.00000  Uiso   1.00
C353   C     0.76314   0.50803   0.01554   0.00000  Uiso   1.00
Cu354  Cu    0.78645   0.49999   0.25000   0.00000  Uiso   1.00
Cu355  Cu    0.88022   0.50001   0.25000   0.00000  Uiso   1.00
H356   H     0.94878   0.47631   0.08403   0.00000  Uiso   1.00
H357   H     0.77265   0.37103   0.22110   0.00000  Uiso   1.00
H358   H     0.77151   0.62977   0.22066   0.00000  Uiso   1.00
H359   H     0.69365   0.54317   0.31184   0.00000  Uiso   1.00
H360   H     0.72918   0.45629   0.18862   0.00000  Uiso   1.00
H361   H     0.94029   0.44791   0.41553   0.00000  Uiso   1.00
H362   H     0.96740   0.45888   0.49161   0.00000  Uiso   1.00
H363   H     0.80468   0.51548   0.09069   0.00000  Uiso   1.00
H364   H     0.71778   0.51661   0.41442   0.00000  Uiso   1.00
H365   H     0.74921   0.51281   0.05704   0.00000  Uiso   1.00
H366   H     0.69261   0.52381   0.00897   0.00000  Uiso   1.00
H367   H     0.88004   0.45391   0.37200   0.00000  Uiso   1.00
N368   N     0.71598   0.49999   0.24999   0.00000  Uiso   1.00
N369   N     0.95069   0.50002   0.25000   0.00000  Uiso   1.00
O370   O     0.79375   0.56011   0.25001   0.00000  Uiso   1.00
O371   O     0.87294   0.56012   0.25001   0.00000  Uiso   1.00
O372   O     0.77441   0.49998   0.32549   0.00000  Uiso   1.00
O373   O     0.85360   0.49999   0.32549   0.00000  Uiso   1.00
O374   O     0.79373   0.43988   0.25000   0.00000  Uiso   1.00
O375   O     0.87292   0.43989   0.25000   0.00000  Uiso   1.00
O376   O     0.81306   0.50001   0.17451   0.00000  Uiso   1.00
O377   O     0.89225   0.50002   0.17451   0.00000  Uiso   1.00
C378   C     0.90391   0.37382   0.29382   0.00000  Uiso   1.00
H379   H     0.88414   0.39531   0.32571   0.00000  Uiso   1.00
H380   H     0.92351   0.35111   0.31072   0.00000  Uiso   1.00
H381   H     0.93196   0.39017   0.26366   0.00000  Uiso   1.00
C382   C     0.93354   0.55353   0.32530   0.00000  Uiso   1.00
H383   H     0.93029   0.54189   0.36452   0.00000  Uiso   1.00
H384   H     0.95031   0.58436   0.32227   0.00000  Uiso   1.00
H385   H     0.89681   0.55865   0.32282   0.00000  Uiso   1.00
C386   C     0.97655   0.44586   0.17587   0.00000  Uiso   1.00
H387   H     0.93852   0.44311   0.17686   0.00000  Uiso   1.00
H388   H     0.99782   0.45544   0.13641   0.00000  Uiso   1.00
H389   H     0.98930   0.41450   0.18156   0.00000  Uiso   1.00
H390   H     0.89308   0.62708   0.28262   0.00000  Uiso   1.00
C391   C     0.16646   0.91249   0.25010   0.00000  Uiso   1.00
C392   C     0.14525   0.82867   0.48950   0.00000  Uiso   1.00
C393   C     0.15831   0.81963   0.43526   0.00000  Uiso   1.00
C394   C     0.18140   0.82425   0.01551   0.00000  Uiso   1.00
C395   C     0.22848   0.80822   0.48794   0.00000  Uiso   1.00
C396   C     0.23861   0.79531   0.43635   0.00000  Uiso   1.00
C397   C     0.20386   0.80008   0.41083   0.00000  Uiso   1.00
C398   C     0.17243   0.83538   0.06809   0.00000  Uiso   1.00
C399   C     0.25431   0.81445   0.06521   0.00000  Uiso   1.00
C400   C     0.12515   0.82989   0.40726   0.00000  Uiso   1.00
C401   C     0.20045   0.97765   0.26905   0.00000  Uiso   1.00
C402   C     0.14062   0.83135   0.34993   0.00000  Uiso   1.00
C403   C     0.20123   0.68699   0.27063   0.00000  Uiso   1.00
C404   C     0.16713   0.70923   0.25246   0.00000  Uiso   1.00
C405   C     0.13239   0.68805   0.23505   0.00000  Uiso   1.00
C406   C     0.13168   0.97885   0.23465   0.00000  Uiso   1.00
C407   C     0.16607   0.95698   0.25113   0.00000  Uiso   1.00
C408   C     0.29947   0.85805   0.28471   0.00000  Uiso   1.00
C409   C     0.01547   0.85736   0.28443   0.00000  Uiso   1.00
C410   C     0.03529   0.80906   0.21582   0.00000  Uiso   1.00
C411   C     0.31944   0.80845   0.21558   0.00000  Uiso   1.00
C412   C     0.16667   0.75405   0.25115   0.00000  Uiso   1.00
C413   C     0.19282   0.83307   0.15012   0.00000  Uiso   1.00
C414   C     0.26471   0.80424   0.01266   0.00000  Uiso   1.00
C415   C     0.20765   0.82890   0.09340   0.00000  Uiso   1.00
C416   C     0.07736   0.84266   0.43464   0.00000  Uiso   1.00
C417   C     0.06301   0.84744   0.48833   0.00000  Uiso   1.00
C418   C     0.09648   0.84137   0.01554   0.00000  Uiso   1.00
Cu419  Cu    0.11978   0.83333   0.25000   0.00000  Uiso   1.00
Cu420  Cu    0.21355   0.83334   0.25000   0.00000  Uiso   1.00
H421   H     0.28212   0.80964   0.08403   0.00000  Uiso   1.00
H422   H     0.10598   0.70436   0.22110   0.00000  Uiso   1.00
H423   H     0.10484   0.96310   0.22066   0.00000  Uiso   1.00
H424   H     0.02698   0.87650   0.31184   0.00000  Uiso   1.00
H425   H     0.06251   0.78963   0.18862   0.00000  Uiso   1.00
H426   H     0.27362   0.78124   0.41553   0.00000  Uiso   1.00
H427   H     0.30074   0.79221   0.49161   0.00000  Uiso   1.00
H428   H     0.13801   0.84881   0.09069   0.00000  Uiso   1.00
H429   H     0.05111   0.84994   0.41442   0.00000  Uiso   1.00
H430   H     0.08255   0.84614   0.05704   0.00000  Uiso   1.00
H431   H     0.02594   0.85714   0.00897   0.00000  Uiso   1.00
H432   H     0.21337   0.78725   0.37200   0.00000  Uiso   1.00
N433   N     0.04931   0.83332   0.24999   0.00000  Uiso   1.00
N434   N     0.28402   0.83335   0.25000   0.00000  Uiso   1.00
O435   O     0.12708   0.89345   0.25001   0.00000  Uiso   1.00
O436   O     0.20627   0.89346   0.25001   0.00000  Uiso   1.00
O437   O     0.10775   0.83332   0.32549   0.00000  Uiso   1.00
O438   O     0.18694   0.83333   0.32549   0.00000  Uiso   1.00
O439   O     0.12706   0.77321   0.25000   0.00000  Uiso   1.00
O440   O     0.20625   0.77322   0.25000   0.00000  Uiso   1.00
O441   O     0.14640   0.83334   0.17451   0.00000  Uiso   1.00
O442   O     0.22559   0.83335   0.17451   0.00000  Uiso   1.00
C443   C     0.23725   0.70715   0.29382   0.00000  Uiso   1.00
H444   H     0.21748   0.72865   0.32571   0.00000  Uiso   1.00
H445   H     0.25684   0.68444   0.31072   0.00000  Uiso   1.00
H446   H     0.26529   0.72351   0.26366   0.00000  Uiso   1.00
C447   C     0.26688   0.88686   0.32530   0.00000  Uiso   1.00
H448   H     0.26362   0.87522   0.36452   0.00000  Uiso   1.00
H449   H     0.28365   0.91769   0.32227   0.00000  Uiso   1.00
H450   H     0.23015   0.89198   0.32282   0.00000  Uiso   1.00
C451   C     0.30988   0.77919   0.17587   0.00000  Uiso   1.00
H452   H     0.27185   0.77644   0.17686   0.00000  Uiso   1.00
H453   H     0.33115   0.78878   0.13641   0.00000  Uiso   1.00
H454   H     0.32263   0.74784   0.18156   0.00000  Uiso   1.00
H455   H     0.22641   0.96041   0.28262   0.00000  Uiso   1.00
C456   C     0.49980   0.91249   0.25010   0.00000  Uiso   1.00
C457   C     0.47858   0.82867   0.48950   0.00000  Uiso   1.00
C458   C     0.49165   0.81963   0.43526   0.00000  Uiso   1.00
C459   C     0.51474   0.82425   0.01551   0.00000  Uiso   1.00
C460   C     0.56181   0.80822   0.48794   0.00000  Uiso   1.00
C461   C     0.57194   0.79531   0.43635   0.00000  Uiso   1.00
C462   C     0.53719   0.80008   0.41083   0.00000  Uiso   1.00
C463   C     0.50576   0.83538   0.06809   0.00000  Uiso   1.00
C464   C     0.58764   0.81445   0.06521   0.00000  Uiso   1.00
C465   C     0.45848   0.82989   0.40726   0.00000  Uiso   1.00
C466   C     0.53378   0.97765   0.26905   0.00000  Uiso   1.00
C467   C     0.47395   0.83135   0.34993   0.00000  Uiso   1.00
C468   C     0.53456   0.68699   0.27063   0.00000  Uiso   1.00
C469   C     0.50046   0.70923   0.25246   0.00000  Uiso   1.00
C470   C     0.46572   0.68805   0.23505   0.00000  Uiso   1.00
C471   C     0.46502   0.97885   0.23465   0.00000  Uiso   1.00
C472   C     0.49941   0.95698   0.25113   0.00000  Uiso   1.00
C473   C     0.63280   0.85805   0.28471   0.00000  Uiso   1.00
C474   C     0.34881   0.85736   0.28443   0.00000  Uiso   1.00
C475   C     0.36862   0.80906   0.21582   0.00000  Uiso   1.00
C476   C     0.65277   0.80845   0.21558   0.00000  Uiso   1.00
C477   C     0.50001   0.75405   0.25115   0.00000  Uiso   1.00
C478   C     0.52616   0.83307   0.15012   0.00000  Uiso   1.00
C479   C     0.59804   0.80424   0.01266   0.00000  Uiso   1.00
C480   C     0.54099   0.82890   0.09340   0.00000  Uiso   1.00
C481   C     0.41069   0.84266   0.43464   0.00000  Uiso   1.00
C482   C     0.39635   0.84744   0.48833   0.00000  Uiso   1.00
C483   C     0.42981   0.84137   0.01554   0.00000  Uiso   1.00
Cu484  Cu    0.45311   0.83333   0.25000   0.00000  Uiso   1.00
Cu485  Cu    0.54689   0.83334   0.25000   0.00000  Uiso   1.00
H486   H     0.61545   0.80964   0.08403   0.00000  Uiso   1.00
H487   H     0.43931   0.70436   0.22110   0.00000  Uiso   1.00
H488   H     0.43817   0.96310   0.22066   0.00000  Uiso   1.00
H489   H     0.36031   0.87650   0.31184   0.00000  Uiso   1.00
H490   H     0.39585   0.78963   0.18862   0.00000  Uiso   1.00
H491   H     0.60695   0.78124   0.41553   0.00000  Uiso   1.00
H492   H     0.63407   0.79221   0.49161   0.00000  Uiso   1.00
H493   H     0.47134   0.84881   0.09069   0.00000  Uiso   1.00
H494   H     0.38445   0.84994   0.41442   0.00000  Uiso   1.00
H495   H     0.41588   0.84614   0.05704   0.00000  Uiso   1.00
H496   H     0.35927   0.85714   0.00897   0.00000  Uiso   1.00
H497   H     0.54670   0.78725   0.37200   0.00000  Uiso   1.00
N498   N     0.38265   0.83332   0.24999   0.00000  Uiso   1.00
N499   N     0.61735   0.83335   0.25000   0.00000  Uiso   1.00
O500   O     0.46042   0.89345   0.25001   0.00000  Uiso   1.00
O501   O     0.53961   0.89346   0.25001   0.00000  Uiso   1.00
O502   O     0.44108   0.83332   0.32549   0.00000  Uiso   1.00
O503   O     0.52027   0.83333   0.32549   0.00000  Uiso   1.00
O504   O     0.46039   0.77321   0.25000   0.00000  Uiso   1.00
O505   O     0.53958   0.77322   0.25000   0.00000  Uiso   1.00
O506   O     0.47973   0.83334   0.17451   0.00000  Uiso   1.00
O507   O     0.55892   0.83335   0.17451   0.00000  Uiso   1.00
C508   C     0.57058   0.70715   0.29382   0.00000  Uiso   1.00
H509   H     0.55081   0.72865   0.32571   0.00000  Uiso   1.00
H510   H     0.59018   0.68444   0.31072   0.00000  Uiso   1.00
H511   H     0.59862   0.72351   0.26366   0.00000  Uiso   1.00
C512   C     0.60021   0.88686   0.32530   0.00000  Uiso   1.00
H513   H     0.59695   0.87522   0.36452   0.00000  Uiso   1.00
H514   H     0.61698   0.91769   0.32227   0.00000  Uiso   1.00
H515   H     0.56348   0.89198   0.32282   0.00000  Uiso   1.00
C516   C     0.64321   0.77919   0.17587   0.00000  Uiso   1.00
H517   H     0.60518   0.77644   0.17686   0.00000  Uiso   1.00
H518   H     0.66449   0.78878   0.13641   0.00000  Uiso   1.00
H519   H     0.65596   0.74784   0.18156   0.00000  Uiso   1.00
H520   H     0.55974   0.96041   0.28262   0.00000  Uiso   1.00
C521   C     0.83313   0.91249   0.25010   0.00000  Uiso   1.00
C522   C     0.81191   0.82867   0.48950   0.00000  Uiso   1.00
C523   C     0.82498   0.81963   0.43526   0.00000  Uiso   1.00
C524   C     0.84807   0.82425   0.01551   0.00000  Uiso   1.00
C525   C     0.89514   0.80822   0.48794   0.00000  Uiso   1.00
C526   C     0.90528   0.79531   0.43635   0.00000  Uiso   1.00
C527   C     0.87052   0.80008   0.41083   0.00000  Uiso   1.00
C528   C     0.83910   0.83538   0.06809   0.00000  Uiso   1.00
C529   C     0.92097   0.81445   0.06521   0.00000  Uiso   1.00
C530   C     0.79181   0.82989   0.40726   0.00000  Uiso   1.00
C531   C     0.86711   0.97765   0.26905   0.00000  Uiso   1.00
C532   C     0.80728   0.83135   0.34993   0.00000  Uiso   1.00
C533   C     0.86790   0.68699   0.27063   0.00000  Uiso   1.00
C534   C     0.83379   0.70923   0.25246   0.00000  Uiso   1.00
C535   C     0.79906   0.68805   0.23505   0.00000  Uiso   1.00
C536   C     0.79835   0.97885   0.23465   0.00000  Uiso   1.00
C537   C     0.83274   0.95698   0.25113   0.00000  Uiso   1.00
C538   C     0.96613   0.85805   0.28471   0.00000  Uiso   1.00
C539   C     0.68214   0.85736   0.28443   0.00000  Uiso   1.00
C540   C     0.70195   0.80906   0.21582   0.00000  Uiso   1.00
C541   C     0.98611   0.80845   0.21558   0.00000  Uiso   1.00
C542   C     0.83334   0.75405   0.25115   0.00000  Uiso   1.00
C543   C     0.85949   0.83307   0.15012   0.00000  Uiso   1.00
C544   C     0.93138   0.80424   0.01266   0.00000  Uiso   1.00
C545   C     0.87432   0.82890   0.09340   0.00000  Uiso   1.00
C546   C     0.74402   0.84266   0.43464   0.00000  Uiso   1.00
C547   C     0.72968   0.84744   0.48833   0.00000  Uiso   1.00
C548   C     0.76314   0.84137   0.01554   0.00000  Uiso   1.00
Cu549  Cu    0.78645   0.83333   0.25000   0.00000  Uiso   1.00
Cu550  Cu    0.88022   0.83334   0.25000   0.00000  Uiso   1.00
H551   H     0.94878   0.80964   0.08403   0.00000  Uiso   1.00
H552   H     0.77265   0.70436   0.22110   0.00000  Uiso   1.00
H553   H     0.77151   0.96310   0.22066   0.00000  Uiso   1.00
H554   H     0.69365   0.87650   0.31184   0.00000  Uiso   1.00
H555   H     0.72918   0.78963   0.18862   0.00000  Uiso   1.00
H556   H     0.94029   0.78124   0.41553   0.00000  Uiso   1.00
H557   H     0.96740   0.79221   0.49161   0.00000  Uiso   1.00
H558   H     0.80468   0.84881   0.09069   0.00000  Uiso   1.00
H559   H     0.71778   0.84994   0.41442   0.00000  Uiso   1.00
H560   H     0.74921   0.84614   0.05704   0.00000  Uiso   1.00
H561   H     0.69261   0.85714   0.00897   0.00000  Uiso   1.00
H562   H     0.88004   0.78725   0.37200   0.00000  Uiso   1.00
N563   N     0.71598   0.83332   0.24999   0.00000  Uiso   1.00
N564   N     0.95069   0.83335   0.25000   0.00000  Uiso   1.00
O565   O     0.79375   0.89345   0.25001   0.00000  Uiso   1.00
O566   O     0.87294   0.89346   0.25001   0.00000  Uiso   1.00
O567   O     0.77441   0.83332   0.32549   0.00000  Uiso   1.00
O568   O     0.85360   0.83333   0.32549   0.00000  Uiso   1.00
O569   O     0.79373   0.77321   0.25000   0.00000  Uiso   1.00
O570   O     0.87292   0.77322   0.25000   0.00000  Uiso   1.00
O571   O     0.81306   0.83334   0.17451   0.00000  Uiso   1.00
O572   O     0.89225   0.83335   0.17451   0.00000  Uiso   1.00
C573   C     0.90391   0.70715   0.29382   0.00000  Uiso   1.00
H574   H     0.88414   0.72865   0.32571   0.00000  Uiso   1.00
H575   H     0.92351   0.68444   0.31072   0.00000  Uiso   1.00
H576   H     0.93196   0.72351   0.26366   0.00000  Uiso   1.00
C577   C     0.93354   0.88686   0.32530   0.00000  Uiso   1.00
H578   H     0.93029   0.87522   0.36452   0.00000  Uiso   1.00
H579   H     0.95031   0.91769   0.32227   0.00000  Uiso   1.00
H580   H     0.89681   0.89198   0.32282   0.00000  Uiso   1.00
C581   C     0.97655   0.77919   0.17587   0.00000  Uiso   1.00
H582   H     0.93852   0.77644   0.17686   0.00000  Uiso   1.00
H583   H     0.99782   0.78878   0.13641   0.00000  Uiso   1.00
H584   H     0.98930   0.74784   0.18156   0.00000  Uiso   1.00
H585   H     0.89308   0.96041   0.28262   0.00000  Uiso   1.00
C586   C     0.16646   0.24582   0.75010   0.00000  Uiso   1.00
C587   C     0.14525   0.16201   0.98950   0.00000  Uiso   1.00
C588   C     0.15831   0.15296   0.93526   0.00000  Uiso   1.00
C589   C     0.18140   0.15758   0.51551   0.00000  Uiso   1.00
C590   C     0.22848   0.14156   0.98794   0.00000  Uiso   1.00
C591   C     0.23861   0.12864   0.93635   0.00000  Uiso   1.00
C592   C     0.20386   0.13342   0.91083   0.00000  Uiso   1.00
C593   C     0.17243   0.16872   0.56809   0.00000  Uiso   1.00
C594   C     0.25431   0.14778   0.56521   0.00000  Uiso   1.00
C595   C     0.12515   0.16323   0.90726   0.00000  Uiso   1.00
C596   C     0.20045   0.31098   0.76905   0.00000  Uiso   1.00
C597   C     0.14062   0.16469   0.84993   0.00000  Uiso   1.00
C598   C     0.20123   0.02032   0.77063   0.00000  Uiso   1.00
C599   C     0.16713   0.04256   0.75246   0.00000  Uiso   1.00
C600   C     0.13239   0.02138   0.73505   0.00000  Uiso   1.00
C601   C     0.13168   0.31218   0.73465   0.00000  Uiso   1.00
C602   C     0.16607   0.29031   0.75113   0.00000  Uiso   1.00
C603   C     0.29947   0.19139   0.78471   0.00000  Uiso   1.00
C604   C     0.01547   0.19069   0.78443   0.00000  Uiso   1.00
C605   C     0.03529   0.14239   0.71582   0.00000  Uiso   1.00
C606   C     0.31944   0.14178   0.71558   0.00000  Uiso   1.00
C607   C     0.16667   0.08738   0.75115   0.00000  Uiso   1.00
C608   C     0.19282   0.16640   0.65012   0.00000  Uiso   1.00
C609   C     0.26471   0.13757   0.51266   0.00000  Uiso   1.00
C610   C     0.20765   0.16223   0.59340   0.00000  Uiso   1.00
C611   C     0.07736   0.17600   0.93464   0.00000  Uiso   1.00
C612   C     0.06301   0.18077   0.98833   0.00000  Uiso   1.00
C613   C     0.09648   0.17470   0.51554   0.00000  Uiso   1.00
Cu614  Cu    0.11978   0.16666   0.75000   0.00000  Uiso   1.00
Cu615  Cu    0.21355   0.16667   0.75000   0.00000  Uiso   1.00
H616   H     0.28212   0.14297   0.58403   0.00000  Uiso   1.00
H617   H     0.10598   0.03769   0.72110   0.00000  Uiso   1.00
H618   H     0.10484   0.29643   0.72066   0.00000  Uiso   1.00
H619   H     0.02698   0.20983   0.81184   0.00000  Uiso   1.00
H620   H     0.06251   0.12296   0.68862   0.00000  Uiso   1.00
H621   H     0.27362   0.11458   0.91553   0.00000  Uiso   1.00
H622   H     0.30074   0.12555   0.99161   0.00000  Uiso   1.00
H623   H     0.13801   0.18214   0.59069   0.00000  Uiso   1.00
H624   H     0.05111   0.18328   0.91442   0.00000  Uiso   1.00
H625   H     0.08255   0.17948   0.55704   0.00000  Uiso   1.00
H626   H     0.02594   0.19047   0.50897   0.00000  Uiso   1.00
H627   H     0.21337   0.12058   0.87200   0.00000  Uiso   1.00
N628   N     0.04931   0.16666   0.74999   0.00000  Uiso   1.00
N629   N     0.28402   0.16669   0.75000   0.00000  Uiso   1.00
O630   O     0.12708   0.22678   0.75001   0.00000  Uiso   1.00
O631   O     0.20627   0.22679   0.75001   0.00000  Uiso   1.00
O632   O     0.10775   0.16665   0.82549   0.00000  Uiso   1.00
O633   O     0.18694   0.16666   0.82549   0.00000  Uiso   1.00
O634   O     0.12706   0.10654   0.75000   0.00000  Uiso   1.00
O635   O     0.20625   0.10655   0.75000   0.00000  Uiso   1.00
O636   O     0.14640   0.16667   0.67451   0.00000  Uiso   1.00
O637   O     0.22559   0.16668   0.67451   0.00000  Uiso   1.00
C638   C     0.23725   0.04048   0.79382   0.00000  Uiso   1.00
H639   H     0.21748   0.06198   0.82571   0.00000  Uiso   1.00
H640   H     0.25684   0.01778   0.81072   0.00000  Uiso   1.00
H641   H     0.26529   0.05684   0.76366   0.00000  Uiso   1.00
C642   C     0.26688   0.22019   0.82530   0.00000  Uiso   1.00
H643   H     0.26362   0.20855   0.86452   0.00000  Uiso   1.00
H644   H     0.28365   0.25103   0.82227   0.00000  Uiso   1.00
H645   H     0.23015   0.22532   0.82282   0.00000  Uiso   1.00
C646   C     0.30988   0.11252   0.67587   0.00000  Uiso   1.00
H647   H     0.27185   0.10977   0.67686   0.00000  Uiso   1.00
H648   H     0.33115   0.12211   0.63641   0.00000  Uiso   1.00
H649   H     0.32263   0.08117   0.68156   0.00000  Uiso   1.00
H650   H     0.22641   0.29375   0.78262   0.00000  Uiso   1.00
C651   C     0.49980   0.24582   0.75010   0.00000  Uiso   1.00
C652   C     0.47858   0.16201   0.98950   0.00000  Uiso   1.00
C653   C     0.49165   0.15296   0.93526   0.00000  Uiso   1.00
C654   C     0.51474   0.15758   0.51551   0.00000  Uiso   1.00
C655   C     0.56181   0.14156   0.98794   0.00000  Uiso   1.00
C656   C     0.57194   0.12864   0.93635   0.00000  Uiso   1.00
C657   C     0.53719   0.13342   0.91083   0.00000  Uiso   1.00
C658   C     0.50576   0.16872   0.56809   0.00000  Uiso   1.00
C659   C     0.58764   0.14778   0.56521   0.00000  Uiso   1.00
C660   C     0.45848   0.16323   0.90726   0.00000  Uiso   1.00
C661   C     0.53378   0.31098   0.76905   0.00000  Uiso   1.00
C662   C     0.47395   0.16469   0.84993   0.00000  Uiso   1.00
C663   C     0.53456   0.02032   0.77063   0.00000  Uiso   1.00
C664   C     0.50046   0.04256   0.75246   0.00000  Uiso   1.00
C665   C     0.46572   0.02138   0.73505   0.00000  Uiso   1.00
C666   C     0.46502   0.31218   0.73465   0.00000  Uiso   1.00
C667   C     0.49941   0.29031   0.75113   0.00000  Uiso   1.00
C668   C     0.63280   0.19139   0.78471   0.00000  Uiso   1.00
C669   C     0.34881   0.19069   0.78443   0.00000  Uiso   1.00
C670   C     0.36862   0.14239   0.71582   0.00000  Uiso   1.00
C671   C     0.65277   0.14178   0.71558   0.00000  Uiso   1.00
C672   C     0.50001   0.08738   0.75115   0.00000  Uiso   1.00
C673   C     0.52616   0.16640   0.65012   0.00000  Uiso   1.00
C674   C     0.59804   0.13757   0.51266   0.00000  Uiso   1.00
C675   C     0.54099   0.16223   0.59340   0.00000  Uiso   1.00
C676   C     0.41069   0.17600   0.93464   0.00000  Uiso   1.00
C677   C     0.39635   0.18077   0.98833   0.00000  Uiso   1.00
C678   C     0.42981   0.17470   0.51554   0.00000  Uiso   1.00
Cu679  Cu    0.45311   0.16666   0.75000   0.00000  Uiso   1.00
Cu680  Cu    0.54689   0.16667   0.75000   0.00000  Uiso   1.00
H681   H     0.61545   0.14297   0.58403   0.00000  Uiso   1.00
H682   H     0.43931   0.03769   0.72110   0.00000  Uiso   1.00
H683   H     0.43817   0.29643   0.72066   0.00000  Uiso   1.00
H684   H     0.36031   0.20983   0.81184   0.00000  Uiso   1.00
H685   H     0.39585   0.12296   0.68862   0.00000  Uiso   1.00
H686   H     0.60695   0.11458   0.91553   0.00000  Uiso   1.00
H687   H     0.63407   0.12555   0.99161   0.00000  Uiso   1.00
H688   H     0.47134   0.18214   0.59069   0.00000  Uiso   1.00
H689   H     0.38445   0.18328   0.91442   0.00000  Uiso   1.00
H690   H     0.41588   0.17948   0.55704   0.00000  Uiso   1.00
H691   H     0.35927   0.19047   0.50897   0.00000  Uiso   1.00
H692   H     0.54670   0.12058   0.87200   0.00000  Uiso   1.00
N693   N     0.38265   0.16666   0.74999   0.00000  Uiso   1.00
N694   N     0.61735   0.16669   0.75000   0.00000  Uiso   1.00
O695   O     0.46042   0.22678   0.75001   0.00000  Uiso   1.00
O696   O     0.53961   0.22679   0.75001   0.00000  Uiso   1.00
O697   O     0.44108   0.16665   0.82549   0.00000  Uiso   1.00
O698   O     0.52027   0.16666   0.82549   0.00000  Uiso   1.00
O699   O     0.46039   0.10654   0.75000   0.00000  Uiso   1.00
O700   O     0.53958   0.10655   0.75000   0.00000  Uiso   1.00
O701   O     0.47973   0.16667   0.67451   0.00000  Uiso   1.00
O702   O     0.55892   0.16668   0.67451   0.00000  Uiso   1.00
C703   C     0.57058   0.04048   0.79382   0.00000  Uiso   1.00
H704   H     0.55081   0.06198   0.82571   0.00000  Uiso   1.00
H705   H     0.59018   0.01778   0.81072   0.00000  Uiso   1.00
H706   H     0.59862   0.05684   0.76366   0.00000  Uiso   1.00
C707   C     0.60021   0.22019   0.82530   0.00000  Uiso   1.00
H708   H     0.59695   0.20855   0.86452   0.00000  Uiso   1.00
H709   H     0.61698   0.25103   0.82227   0.00000  Uiso   1.00
H710   H     0.56348   0.22532   0.82282   0.00000  Uiso   1.00
C711   C     0.64321   0.11252   0.67587   0.00000  Uiso   1.00
H712   H     0.60518   0.10977   0.67686   0.00000  Uiso   1.00
H713   H     0.66449   0.12211   0.63641   0.00000  Uiso   1.00
H714   H     0.65596   0.08117   0.68156   0.00000  Uiso   1.00
H715   H     0.55974   0.29375   0.78262   0.00000  Uiso   1.00
C716   C     0.83313   0.24582   0.75010   0.00000  Uiso   1.00
C717   C     0.81191   0.16201   0.98950   0.00000  Uiso   1.00
C718   C     0.82498   0.15296   0.93526   0.00000  Uiso   1.00
C719   C     0.84807   0.15758   0.51551   0.00000  Uiso   1.00
C720   C     0.89514   0.14156   0.98794   0.00000  Uiso   1.00
C721   C     0.90528   0.12864   0.93635   0.00000  Uiso   1.00
C722   C     0.87052   0.13342   0.91083   0.00000  Uiso   1.00
C723   C     0.83910   0.16872   0.56809   0.00000  Uiso   1.00
C724   C     0.92097   0.14778   0.56521   0.00000  Uiso   1.00
C725   C     0.79181   0.16323   0.90726   0.00000  Uiso   1.00
C726   C     0.86711   0.31098   0.76905   0.00000  Uiso   1.00
C727   C     0.80728   0.16469   0.84993   0.00000  Uiso   1.00
C728   C     0.86790   0.02032   0.77063   0.00000  Uiso   1.00
C729   C     0.83379   0.04256   0.75246   0.00000  Uiso   1.00
C730   C     0.79906   0.02138   0.73505   0.00000  Uiso   1.00
C731   C     0.79835   0.31218   0.73465   0.00000  Uiso   1.00
C732   C     0.83274   0.29031   0.75113   0.00000  Uiso   1.00
C733   C     0.96613   0.19139   0.78471   0.00000  Uiso   1.00
C734   C     0.68214   0.19069   0.78443   0.00000  Uiso   1.00
C735   C     0.70195   0.14239   0.71582   0.00000  Uiso   1.00
C736   C     0.98611   0.14178   0.71558   0.00000  Uiso   1.00
C737   C     0.83334   0.08738   0.75115   0.00000  Uiso   1.00
C738   C     0.85949   0.16640   0.65012   0.00000  Uiso   1.00
C739   C     0.93138   0.13757   0.51266   0.00000  Uiso   1.00
C740   C     0.87432   0.16223   0.59340   0.00000  Uiso   1.00
C741   C     0.74402   0.17600   0.93464   0.00000  Uiso   1.00
C742   C     0.72968   0.18077   0.98833   0.00000  Uiso   1.00
C743   C     0.76314   0.17470   0.51554   0.00000  Uiso   1.00
Cu744  Cu    0.78645   0.16666   0.75000   0.00000  Uiso   1.00
Cu745  Cu    0.88022   0.16667   0.75000   0.00000  Uiso   1.00
H746   H     0.94878   0.14297   0.58403   0.00000  Uiso   1.00
H747   H     0.77265   0.03769   0.72110   0.00000  Uiso   1.00
H748   H     0.77151   0.29643   0.72066   0.00000  Uiso   1.00
H749   H     0.69365   0.20983   0.81184   0.00000  Uiso   1.00
H750   H     0.72918   0.12296   0.68862   0.00000  Uiso   1.00
H751   H     0.94029   0.11458   0.91553   0.00000  Uiso   1.00
H752   H     0.96740   0.12555   0.99161   0.00000  Uiso   1.00
H753   H     0.80468   0.18214   0.59069   0.00000  Uiso   1.00
H754   H     0.71778   0.18328   0.91442   0.00000  Uiso   1.00
H755   H     0.74921   0.17948   0.55704   0.00000  Uiso   1.00
H756   H     0.69261   0.19047   0.50897   0.00000  Uiso   1.00
H757   H     0.88004   0.12058   0.87200   0.00000  Uiso   1.00
N758   N     0.71598   0.16666   0.74999   0.00000  Uiso   1.00
N759   N     0.95069   0.16669   0.75000   0.00000  Uiso   1.00
O760   O     0.79375   0.22678   0.75001   0.00000  Uiso   1.00
O761   O     0.87294   0.22679   0.75001   0.00000  Uiso   1.00
O762   O     0.77441   0.16665   0.82549   0.00000  Uiso   1.00
O763   O     0.85360   0.16666   0.82549   0.00000  Uiso   1.00
O764   O     0.79373   0.10654   0.75000   0.00000  Uiso   1.00
O765   O     0.87292   0.10655   0.75000   0.00000  Uiso   1.00
O766   O     0.81306   0.16667   0.67451   0.00000  Uiso   1.00
O767   O     0.89225   0.16668   0.67451   0.00000  Uiso   1.00
C768   C     0.90391   0.04048   0.79382   0.00000  Uiso   1.00
H769   H     0.88414   0.06198   0.82571   0.00000  Uiso   1.00
H770   H     0.92351   0.01778   0.81072   0.00000  Uiso   1.00
H771   H     0.93196   0.05684   0.76366   0.00000  Uiso   1.00
C772   C     0.93354   0.22019   0.82530   0.00000  Uiso   1.00
H773   H     0.93029   0.20855   0.86452   0.00000  Uiso   1.00
H774   H     0.95031   0.25103   0.82227   0.00000  Uiso   1.00
H775   H     0.89681   0.22532   0.82282   0.00000  Uiso   1.00
C776   C     0.97655   0.11252   0.67587   0.00000  Uiso   1.00
H777   H     0.93852   0.10977   0.67686   0.00000  Uiso   1.00
H778   H     0.99782   0.12211   0.63641   0.00000  Uiso   1.00
H779   H     0.98930   0.08117   0.68156   0.00000  Uiso   1.00
H780   H     0.89308   0.29375   0.78262   0.00000  Uiso   1.00
C781   C     0.16646   0.57916   0.75010   0.00000  Uiso   1.00
C782   C     0.14525   0.49534   0.98950   0.00000  Uiso   1.00
C783   C     0.15831   0.48630   0.93526   0.00000  Uiso   1.00
C784   C     0.18140   0.49091   0.51551   0.00000  Uiso   1.00
C785   C     0.22848   0.47489   0.98794   0.00000  Uiso   1.00
C786   C     0.23861   0.46197   0.93635   0.00000  Uiso   1.00
C787   C     0.20386   0.46675   0.91083   0.00000  Uiso   1.00
C788   C     0.17243   0.50205   0.56809   0.00000  Uiso   1.00
C789   C     0.25431   0.48112   0.56521   0.00000  Uiso   1.00
C790   C     0.12515   0.49656   0.90726   0.00000  Uiso   1.00
C791   C     0.20045   0.64432   0.76905   0.00000  Uiso   1.00
C792   C     0.14062   0.49802   0.84993   0.00000  Uiso   1.00
C793   C     0.20123   0.35366   0.77063   0.00000  Uiso   1.00
C794   C     0.16713   0.37590   0.75246   0.00000  Uiso   1.00
C795   C     0.13239   0.35471   0.73505   0.00000  Uiso   1.00
C796   C     0.13168   0.64552   0.73465   0.00000  Uiso   1.00
C797   C     0.16607   0.62364   0.75113   0.00000  Uiso   1.00
C798   C     0.29947   0.52472   0.78471   0.00000  Uiso   1.00
C799   C     0.01547   0.52402   0.78443   0.00000  Uiso   1.00
C800   C     0.03529   0.47572   0.71582   0.00000  Uiso   1.00
C801   C     0.31944   0.47511   0.71558   0.00000  Uiso   1.00
C802   C     0.16667   0.42072   0.75115   0.00000  Uiso   1.00
C803   C     0.19282   0.49973   0.65012   0.00000  Uiso   1.00
C804   C     0.26471   0.47091   0.51266   0.00000  Uiso   1.00
C805   C     0.20765   0.49557   0.59340   0.00000  Uiso   1.00
C806   C     0.07736   0.50933   0.93464   0.00000  Uiso   1.00
C807   C     0.06301   0.51411   0.98833   0.00000  Uiso   1.00
C808   C     0.09648   0.50803   0.51554   0.00000  Uiso   1.00
Cu809  Cu    0.11978   0.49999   0.75000   0.00000  Uiso   1.00
Cu810  Cu    0.21355   0.50001   0.75000   0.00000  Uiso   1.00
H811   H     0.28212   0.47631   0.58403   0.00000  Uiso   1.00
H812   H     0.10598   0.37103   0.72110   0.00000  Uiso   1.00
H813   H     0.10484   0.62977   0.72066   0.00000  Uiso   1.00
H814   H     0.02698   0.54317   0.81184   0.00000  Uiso   1.00
H815   H     0.06251   0.45629   0.68862   0.00000  Uiso   1.00
H816   H     0.27362   0.44791   0.91553   0.00000  Uiso   1.00
H817   H     0.30074   0.45888   0.99161   0.00000  Uiso   1.00
H818   H     0.13801   0.51548   0.59069   0.00000  Uiso   1.00
H819   H     0.05111   0.51661   0.91442   0.00000  Uiso   1.00
H820   H     0.08255   0.51281   0.55704   0.00000  Uiso   1.00
H821   H     0.02594   0.52381   0.50897   0.00000  Uiso   1.00
H822   H     0.21337   0.45391   0.87200   0.00000  Uiso   1.00
N823   N     0.04931   0.49999   0.74999   0.00000  Uiso   1.00
N824   N     0.28402   0.50002   0.75000   0.00000  Uiso   1.00
O825   O     0.12708   0.56011   0.75001   0.00000  Uiso   1.00
O826   O     0.20627   0.56012   0.75001   0.00000  Uiso   1.00
O827   O     0.10775   0.49998   0.82549   0.00000  Uiso   1.00
O828   O     0.18694   0.49999   0.82549   0.00000  Uiso   1.00
O829   O     0.12706   0.43988   0.75000   0.00000  Uiso   1.00
O830   O     0.20625   0.43989   0.75000   0.00000  Uiso   1.00
O831   O     0.14640   0.50001   0.67451   0.00000  Uiso   1.00
O832   O     0.22559   0.50002   0.67451   0.00000  Uiso   1.00
C833   C     0.23725   0.37382   0.79382   0.00000  Uiso   1.00
H834   H     0.21748   0.39531   0.82571   0.00000  Uiso   1.00
H835   H     0.25684   0.35111   0.81072   0.00000  Uiso   1.00
H836   H     0.26529   0.39017   0.76366   0.00000  Uiso   1.00
C837   C     0.26688   0.55353   0.82530   0.00000  Uiso   1.00
H838   H     0.26362   0.54189   0.86452   0.00000  Uiso   1.00
H839   H     0.28365   0.58436   0.82227   0.00000  Uiso   1.00
H840   H     0.23015   0.55865   0.82282   0.00000  Uiso   1.00
C841   C     0.30988   0.44586   0.67587   0.00000  Uiso   1.00
H842   H     0.27185   0.44311   0.67686   0.00000  Uiso   1.00
H843   H     0.33115   0.45544   0.63641   0.00000  Uiso   1.00
H844   H     0.32263   0.41450   0.68156   0.00000  Uiso   1.00
H845   H     0.22641   0.62708   0.78262   0.00000  Uiso   1.00
C846   C     0.49980   0.57916   0.75010   0.00000  Uiso   1.00
C847   C     0.47858   0.49534   0.98950   0.00000  Uiso   1.00
C848   C     0.49165   0.48630   0.93526   0.00000  Uiso   1.00
C849   C     0.51474   0.49091   0.51551   0.00000  Uiso   1.00
C850   C     0.56181   0.47489   0.98794   0.00000  Uiso   1.00
C851   C     0.57194   0.46197   0.93635   0.00000  Uiso   1.00
C852   C     0.53719   0.46675   0.91083   0.00000  Uiso   1.00
C853   C     0.50576   0.50205   0.56809   0.00000  Uiso   1.00
C854   C     0.58764   0.48112   0.56521   0.00000  Uiso   1.00
C855   C     0.45848   0.49656   0.90726   0.00000  Uiso   1.00
C856   C     0.53378   0.64432   0.76905   0.00000  Uiso   1.00
C857   C     0.47395   0.49802   0.84993   0.00000  Uiso   1.00
C858   C     0.53456   0.35366   0.77063   0.00000  Uiso   1.00
C859   C     0.50046   0.37590   0.75246   0.00000  Uiso   1.00
C860   C     0.46572   0.35471   0.73505   0.00000  Uiso   1.00
C861   C     0.46502   0.64552   0.73465   0.00000  Uiso   1.00
C862   C     0.49941   0.62364   0.75113   0.00000  Uiso   1.00
C863   C     0.63280   0.52472   0.78471   0.00000  Uiso   1.00
C864   C     0.34881   0.52402   0.78443   0.00000  Uiso   1.00
C865   C     0.36862   0.47572   0.71582   0.00000  Uiso   1.00
C866   C     0.65277   0.47511   0.71558   0.00000  Uiso   1.00
C867   C     0.50001   0.42072   0.75115   0.00000  Uiso   1.00
C868   C     0.52616   0.49973   0.65012   0.00000  Uiso   1.00
C869   C     0.59804   0.47091   0.51266   0.00000  Uiso   1.00
C870   C     0.54099   0.49557   0.59340   0.00000  Uiso   1.00
C871   C     0.41069   0.50933   0.93464   0.00000  Uiso   1.00
C872   C     0.39635   0.51411   0.98833   0.00000  Uiso   1.00
C873   C     0.42981   0.50803   0.51554   0.00000  Uiso   1.00
Cu874  Cu    0.45311   0.49999   0.75000   0.00000  Uiso   1.00
Cu875  Cu    0.54689   0.50001   0.75000   0.00000  Uiso   1.00
H876   H     0.61545   0.47631   0.58403   0.00000  Uiso   1.00
H877   H     0.43931   0.37103   0.72110   0.00000  Uiso   1.00
H878   H     0.43817   0.62977   0.72066   0.00000  Uiso   1.00
H879   H     0.36031   0.54317   0.81184   0.00000  Uiso   1.00
H880   H     0.39585   0.45629   0.68862   0.00000  Uiso   1.00
H881   H     0.60695   0.44791   0.91553   0.00000  Uiso   1.00
H882   H     0.63407   0.45888   0.99161   0.00000  Uiso   1.00
H883   H     0.47134   0.51548   0.59069   0.00000  Uiso   1.00
H884   H     0.38445   0.51661   0.91442   0.00000  Uiso   1.00
H885   H     0.41588   0.51281   0.55704   0.00000  Uiso   1.00
H886   H     0.35927   0.52381   0.50897   0.00000  Uiso   1.00
H887   H     0.54670   0.45391   0.87200   0.00000  Uiso   1.00
N888   N     0.38265   0.49999   0.74999   0.00000  Uiso   1.00
N889   N     0.61735   0.50002   0.75000   0.00000  Uiso   1.00
O890   O     0.46042   0.56011   0.75001   0.00000  Uiso   1.00
O891   O     0.53961   0.56012   0.75001   0.00000  Uiso   1.00
O892   O     0.44108   0.49998   0.82549   0.00000  Uiso   1.00
O893   O     0.52027   0.49999   0.82549   0.00000  Uiso   1.00
O894   O     0.46039   0.43988   0.75000   0.00000  Uiso   1.00
O895   O     0.53958   0.43989   0.75000   0.00000  Uiso   1.00
O896   O     0.47973   0.50001   0.67451   0.00000  Uiso   1.00
O897   O     0.55892   0.50002   0.67451   0.00000  Uiso   1.00
C898   C     0.57058   0.37382   0.79382   0.00000  Uiso   1.00
H899   H     0.55081   0.39531   0.82571   0.00000  Uiso   1.00
H900   H     0.59018   0.35111   0.81072   0.00000  Uiso   1.00
H901   H     0.59862   0.39017   0.76366   0.00000  Uiso   1.00
C902   C     0.60021   0.55353   0.82530   0.00000  Uiso   1.00
H903   H     0.59695   0.54189   0.86452   0.00000  Uiso   1.00
H904   H     0.61698   0.58436   0.82227   0.00000  Uiso   1.00
H905   H     0.56348   0.55865   0.82282   0.00000  Uiso   1.00
C906   C     0.64321   0.44586   0.67587   0.00000  Uiso   1.00
H907   H     0.60518   0.44311   0.67686   0.00000  Uiso   1.00
H908   H     0.66449   0.45544   0.63641   0.00000  Uiso   1.00
H909   H     0.65596   0.41450   0.68156   0.00000  Uiso   1.00
H910   H     0.55974   0.62708   0.78262   0.00000  Uiso   1.00
C911   C     0.83313   0.57916   0.75010   0.00000  Uiso   1.00
C912   C     0.81191   0.49534   0.98950   0.00000  Uiso   1.00
C913   C     0.82498   0.48630   0.93526   0.00000  Uiso   1.00
C914   C     0.84807   0.49091   0.51551   0.00000  Uiso   1.00
C915   C     0.89514   0.47489   0.98794   0.00000  Uiso   1.00
C916   C     0.90528   0.46197   0.93635   0.00000  Uiso   1.00
C917   C     0.87052   0.46675   0.91083   0.00000  Uiso   1.00
C918   C     0.83910   0.50205   0.56809   0.00000  Uiso   1.00
C919   C     0.92097   0.48112   0.56521   0.00000  Uiso   1.00
C920   C     0.79181   0.49656   0.90726   0.00000  Uiso   1.00
C921   C     0.86711   0.64432   0.76905   0.00000  Uiso   1.00
C922   C     0.80728   0.49802   0.84993   0.00000  Uiso   1.00
C923   C     0.86790   0.35366   0.77063   0.00000  Uiso   1.00
C924   C     0.83379   0.37590   0.75246   0.00000  Uiso   1.00
C925   C     0.79906   0.35471   0.73505   0.00000  Uiso   1.00
C926   C     0.79835   0.64552   0.73465   0.00000  Uiso   1.00
C927   C     0.83274   0.62364   0.75113   0.00000  Uiso   1.00
C928   C     0.96613   0.52472   0.78471   0.00000  Uiso   1.00
C929   C     0.68214   0.52402   0.78443   0.00000  Uiso   1.00
C930   C     0.70195   0.47572   0.71582   0.00000  Uiso   1.00
C931   C     0.98611   0.47511   0.71558   0.00000  Uiso   1.00
C932   C     0.83334   0.42072   0.75115   0.00000  Uiso   1.00
C933   C     0.85949   0.49973   0.65012   0.00000  Uiso   1.00
C934   C     0.93138   0.47091   0.51266   0.00000  Uiso   1.00
C935   C     0.87432   0.49557   0.59340   0.00000  Uiso   1.00
C936   C     0.74402   0.50933   0.93464   0.00000  Uiso   1.00
C937   C     0.72968   0.51411   0.98833   0.00000  Uiso   1.00
C938   C     0.76314   0.50803   0.51554   0.00000  Uiso   1.00
Cu939  Cu    0.78645   0.49999   0.75000   0.00000  Uiso   1.00
Cu940  Cu    0.88022   0.50001   0.75000   0.00000  Uiso   1.00
H941   H     0.94878   0.47631   0.58403   0.00000  Uiso   1.00
H942   H     0.77265   0.37103   0.72110   0.00000  Uiso   1.00
H943   H     0.77151   0.62977   0.72066   0.00000  Uiso   1.00
H944   H     0.69365   0.54317   0.81184   0.00000  Uiso   1.00
H945   H     0.72918   0.45629   0.68862   0.00000  Uiso   1.00
H946   H     0.94029   0.44791   0.91553   0.00000  Uiso   1.00
H947   H     0.96740   0.45888   0.99161   0.00000  Uiso   1.00
H948   H     0.80468   0.51548   0.59069   0.00000  Uiso   1.00
H949   H     0.71778   0.51661   0.91442   0.00000  Uiso   1.00
H950   H     0.74921   0.51281   0.55704   0.00000  Uiso   1.00
H951   H     0.69261   0.52381   0.50897   0.00000  Uiso   1.00
H952   H     0.88004   0.45391   0.87200   0.00000  Uiso   1.00
N953   N     0.71598   0.49999   0.74999   0.00000  Uiso   1.00
N954   N     0.95069   0.50002   0.75000   0.00000  Uiso   1.00
O955   O     0.79375   0.56011   0.75001   0.00000  Uiso   1.00
O956   O     0.87294   0.56012   0.75001   0.00000  Uiso   1.00
O957   O     0.77441   0.49998   0.82549   0.00000  Uiso   1.00
O958   O     0.85360   0.49999   0.82549   0.00000  Uiso   1.00
O959   O     0.79373   0.43988   0.75000   0.00000  Uiso   1.00
O960   O     0.87292   0.43989   0.75000   0.00000  Uiso   1.00
O961   O     0.81306   0.50001   0.67451   0.00000  Uiso   1.00
O962   O     0.89225   0.50002   0.67451   0.00000  Uiso   1.00
C963   C     0.90391   0.37382   0.79382   0.00000  Uiso   1.00
H964   H     0.88414   0.39531   0.82571   0.00000  Uiso   1.00
H965   H     0.92351   0.35111   0.81072   0.00000  Uiso   1.00
H966   H     0.93196   0.39017   0.76366   0.00000  Uiso   1.00
C967   C     0.93354   0.55353   0.82530   0.00000  Uiso   1.00
H968   H     0.93029   0.54189   0.86452   0.00000  Uiso   1.00
H969   H     0.95031   0.58436   0.82227   0.00000  Uiso   1.00
H970   H     0.89681   0.55865   0.82282   0.00000  Uiso   1.00
C971   C     0.97655   0.44586   0.67587   0.00000  Uiso   1.00
H972   H     0.93852   0.44311   0.67686   0.00000  Uiso   1.00
H973   H     0.99782   0.45544   0.63641   0.00000  Uiso   1.00
H974   H     0.98930   0.41450   0.68156   0.00000  Uiso   1.00
H975   H     0.89308   0.62708   0.78262   0.00000  Uiso   1.00
C976   C     0.16646   0.91249   0.75010   0.00000  Uiso   1.00
C977   C     0.14525   0.82867   0.98950   0.00000  Uiso   1.00
C978   C     0.15831   0.81963   0.93526   0.00000  Uiso   1.00
C979   C     0.18140   0.82425   0.51551   0.00000  Uiso   1.00
C980   C     0.22848   0.80822   0.98794   0.00000  Uiso   1.00
C981   C     0.23861   0.79531   0.93635   0.00000  Uiso   1.00
C982   C     0.20386   0.80008   0.91083   0.00000  Uiso   1.00
C983   C     0.17243   0.83538   0.56809   0.00000  Uiso   1.00
C984   C     0.25431   0.81445   0.56521   0.00000  Uiso   1.00
C985   C     0.12515   0.82989   0.90726   0.00000  Uiso   1.00
C986   C     0.20045   0.97765   0.76905   0.00000  Uiso   1.00
C987   C     0.14062   0.83135   0.84993   0.00000  Uiso   1.00
C988   C     0.20123   0.68699   0.77063   0.00000  Uiso   1.00
C989   C     0.16713   0.70923   0.75246   0.00000  Uiso   1.00
C990   C     0.13239   0.68805   0.73505   0.00000  Uiso   1.00
C991   C     0.13168   0.97885   0.73465   0.00000  Uiso   1.00
C992   C     0.16607   0.95698   0.75113   0.00000  Uiso   1.00
C993   C     0.29947   0.85805   0.78471   0.00000  Uiso   1.00
C994   C     0.01547   0.85736   0.78443   0.00000  Uiso   1.00
C995   C     0.03529   0.80906   0.71582   0.00000  Uiso   1.00
C996   C     0.31944   0.80845   0.71558   0.00000  Uiso   1.00
C997   C     0.16667   0.75405   0.75115   0.00000  Uiso   1.00
C998   C     0.19282   0.83307   0.65012   0.00000  Uiso   1.00
C999   C     0.26471   0.80424   0.51266   0.00000  Uiso   1.00
C1000  C     0.20765   0.82890   0.59340   0.00000  Uiso   1.00
C1001  C     0.07736   0.84266   0.93464   0.00000  Uiso   1.00
C1002  C     0.06301   0.84744   0.98833   0.00000  Uiso   1.00
C1003  C     0.09648   0.84137   0.51554   0.00000  Uiso   1.00
Cu1004 Cu    0.11978   0.83333   0.75000   0.00000  Uiso   1.00
Cu1005 Cu    0.21355   0.83334   0.75000   0.00000  Uiso   1.00
H1006  H     0.28212   0.80964   0.58403   0.00000  Uiso   1.00
H1007  H     0.10598   0.70436   0.72110   0.00000  Uiso   1.00
H1008  H     0.10484   0.96310   0.72066   0.00000  Uiso   1.00
H1009  H     0.02698   0.87650   0.81184   0.00000  Uiso   1.00
H1010  H     0.06251   0.78963   0.68862   0.00000  Uiso   1.00
H1011  H     0.27362   0.78124   0.91553   0.00000  Uiso   1.00
H1012  H     0.30074   0.79221   0.99161   0.00000  Uiso   1.00
H1013  H     0.13801   0.84881   0.59069   0.00000  Uiso   1.00
H1014  H     0.05111   0.84994   0.91442   0.00000  Uiso   1.00
H1015  H     0.08255   0.84614   0.55704   0.00000  Uiso   1.00
H1016  H     0.02594   0.85714   0.50897   0.00000  Uiso   1.00
H1017  H     0.21337   0.78725   0.87200   0.00000  Uiso   1.00
N1018  N     0.04931   0.83332   0.74999   0.00000  Uiso   1.00
N1019  N     0.28402   0.83335   0.75000   0.00000  Uiso   1.00
O1020  O     0.12708   0.89345   0.75001   0.00000  Uiso   1.00
O1021  O     0.20627   0.89346   0.75001   0.00000  Uiso   1.00
O1022  O     0.10775   0.83332   0.82549   0.00000  Uiso   1.00
O1023  O     0.18694   0.83333   0.82549   0.00000  Uiso   1.00
O1024  O     0.12706   0.77321   0.75000   0.00000  Uiso   1.00
O1025  O     0.20625   0.77322   0.75000   0.00000  Uiso   1.00
O1026  O     0.14640   0.83334   0.67451   0.00000  Uiso   1.00
O1027  O     0.22559   0.83335   0.67451   0.00000  Uiso   1.00
C1028  C     0.23725   0.70715   0.79382   0.00000  Uiso   1.00
H1029  H     0.21748   0.72865   0.82571   0.00000  Uiso   1.00
H1030  H     0.25684   0.68444   0.81072   0.00000  Uiso   1.00
H1031  H     0.26529   0.72351   0.76366   0.00000  Uiso   1.00
C1032  C     0.26688   0.88686   0.82530   0.00000  Uiso   1.00
H1033  H     0.26362   0.87522   0.86452   0.00000  Uiso   1.00
H1034  H     0.28365   0.91769   0.82227   0.00000  Uiso   1.00
H1035  H     0.23015   0.89198   0.82282   0.00000  Uiso   1.00
C1036  C     0.30988   0.77919   0.67587   0.00000  Uiso   1.00
H1037  H     0.27185   0.77644   0.67686   0.00000  Uiso   1.00
H1038  H     0.33115   0.78878   0.63641   0.00000  Uiso   1.00
H1039  H     0.32263   0.74784   0.68156   0.00000  Uiso   1.00
H1040  H     0.22641   0.96041   0.78262   0.00000  Uiso   1.00
C1041  C     0.49980   0.91249   0.75010   0.00000  Uiso   1.00
C1042  C     0.47858   0.82867   0.98950   0.00000  Uiso   1.00
C1043  C     0.49165   0.81963   0.93526   0.00000  Uiso   1.00
C1044  C     0.51474   0.82425   0.51551   0.00000  Uiso   1.00
C1045  C     0.56181   0.80822   0.98794   0.00000  Uiso   1.00
C1046  C     0.57194   0.79531   0.93635   0.00000  Uiso   1.00
C1047  C     0.53719   0.80008   0.91083   0.00000  Uiso   1.00
C1048  C     0.50576   0.83538   0.56809   0.00000  Uiso   1.00
C1049  C     0.58764   0.81445   0.56521   0.00000  Uiso   1.00
C1050  C     0.45848   0.82989   0.90726   0.00000  Uiso   1.00
C1051  C     0.53378   0.97765   0.76905   0.00000  Uiso   1.00
C1052  C     0.47395   0.83135   0.84993   0.00000  Uiso   1.00
C1053  C     0.53456   0.68699   0.77063   0.00000  Uiso   1.00
C1054  C     0.50046   0.70923   0.75246   0.00000  Uiso   1.00
C1055  C     0.46572   0.68805   0.73505   0.00000  Uiso   1.00
C1056  C     0.46502   0.97885   0.73465   0.00000  Uiso   1.00
C1057  C     0.49941   0.95698   0.75113   0.00000  Uiso   1.00
C1058  C     0.63280   0.85805   0.78471   0.00000  Uiso   1.00
C1059  C     0.34881   0.85736   0.78443   0.00000  Uiso   1.00
C1060  C     0.36862   0.80906   0.71582   0.00000  Uiso   1.00
C1061  C     0.65277   0.80845   0.71558   0.00000  Uiso   1.00
C1062  C     0.50001   0.75405   0.75115   0.00000  Uiso   1.00
C1063  C     0.52616   0.83307   0.65012   0.00000  Uiso   1.00
C1064  C     0.59804   0.80424   0.51266   0.00000  Uiso   1.00
C1065  C     0.54099   0.82890   0.59340   0.00000  Uiso   1.00
C1066  C     0.41069   0.84266   0.93464   0.00000  Uiso   1.00
C1067  C     0.39635   0.84744   0.98833   0.00000  Uiso   1.00
C1068  C     0.42981   0.84137   0.51554   0.00000  Uiso   1.00
Cu1069 Cu    0.45311   0.83333   0.75000   0.00000  Uiso   1.00
Cu1070 Cu    0.54689   0.83334   0.75000   0.00000  Uiso   1.00
H1071  H     0.61545   0.80964   0.58403   0.00000  Uiso   1.00
H1072  H     0.43931   0.70436   0.72110   0.00000  Uiso   1.00
H1073  H     0.43817   0.96310   0.72066   0.00000  Uiso   1.00
H1074  H     0.36031   0.87650   0.81184   0.00000  Uiso   1.00
H1075  H     0.39585   0.78963   0.68862   0.00000  Uiso   1.00
H1076  H     0.60695   0.78124   0.91553   0.00000  Uiso   1.00
H1077  H     0.63407   0.79221   0.99161   0.00000  Uiso   1.00
H1078  H     0.47134   0.84881   0.59069   0.00000  Uiso   1.00
H1079  H     0.38445   0.84994   0.91442   0.00000  Uiso   1.00
H1080  H     0.41588   0.84614   0.55704   0.00000  Uiso   1.00
H1081  H     0.35927   0.85714   0.50897   0.00000  Uiso   1.00
H1082  H     0.54670   0.78725   0.87200   0.00000  Uiso   1.00
N1083  N     0.38265   0.83332   0.74999   0.00000  Uiso   1.00
N1084  N     0.61735   0.83335   0.75000   0.00000  Uiso   1.00
O1085  O     0.46042   0.89345   0.75001   0.00000  Uiso   1.00
O1086  O     0.53961   0.89346   0.75001   0.00000  Uiso   1.00
O1087  O     0.44108   0.83332   0.82549   0.00000  Uiso   1.00
O1088  O     0.52027   0.83333   0.82549   0.00000  Uiso   1.00
O1089  O     0.46039   0.77321   0.75000   0.00000  Uiso   1.00
O1090  O     0.53958   0.77322   0.75000   0.00000  Uiso   1.00
O1091  O     0.47973   0.83334   0.67451   0.00000  Uiso   1.00
O1092  O     0.55892   0.83335   0.67451   0.00000  Uiso   1.00
C1093  C     0.57058   0.70715   0.79382   0.00000  Uiso   1.00
H1094  H     0.55081   0.72865   0.82571   0.00000  Uiso   1.00
H1095  H     0.59018   0.68444   0.81072   0.00000  Uiso   1.00
H1096  H     0.59862   0.72351   0.76366   0.00000  Uiso   1.00
C1097  C     0.60021   0.88686   0.82530   0.00000  Uiso   1.00
H1098  H     0.59695   0.87522   0.86452   0.00000  Uiso   1.00
H1099  H     0.61698   0.91769   0.82227   0.00000  Uiso   1.00
H1100  H     0.56348   0.89198   0.82282   0.00000  Uiso   1.00
C1101  C     0.64321   0.77919   0.67587   0.00000  Uiso   1.00
H1102  H     0.60518   0.77644   0.67686   0.00000  Uiso   1.00
H1103  H     0.66449   0.78878   0.63641   0.00000  Uiso   1.00
H1104  H     0.65596   0.74784   0.68156   0.00000  Uiso   1.00
H1105  H     0.55974   0.96041   0.78262   0.00000  Uiso   1.00
C1106  C     0.83313   0.91249   0.75010   0.00000  Uiso   1.00
C1107  C     0.81191   0.82867   0.98950   0.00000  Uiso   1.00
C1108  C     0.82498   0.81963   0.93526   0.00000  Uiso   1.00
C1109  C     0.84807   0.82425   0.51551   0.00000  Uiso   1.00
C1110  C     0.89514   0.80822   0.98794   0.00000  Uiso   1.00
C1111  C     0.90528   0.79531   0.93635   0.00000  Uiso   1.00
C1112  C     0.87052   0.80008   0.91083   0.00000  Uiso   1.00
C1113  C     0.83910   0.83538   0.56809   0.00000  Uiso   1.00
C1114  C     0.92097   0.81445   0.56521   0.00000  Uiso   1.00
C1115  C     0.79181   0.82989   0.90726   0.00000  Uiso   1.00
C1116  C     0.86711   0.97765   0.76905   0.00000  Uiso   1.00
C1117  C     0.80728   0.83135   0.84993   0.00000  Uiso   1.00
C1118  C     0.86790   0.68699   0.77063   0.00000  Uiso   1.00
C1119  C     0.83379   0.70923   0.75246   0.00000  Uiso   1.00
C1120  C     0.79906   0.68805   0.73505   0.00000  Uiso   1.00
C1121  C     0.79835   0.97885   0.73465   0.00000  Uiso   1.00
C1122  C     0.83274   0.95698   0.75113   0.00000  Uiso   1.00
C1123  C     0.96613   0.85805   0.78471   0.00000  Uiso   1.00
C1124  C     0.68214   0.85736   0.78443   0.00000  Uiso   1.00
C1125  C     0.70195   0.80906   0.71582   0.00000  Uiso   1.00
C1126  C     0.98611   0.80845   0.71558   0.00000  Uiso   1.00
C1127  C     0.83334   0.75405   0.75115   0.00000  Uiso   1.00
C1128  C     0.85949   0.83307   0.65012   0.00000  Uiso   1.00
C1129  C     0.93138   0.80424   0.51266   0.00000  Uiso   1.00
C1130  C     0.87432   0.82890   0.59340   0.00000  Uiso   1.00
C1131  C     0.74402   0.84266   0.93464   0.00000  Uiso   1.00
C1132  C     0.72968   0.84744   0.98833   0.00000  Uiso   1.00
C1133  C     0.76314   0.84137   0.51554   0.00000  Uiso   1.00
Cu1134 Cu    0.78645   0.83333   0.75000   0.00000  Uiso   1.00
Cu1135 Cu    0.88022   0.83334   0.75000   0.00000  Uiso   1.00
H1136  H     0.94878   0.80964   0.58403   0.00000  Uiso   1.00
H1137  H     0.77265   0.70436   0.72110   0.00000  Uiso   1.00
H1138  H     0.77151   0.96310   0.72066   0.00000  Uiso   1.00
H1139  H     0.69365   0.87650   0.81184   0.00000  Uiso   1.00
H1140  H     0.72918   0.78963   0.68862   0.00000  Uiso   1.00
H1141  H     0.94029   0.78124   0.91553   0.00000  Uiso   1.00
H1142  H     0.96740   0.79221   0.99161   0.00000  Uiso   1.00
H1143  H     0.80468   0.84881   0.59069   0.00000  Uiso   1.00
H1144  H     0.71778   0.84994   0.91442   0.00000  Uiso   1.00
H1145  H     0.74921   0.84614   0.55704   0.00000  Uiso   1.00
H1146  H     0.69261   0.85714   0.50897   0.00000  Uiso   1.00
H1147  H     0.88004   0.78725   0.87200   0.00000  Uiso   1.00
N1148  N     0.71598   0.83332   0.74999   0.00000  Uiso   1.00
N1149  N     0.95069   0.83335   0.75000   0.00000  Uiso   1.00
O1150  O     0.79375   0.89345   0.75001   0.00000  Uiso   1.00
O1151  O     0.87294   0.89346   0.75001   0.00000  Uiso   1.00
O1152  O     0.77441   0.83332   0.82549   0.00000  Uiso   1.00
O1153  O     0.85360   0.83333   0.82549   0.00000  Uiso   1.00
O1154  O     0.79373   0.77321   0.75000   0.00000  Uiso   1.00
O1155  O     0.87292   0.77322   0.75000   0.00000  Uiso   1.00
O1156  O     0.81306   0.83334   0.67451   0.00000  Uiso   1.00
O1157  O     0.89225   0.83335   0.67451   0.00000  Uiso   1.00
C1158  C     0.90391   0.70715   0.79382   0.00000  Uiso   1.00
H1159  H     0.88414   0.72865   0.82571   0.00000  Uiso   1.00
H1160  H     0.92351   0.68444   0.81072   0.00000  Uiso   1.00
H1161  H     0.93196   0.72351   0.76366   0.00000  Uiso   1.00
C1162  C     0.93354   0.88686   0.82530   0.00000  Uiso   1.00
H1163  H     0.93029   0.87522   0.86452   0.00000  Uiso   1.00
H1164  H     0.95031   0.91769   0.82227   0.00000  Uiso   1.00
H1165  H     0.89681   0.89198   0.82282   0.00000  Uiso   1.00
C1166  C     0.97655   0.77919   0.67587   0.00000  Uiso   1.00
H1167  H     0.93852   0.77644   0.67686   0.00000  Uiso   1.00
H1168  H     0.99782   0.78878   0.63641   0.00000  Uiso   1.00
H1169  H     0.98930   0.74784   0.68156   0.00000  Uiso   1.00
H1170  H     0.89308   0.96041   0.78262   0.00000  Uiso   1.00
loop_
_geom_bond_atom_site_label_1
_geom_bond_atom_site_label_2
_geom_bond_distance
_geom_bond_site_symmetry_2
_ccdc_geom_bond_type
C1     O45     1.296   .     A
C1     O46     1.295   .     A
C1     C17     1.447   .     S
C2     C3      1.420   .     A
C2     C589    1.426   .     S
C2     C613    1.418   .     S
C3     C10     1.425   .     A
C3     C7      1.413   .     A
C4     C8      1.402   .     A
C4     C587    1.426   1_554 S
C4     C590    1.420   1_554 S
C5     C6      1.388   .     A
C5     C589    1.420   .     S
C5     C609    1.402   .     S
C6     C7      1.383   .     A
C6     H36     1.084   .     S
C7     H42     1.073   .     S
C8     C25     1.398   .     A
C8     H38     1.076   .     S
C9     C24     1.390   .     A
C9     C25     1.398   .     A
C9     H31     1.080   .     S
C10    C12     1.478   .     S
C10    C26     1.403   .     A
C11    C17     1.395   .     A
C11    H65     1.083   .     S
C11    C208    1.389   .     S
C12    O48     1.298   .     A
C12    O47     1.307   .     A
C13    C53     1.509   .     S
C13    C14     1.421   .     A
C13    C401    1.389   1_545 S
C14    C22     1.460   .     S
C14    C15     1.404   .     A
C15    H32     1.084   .     S
C15    C406    1.384   1_545 S
C16    H33     1.083   .     S
C16    C17     1.396   .     A
C16    C210    1.384   .     S
C18    N44     1.394   .     A
C18    C57     1.508   .     S
C18    C84     1.415   .     S
C19    N43     1.352   .     A
C19    H34     1.083   .     S
C19    C148    1.415   1_455 S
C20    N43     1.354   .     A
C20    H35     1.083   .     S
C20    C151    1.415   1_455 S
C21    N44     1.391   .     A
C21    C61     1.505   .     S
C21    C85     1.415   .     S
C22    O50     1.294   .     A
C22    O49     1.302   .     A
C23    O52     1.301   .     A
C23    C25     1.463   .     S
C23    O51     1.297   .     A
C24    C590    1.402   1_554 S
C24    H622    1.084   1_554 S
C26    C27     1.386   .     A
C26    H39     1.083   .     S
C27    C613    1.390   .     S
C27    H626    1.083   .     S
C28    H40     1.077   .     S
C28    C612    1.390   1_554 S
C28    C587    1.418   1_554 S
Cu29   O49     1.966   .     S
Cu29   N43     2.025   .     S
Cu29   Cu30    2.694   .     S
Cu29   O47     1.961   .     S
Cu29   O51     1.949   .     S
Cu29   O45     1.970   .     S
Cu30   N44     2.025   .     S
Cu30   O48     1.949   .     S
Cu30   O52     1.961   .     S
Cu30   O50     1.970   .     S
Cu30   O46     1.966   .     S
H37    C609    1.084   .     S
H41    C612    1.083   1_554 S
C53    H54     1.106   .     S
C53    H55     1.111   .     S
C53    H56     1.108   .     S
C57    H58     1.110   .     S
C57    H59     1.111   .     S
C57    H60     1.089   .     S
C61    H64     1.111   .     S
C61    H62     1.090   .     S
C61    H63     1.110   .     S
C66    O110    1.296   .     A
C66    O111    1.295   .     A
C66    C82     1.447   .     S
C67    C68     1.420   .     A
C67    C654    1.426   .     S
C67    C678    1.418   .     S
C68    C75     1.425   .     A
C68    C72     1.413   .     A
C69    C73     1.402   .     A
C69    C652    1.426   1_554 S
C69    C655    1.420   1_554 S
C70    C71     1.388   .     A
C70    C654    1.420   .     S
C70    C674    1.402   .     S
C71    C72     1.383   .     A
C71    H101    1.084   .     S
C72    H107    1.073   .     S
C73    C90     1.398   .     A
C73    H103    1.076   .     S
C74    C89     1.390   .     A
C74    C90     1.398   .     A
C74    H96     1.080   .     S
C75    C77     1.478   .     S
C75    C91     1.403   .     A
C76    C82     1.395   .     A
C76    H130    1.083   .     S
C76    C273    1.389   .     S
C77    O113    1.298   .     A
C77    O112    1.307   .     A
C78    C118    1.509   .     S
C78    C79     1.421   .     A
C78    C466    1.389   1_545 S
C79    C87     1.460   .     S
C79    C80     1.404   .     A
C80    H97     1.084   .     S
C80    C471    1.384   1_545 S
C81    H98     1.083   .     S
C81    C82     1.396   .     A
C81    C275    1.384   .     S
C83    N109    1.394   .     A
C83    C122    1.508   .     S
C83    C149    1.415   .     S
C84    N108    1.352   .     A
C84    H99     1.083   .     S
C85    N108    1.354   .     A
C85    H100    1.083   .     S
C86    N109    1.391   .     A
C86    C126    1.505   .     S
C86    C150    1.415   .     S
C87    O115    1.294   .     A
C87    O114    1.302   .     A
C88    O117    1.301   .     A
C88    C90     1.463   .     S
C88    O116    1.297   .     A
C89    C655    1.402   1_554 S
C89    H687    1.084   1_554 S
C91    C92     1.386   .     A
C91    H104    1.083   .     S
C92    C678    1.390   .     S
C92    H691    1.083   .     S
C93    H105    1.077   .     S
C93    C677    1.390   1_554 S
C93    C652    1.418   1_554 S
Cu94   O114    1.966   .     S
Cu94   N108    2.025   .     S
Cu94   Cu95    2.694   .     S
Cu94   O112    1.961   .     S
Cu94   O116    1.949   .     S
Cu94   O110    1.970   .     S
Cu95   N109    2.025   .     S
Cu95   O113    1.949   .     S
Cu95   O117    1.961   .     S
Cu95   O115    1.970   .     S
Cu95   O111    1.966   .     S
H102   C674    1.084   .     S
H106   C677    1.083   1_554 S
C118   H119    1.106   .     S
C118   H120    1.111   .     S
C118   H121    1.108   .     S
C122   H123    1.110   .     S
C122   H124    1.111   .     S
C122   H125    1.089   .     S
C126   H129    1.111   .     S
C126   H127    1.090   .     S
C126   H128    1.110   .     S
C131   O175    1.296   .     A
C131   O176    1.295   .     A
C131   C147    1.447   .     S
C132   C133    1.420   .     A
C132   C719    1.426   .     S
C132   C743    1.418   .     S
C133   C140    1.425   .     A
C133   C137    1.413   .     A
C134   C138    1.402   .     A
C134   C717    1.426   1_554 S
C134   C720    1.420   1_554 S
C135   C136    1.388   .     A
C135   C719    1.420   .     S
C135   C739    1.402   .     S
C136   C137    1.383   .     A
C136   H166    1.084   .     S
C137   H172    1.073   .     S
C138   C155    1.398   .     A
C138   H168    1.076   .     S
C139   C154    1.390   .     A
C139   C155    1.398   .     A
C139   H161    1.080   .     S
C140   C142    1.478   .     S
C140   C156    1.403   .     A
C141   C147    1.395   .     A
C141   H195    1.083   .     S
C141   C338    1.389   .     S
C142   O178    1.298   .     A
C142   O177    1.307   .     A
C143   C183    1.509   .     S
C143   C144    1.421   .     A
C143   C531    1.389   1_545 S
C144   C152    1.460   .     S
C144   C145    1.404   .     A
C145   H162    1.084   .     S
C145   C536    1.384   1_545 S
C146   H163    1.083   .     S
C146   C147    1.396   .     A
C146   C340    1.384   .     S
C148   N174    1.394   .     A
C148   C187    1.508   .     S
C148   C19     1.415   1_655 S
C149   N173    1.352   .     A
C149   H164    1.083   .     S
C150   N173    1.354   .     A
C150   H165    1.083   .     S
C151   N174    1.391   .     A
C151   C191    1.505   .     S
C151   C20     1.415   1_655 S
C152   O180    1.294   .     A
C152   O179    1.302   .     A
C153   O182    1.301   .     A
C153   C155    1.463   .     S
C153   O181    1.297   .     A
C154   C720    1.402   1_554 S
C154   H752    1.084   1_554 S
C156   C157    1.386   .     A
C156   H169    1.083   .     S
C157   C743    1.390   .     S
C157   H756    1.083   .     S
C158   H170    1.077   .     S
C158   C742    1.390   1_554 S
C158   C717    1.418   1_554 S
Cu159  O179    1.966   .     S
Cu159  N173    2.025   .     S
Cu159  Cu160   2.694   .     S
Cu159  O177    1.961   .     S
Cu159  O181    1.949   .     S
Cu159  O175    1.970   .     S
Cu160  N174    2.025   .     S
Cu160  O178    1.949   .     S
Cu160  O182    1.961   .     S
Cu160  O180    1.970   .     S
Cu160  O176    1.966   .     S
H167   C739    1.084   .     S
H171   C742    1.083   1_554 S
C183   H184    1.106   .     S
C183   H185    1.111   .     S
C183   H186    1.108   .     S
C187   H188    1.110   .     S
C187   H189    1.111   .     S
C187   H190    1.089   .     S
C191   H194    1.111   .     S
C191   H192    1.090   .     S
C191   H193    1.110   .     S
C196   O240    1.296   .     A
C196   O241    1.295   .     A
C196   C212    1.447   .     S
C197   C198    1.420   .     A
C197   C784    1.426   .     S
C197   C808    1.418   .     S
C198   C205    1.425   .     A
C198   C202    1.413   .     A
C199   C203    1.402   .     A
C199   C782    1.426   1_554 S
C199   C785    1.420   1_554 S
C200   C201    1.388   .     A
C200   C784    1.420   .     S
C200   C804    1.402   .     S
C201   C202    1.383   .     A
C201   H231    1.084   .     S
C202   H237    1.073   .     S
C203   C220    1.398   .     A
C203   H233    1.076   .     S
C204   C219    1.390   .     A
C204   C220    1.398   .     A
C204   H226    1.080   .     S
C205   C207    1.478   .     S
C205   C221    1.403   .     A
C206   C212    1.395   .     A
C206   H260    1.083   .     S
C206   C403    1.389   .     S
C207   O243    1.298   .     A
C207   O242    1.307   .     A
C208   C248    1.509   .     S
C208   C209    1.421   .     A
C209   C217    1.460   .     S
C209   C210    1.404   .     A
C210   H227    1.084   .     S
C211   H228    1.083   .     S
C211   C212    1.396   .     A
C211   C405    1.384   .     S
C213   N239    1.394   .     A
C213   C252    1.508   .     S
C213   C279    1.415   .     S
C214   N238    1.352   .     A
C214   H229    1.083   .     S
C214   C343    1.415   1_455 S
C215   N238    1.354   .     A
C215   H230    1.083   .     S
C215   C346    1.415   1_455 S
C216   N239    1.391   .     A
C216   C256    1.505   .     S
C216   C280    1.415   .     S
C217   O245    1.294   .     A
C217   O244    1.302   .     A
C218   O247    1.301   .     A
C218   C220    1.463   .     S
C218   O246    1.297   .     A
C219   C785    1.402   1_554 S
C219   H817    1.084   1_554 S
C221   C222    1.386   .     A
C221   H234    1.083   .     S
C222   C808    1.390   .     S
C222   H821    1.083   .     S
C223   H235    1.077   .     S
C223   C807    1.390   1_554 S
C223   C782    1.418   1_554 S
Cu224  O244    1.966   .     S
Cu224  N238    2.025   .     S
Cu224  Cu225   2.694   .     S
Cu224  O242    1.961   .     S
Cu224  O246    1.949   .     S
Cu224  O240    1.970   .     S
Cu225  N239    2.025   .     S
Cu225  O243    1.949   .     S
Cu225  O247    1.961   .     S
Cu225  O245    1.970   .     S
Cu225  O241    1.966   .     S
H232   C804    1.084   .     S
H236   C807    1.083   1_554 S
C248   H249    1.106   .     S
C248   H250    1.111   .     S
C248   H251    1.108   .     S
C252   H253    1.110   .     S
C252   H254    1.111   .     S
C252   H255    1.089   .     S
C256   H259    1.111   .     S
C256   H257    1.090   .     S
C256   H258    1.110   .     S
C261   O305    1.296   .     A
C261   O306    1.295   .     A
C261   C277    1.447   .     S
C262   C263    1.420   .     A
C262   C849    1.426   .     S
C262   C873    1.418   .     S
C263   C270    1.425   .     A
C263   C267    1.413   .     A
C264   C268    1.402   .     A
C264   C847    1.426   1_554 S
C264   C850    1.420   1_554 S
C265   C266    1.388   .     A
C265   C849    1.420   .     S
C265   C869    1.402   .     S
C266   C267    1.383   .     A
C266   H296    1.084   .     S
C267   H302    1.073   .     S
C268   C285    1.398   .     A
C268   H298    1.076   .     S
C269   C284    1.390   .     A
C269   C285    1.398   .     A
C269   H291    1.080   .     S
C270   C272    1.478   .     S
C270   C286    1.403   .     A
C271   C277    1.395   .     A
C271   H325    1.083   .     S
C271   C468    1.389   .     S
C272   O308    1.298   .     A
C272   O307    1.307   .     A
C273   C313    1.509   .     S
C273   C274    1.421   .     A
C274   C282    1.460   .     S
C274   C275    1.404   .     A
C275   H292    1.084   .     S
C276   H293    1.083   .     S
C276   C277    1.396   .     A
C276   C470    1.384   .     S
C278   N304    1.394   .     A
C278   C317    1.508   .     S
C278   C344    1.415   .     S
C279   N303    1.352   .     A
C279   H294    1.083   .     S
C280   N303    1.354   .     A
C280   H295    1.083   .     S
C281   N304    1.391   .     A
C281   C321    1.505   .     S
C281   C345    1.415   .     S
C282   O310    1.294   .     A
C282   O309    1.302   .     A
C283   O312    1.301   .     A
C283   C285    1.463   .     S
C283   O311    1.297   .     A
C284   C850    1.402   1_554 S
C284   H882    1.084   1_554 S
C286   C287    1.386   .     A
C286   H299    1.083   .     S
C287   C873    1.390   .     S
C287   H886    1.083   .     S
C288   H300    1.077   .     S
C288   C872    1.390   1_554 S
C288   C847    1.418   1_554 S
Cu289  O309    1.966   .     S
Cu289  N303    2.025   .     S
Cu289  Cu290   2.694   .     S
Cu289  O307    1.961   .     S
Cu289  O311    1.949   .     S
Cu289  O305    1.970   .     S
Cu290  N304    2.025   .     S
Cu290  O308    1.949   .     S
Cu290  O312    1.961   .     S
Cu290  O310    1.970   .     S
Cu290  O306    1.966   .     S
H297   C869    1.084   .     S
H301   C872    1.083   1_554 S
C313   H314    1.106   .     S
C313   H315    1.111   .     S
C313   H316    1.108   .     S
C317   H318    1.110   .     S
C317   H319    1.111   .     S
C317   H320    1.089   .     S
C321   H324    1.111   .     S
C321   H322    1.090   .     S
C321   H323    1.110   .     S
C326   O370    1.296   .     A
C326   O371    1.295   .     A
C326   C342    1.447   .     S
C327   C328    1.420   .     A
C327   C914    1.426   .     S
C327   C938    1.418   .     S
C328   C335    1.425   .     A
C328   C332    1.413   .     A
C329   C333    1.402   .     A
C329   C912    1.426   1_554 S
C329   C915    1.420   1_554 S
C330   C331    1.388   .     A
C330   C914    1.420   .     S
C330   C934    1.402   .     S
C331   C332    1.383   .     A
C331   H361    1.084   .     S
C332   H367    1.073   .     S
C333   C350    1.398   .     A
C333   H363    1.076   .     S
C334   C349    1.390   .     A
C334   C350    1.398   .     A
C334   H356    1.080   .     S
C335   C337    1.478   .     S
C335   C351    1.403   .     A
C336   C342    1.395   .     A
C336   H390    1.083   .     S
C336   C533    1.389   .     S
C337   O373    1.298   .     A
C337   O372    1.307   .     A
C338   C378    1.509   .     S
C338   C339    1.421   .     A
C339   C347    1.460   .     S
C339   C340    1.404   .     A
C340   H357    1.084   .     S
C341   H358    1.083   .     S
C341   C342    1.396   .     A
C341   C535    1.384   .     S
C343   N369    1.394   .     A
C343   C382    1.508   .     S
C343   C214    1.415   1_655 S
C344   N368    1.352   .     A
C344   H359    1.083   .     S
C345   N368    1.354   .     A
C345   H360    1.083   .     S
C346   N369    1.391   .     A
C346   C386    1.505   .     S
C346   C215    1.415   1_655 S
C347   O375    1.294   .     A
C347   O374    1.302   .     A
C348   O377    1.301   .     A
C348   C350    1.463   .     S
C348   O376    1.297   .     A
C349   C915    1.402   1_554 S
C349   H947    1.084   1_554 S
C351   C352    1.386   .     A
C351   H364    1.083   .     S
C352   C938    1.390   .     S
C352   H951    1.083   .     S
C353   H365    1.077   .     S
C353   C937    1.390   1_554 S
C353   C912    1.418   1_554 S
Cu354  O374    1.966   .     S
Cu354  N368    2.025   .     S
Cu354  Cu355   2.694   .     S
Cu354  O372    1.961   .     S
Cu354  O376    1.949   .     S
Cu354  O370    1.970   .     S
Cu355  N369    2.025   .     S
Cu355  O373    1.949   .     S
Cu355  O377    1.961   .     S
Cu355  O375    1.970   .     S
Cu355  O371    1.966   .     S
H362   C934    1.084   .     S
H366   C937    1.083   1_554 S
C378   H379    1.106   .     S
C378   H380    1.111   .     S
C378   H381    1.108   .     S
C382   H383    1.110   .     S
C382   H384    1.111   .     S
C382   H385    1.089   .     S
C386   H389    1.111   .     S
C386   H387    1.090   .     S
C386   H388    1.110   .     S
C391   O435    1.296   .     A
C391   O436    1.295   .     A
C391   C407    1.447   .     S
C392   C393    1.420   .     A
C392   C979    1.426   .     S
C392   C1003   1.418   .     S
C393   C400    1.425   .     A
C393   C397    1.413   .     A
C394   C398    1.402   .     A
C394   C977    1.426   1_554 S
C394   C980    1.420   1_554 S
C395   C396    1.388   .     A
C395   C979    1.420   .     S
C395   C999    1.402   .     S
C396   C397    1.383   .     A
C396   H426    1.084   .     S
C397   H432    1.073   .     S
C398   C415    1.398   .     A
C398   H428    1.076   .     S
C399   C414    1.390   .     A
C399   C415    1.398   .     A
C399   H421    1.080   .     S
C400   C402    1.478   .     S
C400   C416    1.403   .     A
C401   C407    1.395   .     A
C401   H455    1.083   .     S
C401   C13     1.389   1_565 S
C402   O438    1.298   .     A
C402   O437    1.307   .     A
C403   C443    1.509   .     S
C403   C404    1.421   .     A
C404   C412    1.460   .     S
C404   C405    1.404   .     A
C405   H422    1.084   .     S
C406   H423    1.083   .     S
C406   C407    1.396   .     A
C406   C15     1.384   1_565 S
C408   N434    1.394   .     A
C408   C447    1.508   .     S
C408   C474    1.415   .     S
C409   N433    1.352   .     A
C409   H424    1.083   .     S
C409   C538    1.415   1_455 S
C410   N433    1.354   .     A
C410   H425    1.083   .     S
C410   C541    1.415   1_455 S
C411   N434    1.391   .     A
C411   C451    1.505   .     S
C411   C475    1.415   .     S
C412   O440    1.294   .     A
C412   O439    1.302   .     A
C413   O442    1.301   .     A
C413   C415    1.463   .     S
C413   O441    1.297   .     A
C414   C980    1.402   1_554 S
C414   H1012   1.084   1_554 S
C416   C417    1.386   .     A
C416   H429    1.083   .     S
C417   C1003   1.390   .     S
C417   H1016   1.083   .     S
C418   H430    1.077   .     S
C418   C1002   1.390   1_554 S
C418   C977    1.418   1_554 S
Cu419  O439    1.966   .     S
Cu419  N433    2.025   .     S
Cu419  Cu420   2.694   .     S
Cu419  O437    1.961   .     S
Cu419  O441    1.949   .     S
Cu419  O435    1.970   .     S
Cu420  N434    2.025   .     S
Cu420  O438    1.949   .     S
Cu420  O442    1.961   .     S
Cu420  O440    1.970   .     S
Cu420  O436    1.966   .     S
H427   C999    1.084   .     S
H431   C1002   1.083   1_554 S
C443   H444    1.106   .     S
C443   H445    1.111   .     S
C443   H446    1.108   .     S
C447   H448    1.110   .     S
C447   H449    1.111   .     S
C447   H450    1.089   .     S
C451   H454    1.111   .     S
C451   H452    1.090   .     S
C451   H453    1.110   .     S
C456   O500    1.296   .     A
C456   O501    1.295   .     A
C456   C472    1.447   .     S
C457   C458    1.420   .     A
C457   C1044   1.426   .     S
C457   C1068   1.418   .     S
C458   C465    1.425   .     A
C458   C462    1.413   .     A
C459   C463    1.402   .     A
C459   C1042   1.426   1_554 S
C459   C1045   1.420   1_554 S
C460   C461    1.388   .     A
C460   C1044   1.420   .     S
C460   C1064   1.402   .     S
C461   C462    1.383   .     A
C461   H491    1.084   .     S
C462   H497    1.073   .     S
C463   C480    1.398   .     A
C463   H493    1.076   .     S
C464   C479    1.390   .     A
C464   C480    1.398   .     A
C464   H486    1.080   .     S
C465   C467    1.478   .     S
C465   C481    1.403   .     A
C466   C472    1.395   .     A
C466   H520    1.083   .     S
C466   C78     1.389   1_565 S
C467   O503    1.298   .     A
C467   O502    1.307   .     A
C468   C508    1.509   .     S
C468   C469    1.421   .     A
C469   C477    1.460   .     S
C469   C470    1.404   .     A
C470   H487    1.084   .     S
C471   H488    1.083   .     S
C471   C472    1.396   .     A
C471   C80     1.384   1_565 S
C473   N499    1.394   .     A
C473   C512    1.508   .     S
C473   C539    1.415   .     S
C474   N498    1.352   .     A
C474   H489    1.083   .     S
C475   N498    1.354   .     A
C475   H490    1.083   .     S
C476   N499    1.391   .     A
C476   C516    1.505   .     S
C476   C540    1.415   .     S
C477   O505    1.294   .     A
C477   O504    1.302   .     A
C478   O507    1.301   .     A
C478   C480    1.463   .     S
C478   O506    1.297   .     A
C479   C1045   1.402   1_554 S
C479   H1077   1.084   1_554 S
C481   C482    1.386   .     A
C481   H494    1.083   .     S
C482   C1068   1.390   .     S
C482   H1081   1.083   .     S
C483   H495    1.077   .     S
C483   C1067   1.390   1_554 S
C483   C1042   1.418   1_554 S
Cu484  O504    1.966   .     S
Cu484  N498    2.025   .     S
Cu484  Cu485   2.694   .     S
Cu484  O502    1.961   .     S
Cu484  O506    1.949   .     S
Cu484  O500    1.970   .     S
Cu485  N499    2.025   .     S
Cu485  O503    1.949   .     S
Cu485  O507    1.961   .     S
Cu485  O505    1.970   .     S
Cu485  O501    1.966   .     S
H492   C1064   1.084   .     S
H496   C1067   1.083   1_554 S
C508   H509    1.106   .     S
C508   H510    1.111   .     S
C508   H511    1.108   .     S
C512   H513    1.110   .     S
C512   H514    1.111   .     S
C512   H515    1.089   .     S
C516   H519    1.111   .     S
C516   H517    1.090   .     S
C516   H518    1.110   .     S
C521   O565    1.296   .     A
C521   O566    1.295   .     A
C521   C537    1.447   .     S
C522   C523    1.420   .     A
C522   C1109   1.426   .     S
C522   C1133   1.418   .     S
C523   C530    1.425   .     A
C523   C527    1.413   .     A
C524   C528    1.402   .     A
C524   C1107   1.426   1_554 S
C524   C1110   1.420   1_554 S
C525   C526    1.388   .     A
C525   C1109   1.420   .     S
C525   C1129   1.402   .     S
C526   C527    1.383   .     A
C526   H556    1.084   .     S
C527   H562    1.073   .     S
C528   C545    1.398   .     A
C528   H558    1.076   .     S
C529   C544    1.390   .     A
C529   C545    1.398   .     A
C529   H551    1.080   .     S
C530   C532    1.478   .     S
C530   C546    1.403   .     A
C531   C537    1.395   .     A
C531   H585    1.083   .     S
C531   C143    1.389   1_565 S
C532   O568    1.298   .     A
C532   O567    1.307   .     A
C533   C573    1.509   .     S
C533   C534    1.421   .     A
C534   C542    1.460   .     S
C534   C535    1.404   .     A
C535   H552    1.084   .     S
C536   H553    1.083   .     S
C536   C537    1.396   .     A
C536   C145    1.384   1_565 S
C538   N564    1.394   .     A
C538   C577    1.508   .     S
C538   C409    1.415   1_655 S
C539   N563    1.352   .     A
C539   H554    1.083   .     S
C540   N563    1.354   .     A
C540   H555    1.083   .     S
C541   N564    1.391   .     A
C541   C581    1.505   .     S
C541   C410    1.415   1_655 S
C542   O570    1.294   .     A
C542   O569    1.302   .     A
C543   O572    1.301   .     A
C543   C545    1.463   .     S
C543   O571    1.297   .     A
C544   C1110   1.402   1_554 S
C544   H1142   1.084   1_554 S
C546   C547    1.386   .     A
C546   H559    1.083   .     S
C547   C1133   1.390   .     S
C547   H1146   1.083   .     S
C548   H560    1.077   .     S
C548   C1132   1.390   1_554 S
C548   C1107   1.418   1_554 S
Cu549  O569    1.966   .     S
Cu549  N563    2.025   .     S
Cu549  Cu550   2.694   .     S
Cu549  O567    1.961   .     S
Cu549  O571    1.949   .     S
Cu549  O565    1.970   .     S
Cu550  N564    2.025   .     S
Cu550  O568    1.949   .     S
Cu550  O572    1.961   .     S
Cu550  O570    1.970   .     S
Cu550  O566    1.966   .     S
H557   C1129   1.084   .     S
H561   C1132   1.083   1_554 S
C573   H574    1.106   .     S
C573   H575    1.111   .     S
C573   H576    1.108   .     S
C577   H578    1.110   .     S
C577   H579    1.111   .     S
C577   H580    1.089   .     S
C581   H584    1.111   .     S
C581   H582    1.090   .     S
C581   H583    1.110   .     S
C586   O630    1.296   .     A
C586   O631    1.295   .     A
C586   C602    1.447   .     S
C587   C588    1.420   .     A
C587   C4      1.426   1_556 S
C587   C28     1.418   1_556 S
C588   C595    1.425   .     A
C588   C592    1.413   .     A
C589   C593    1.402   .     A
C590   C591    1.388   .     A
C590   C4      1.420   1_556 S
C590   C24     1.402   1_556 S
C591   C592    1.383   .     A
C591   H621    1.084   .     S
C592   H627    1.073   .     S
C593   C610    1.398   .     A
C593   H623    1.076   .     S
C594   C609    1.390   .     A
C594   C610    1.398   .     A
C594   H616    1.080   .     S
C595   C597    1.478   .     S
C595   C611    1.403   .     A
C596   C602    1.395   .     A
C596   H650    1.083   .     S
C596   C793    1.389   .     S
C597   O633    1.298   .     A
C597   O632    1.307   .     A
C598   C638    1.509   .     S
C598   C599    1.421   .     A
C598   C986    1.389   1_545 S
C599   C607    1.460   .     S
C599   C600    1.404   .     A
C600   H617    1.084   .     S
C600   C991    1.384   1_545 S
C601   H618    1.083   .     S
C601   C602    1.396   .     A
C601   C795    1.384   .     S
C603   N629    1.394   .     A
C603   C642    1.508   .     S
C603   C669    1.415   .     S
C604   N628    1.352   .     A
C604   H619    1.083   .     S
C604   C733    1.415   1_455 S
C605   N628    1.354   .     A
C605   H620    1.083   .     S
C605   C736    1.415   1_455 S
C606   N629    1.391   .     A
C606   C646    1.505   .     S
C606   C670    1.415   .     S
C607   O635    1.294   .     A
C607   O634    1.302   .     A
C608   O637    1.301   .     A
C608   C610    1.463   .     S
C608   O636    1.297   .     A
C611   C612    1.386   .     A
C611   H624    1.083   .     S
C612   C28     1.390   1_556 S
C612   H41     1.083   1_556 S
C613   H625    1.077   .     S
Cu614  O634    1.966   .     S
Cu614  N628    2.025   .     S
Cu614  Cu615   2.694   .     S
Cu614  O632    1.961   .     S
Cu614  O636    1.949   .     S
Cu614  O630    1.970   .     S
Cu615  N629    2.025   .     S
Cu615  O633    1.949   .     S
Cu615  O637    1.961   .     S
Cu615  O635    1.970   .     S
Cu615  O631    1.966   .     S
H622   C24     1.084   1_556 S
C638   H639    1.106   .     S
C638   H640    1.111   .     S
C638   H641    1.108   .     S
C642   H643    1.110   .     S
C642   H644    1.111   .     S
C642   H645    1.089   .     S
C646   H649    1.111   .     S
C646   H647    1.090   .     S
C646   H648    1.110   .     S
C651   O695    1.296   .     A
C651   O696    1.295   .     A
C651   C667    1.447   .     S
C652   C653    1.420   .     A
C652   C69     1.426   1_556 S
C652   C93     1.418   1_556 S
C653   C660    1.425   .     A
C653   C657    1.413   .     A
C654   C658    1.402   .     A
C655   C656    1.388   .     A
C655   C69     1.420   1_556 S
C655   C89     1.402   1_556 S
C656   C657    1.383   .     A
C656   H686    1.084   .     S
C657   H692    1.073   .     S
C658   C675    1.398   .     A
C658   H688    1.076   .     S
C659   C674    1.390   .     A
C659   C675    1.398   .     A
C659   H681    1.080   .     S
C660   C662    1.478   .     S
C660   C676    1.403   .     A
C661   C667    1.395   .     A
C661   H715    1.083   .     S
C661   C858    1.389   .     S
C662   O698    1.298   .     A
C662   O697    1.307   .     A
C663   C703    1.509   .     S
C663   C664    1.421   .     A
C663   C1051   1.389   1_545 S
C664   C672    1.460   .     S
C664   C665    1.404   .     A
C665   H682    1.084   .     S
C665   C1056   1.384   1_545 S
C666   H683    1.083   .     S
C666   C667    1.396   .     A
C666   C860    1.384   .     S
C668   N694    1.394   .     A
C668   C707    1.508   .     S
C668   C734    1.415   .     S
C669   N693    1.352   .     A
C669   H684    1.083   .     S
C670   N693    1.354   .     A
C670   H685    1.083   .     S
C671   N694    1.391   .     A
C671   C711    1.505   .     S
C671   C735    1.415   .     S
C672   O700    1.294   .     A
C672   O699    1.302   .     A
C673   O702    1.301   .     A
C673   C675    1.463   .     S
C673   O701    1.297   .     A
C676   C677    1.386   .     A
C676   H689    1.083   .     S
C677   C93     1.390   1_556 S
C677   H106    1.083   1_556 S
C678   H690    1.077   .     S
Cu679  O699    1.966   .     S
Cu679  N693    2.025   .     S
Cu679  Cu680   2.694   .     S
Cu679  O697    1.961   .     S
Cu679  O701    1.949   .     S
Cu679  O695    1.970   .     S
Cu680  N694    2.025   .     S
Cu680  O698    1.949   .     S
Cu680  O702    1.961   .     S
Cu680  O700    1.970   .     S
Cu680  O696    1.966   .     S
H687   C89     1.084   1_556 S
C703   H704    1.106   .     S
C703   H705    1.111   .     S
C703   H706    1.108   .     S
C707   H708    1.110   .     S
C707   H709    1.111   .     S
C707   H710    1.089   .     S
C711   H714    1.111   .     S
C711   H712    1.090   .     S
C711   H713    1.110   .     S
C716   O760    1.296   .     A
C716   O761    1.295   .     A
C716   C732    1.447   .     S
C717   C718    1.420   .     A
C717   C134    1.426   1_556 S
C717   C158    1.418   1_556 S
C718   C725    1.425   .     A
C718   C722    1.413   .     A
C719   C723    1.402   .     A
C720   C721    1.388   .     A
C720   C134    1.420   1_556 S
C720   C154    1.402   1_556 S
C721   C722    1.383   .     A
C721   H751    1.084   .     S
C722   H757    1.073   .     S
C723   C740    1.398   .     A
C723   H753    1.076   .     S
C724   C739    1.390   .     A
C724   C740    1.398   .     A
C724   H746    1.080   .     S
C725   C727    1.478   .     S
C725   C741    1.403   .     A
C726   C732    1.395   .     A
C726   H780    1.083   .     S
C726   C923    1.389   .     S
C727   O763    1.298   .     A
C727   O762    1.307   .     A
C728   C768    1.509   .     S
C728   C729    1.421   .     A
C728   C1116   1.389   1_545 S
C729   C737    1.460   .     S
C729   C730    1.404   .     A
C730   H747    1.084   .     S
C730   C1121   1.384   1_545 S
C731   H748    1.083   .     S
C731   C732    1.396   .     A
C731   C925    1.384   .     S
C733   N759    1.394   .     A
C733   C772    1.508   .     S
C733   C604    1.415   1_655 S
C734   N758    1.352   .     A
C734   H749    1.083   .     S
C735   N758    1.354   .     A
C735   H750    1.083   .     S
C736   N759    1.391   .     A
C736   C776    1.505   .     S
C736   C605    1.415   1_655 S
C737   O765    1.294   .     A
C737   O764    1.302   .     A
C738   O767    1.301   .     A
C738   C740    1.463   .     S
C738   O766    1.297   .     A
C741   C742    1.386   .     A
C741   H754    1.083   .     S
C742   C158    1.390   1_556 S
C742   H171    1.083   1_556 S
C743   H755    1.077   .     S
Cu744  O764    1.966   .     S
Cu744  N758    2.025   .     S
Cu744  Cu745   2.694   .     S
Cu744  O762    1.961   .     S
Cu744  O766    1.949   .     S
Cu744  O760    1.970   .     S
Cu745  N759    2.025   .     S
Cu745  O763    1.949   .     S
Cu745  O767    1.961   .     S
Cu745  O765    1.970   .     S
Cu745  O761    1.966   .     S
H752   C154    1.084   1_556 S
C768   H769    1.106   .     S
C768   H770    1.111   .     S
C768   H771    1.108   .     S
C772   H773    1.110   .     S
C772   H774    1.111   .     S
C772   H775    1.089   .     S
C776   H779    1.111   .     S
C776   H777    1.090   .     S
C776   H778    1.110   .     S
C781   O825    1.296   .     A
C781   O826    1.295   .     A
C781   C797    1.447   .     S
C782   C783    1.420   .     A
C782   C199    1.426   1_556 S
C782   C223    1.418   1_556 S
C783   C790    1.425   .     A
C783   C787    1.413   .     A
C784   C788    1.402   .     A
C785   C786    1.388   .     A
C785   C199    1.420   1_556 S
C785   C219    1.402   1_556 S
C786   C787    1.383   .     A
C786   H816    1.084   .     S
C787   H822    1.073   .     S
C788   C805    1.398   .     A
C788   H818    1.076   .     S
C789   C804    1.390   .     A
C789   C805    1.398   .     A
C789   H811    1.080   .     S
C790   C792    1.478   .     S
C790   C806    1.403   .     A
C791   C797    1.395   .     A
C791   H845    1.083   .     S
C791   C988    1.389   .     S
C792   O828    1.298   .     A
C792   O827    1.307   .     A
C793   C833    1.509   .     S
C793   C794    1.421   .     A
C794   C802    1.460   .     S
C794   C795    1.404   .     A
C795   H812    1.084   .     S
C796   H813    1.083   .     S
C796   C797    1.396   .     A
C796   C990    1.384   .     S
C798   N824    1.394   .     A
C798   C837    1.508   .     S
C798   C864    1.415   .     S
C799   N823    1.352   .     A
C799   H814    1.083   .     S
C799   C928    1.415   1_455 S
C800   N823    1.354   .     A
C800   H815    1.083   .     S
C800   C931    1.415   1_455 S
C801   N824    1.391   .     A
C801   C841    1.505   .     S
C801   C865    1.415   .     S
C802   O830    1.294   .     A
C802   O829    1.302   .     A
C803   O832    1.301   .     A
C803   C805    1.463   .     S
C803   O831    1.297   .     A
C806   C807    1.386   .     A
C806   H819    1.083   .     S
C807   C223    1.390   1_556 S
C807   H236    1.083   1_556 S
C808   H820    1.077   .     S
Cu809  O829    1.966   .     S
Cu809  N823    2.025   .     S
Cu809  Cu810   2.694   .     S
Cu809  O827    1.961   .     S
Cu809  O831    1.949   .     S
Cu809  O825    1.970   .     S
Cu810  N824    2.025   .     S
Cu810  O828    1.949   .     S
Cu810  O832    1.961   .     S
Cu810  O830    1.970   .     S
Cu810  O826    1.966   .     S
H817   C219    1.084   1_556 S
C833   H834    1.106   .     S
C833   H835    1.111   .     S
C833   H836    1.108   .     S
C837   H838    1.110   .     S
C837   H839    1.111   .     S
C837   H840    1.089   .     S
C841   H844    1.111   .     S
C841   H842    1.090   .     S
C841   H843    1.110   .     S
C846   O890    1.296   .     A
C846   O891    1.295   .     A
C846   C862    1.447   .     S
C847   C848    1.420   .     A
C847   C264    1.426   1_556 S
C847   C288    1.418   1_556 S
C848   C855    1.425   .     A
C848   C852    1.413   .     A
C849   C853    1.402   .     A
C850   C851    1.388   .     A
C850   C264    1.420   1_556 S
C850   C284    1.402   1_556 S
C851   C852    1.383   .     A
C851   H881    1.084   .     S
C852   H887    1.073   .     S
C853   C870    1.398   .     A
C853   H883    1.076   .     S
C854   C869    1.390   .     A
C854   C870    1.398   .     A
C854   H876    1.080   .     S
C855   C857    1.478   .     S
C855   C871    1.403   .     A
C856   C862    1.395   .     A
C856   H910    1.083   .     S
C856   C1053   1.389   .     S
C857   O893    1.298   .     A
C857   O892    1.307   .     A
C858   C898    1.509   .     S
C858   C859    1.421   .     A
C859   C867    1.460   .     S
C859   C860    1.404   .     A
C860   H877    1.084   .     S
C861   H878    1.083   .     S
C861   C862    1.396   .     A
C861   C1055   1.384   .     S
C863   N889    1.394   .     A
C863   C902    1.508   .     S
C863   C929    1.415   .     S
C864   N888    1.352   .     A
C864   H879    1.083   .     S
C865   N888    1.354   .     A
C865   H880    1.083   .     S
C866   N889    1.391   .     A
C866   C906    1.505   .     S
C866   C930    1.415   .     S
C867   O895    1.294   .     A
C867   O894    1.302   .     A
C868   O897    1.301   .     A
C868   C870    1.463   .     S
C868   O896    1.297   .     A
C871   C872    1.386   .     A
C871   H884    1.083   .     S
C872   C288    1.390   1_556 S
C872   H301    1.083   1_556 S
C873   H885    1.077   .     S
Cu874  O894    1.966   .     S
Cu874  N888    2.025   .     S
Cu874  Cu875   2.694   .     S
Cu874  O892    1.961   .     S
Cu874  O896    1.949   .     S
Cu874  O890    1.970   .     S
Cu875  N889    2.025   .     S
Cu875  O893    1.949   .     S
Cu875  O897    1.961   .     S
Cu875  O895    1.970   .     S
Cu875  O891    1.966   .     S
H882   C284    1.084   1_556 S
C898   H899    1.106   .     S
C898   H900    1.111   .     S
C898   H901    1.108   .     S
C902   H903    1.110   .     S
C902   H904    1.111   .     S
C902   H905    1.089   .     S
C906   H909    1.111   .     S
C906   H907    1.090   .     S
C906   H908    1.110   .     S
C911   O955    1.296   .     A
C911   O956    1.295   .     A
C911   C927    1.447   .     S
C912   C913    1.420   .     A
C912   C329    1.426   1_556 S
C912   C353    1.418   1_556 S
C913   C920    1.425   .     A
C913   C917    1.413   .     A
C914   C918    1.402   .     A
C915   C916    1.388   .     A
C915   C329    1.420   1_556 S
C915   C349    1.402   1_556 S
C916   C917    1.383   .     A
C916   H946    1.084   .     S
C917   H952    1.073   .     S
C918   C935    1.398   .     A
C918   H948    1.076   .     S
C919   C934    1.390   .     A
C919   C935    1.398   .     A
C919   H941    1.080   .     S
C920   C922    1.478   .     S
C920   C936    1.403   .     A
C921   C927    1.395   .     A
C921   H975    1.083   .     S
C921   C1118   1.389   .     S
C922   O958    1.298   .     A
C922   O957    1.307   .     A
C923   C963    1.509   .     S
C923   C924    1.421   .     A
C924   C932    1.460   .     S
C924   C925    1.404   .     A
C925   H942    1.084   .     S
C926   H943    1.083   .     S
C926   C927    1.396   .     A
C926   C1120   1.384   .     S
C928   N954    1.394   .     A
C928   C967    1.508   .     S
C928   C799    1.415   1_655 S
C929   N953    1.352   .     A
C929   H944    1.083   .     S
C930   N953    1.354   .     A
C930   H945    1.083   .     S
C931   N954    1.391   .     A
C931   C971    1.505   .     S
C931   C800    1.415   1_655 S
C932   O960    1.294   .     A
C932   O959    1.302   .     A
C933   O962    1.301   .     A
C933   C935    1.463   .     S
C933   O961    1.297   .     A
C936   C937    1.386   .     A
C936   H949    1.083   .     S
C937   C353    1.390   1_556 S
C937   H366    1.083   1_556 S
C938   H950    1.077   .     S
Cu939  O959    1.966   .     S
Cu939  N953    2.025   .     S
Cu939  Cu940   2.694   .     S
Cu939  O957    1.961   .     S
Cu939  O961    1.949   .     S
Cu939  O955    1.970   .     S
Cu940  N954    2.025   .     S
Cu940  O958    1.949   .     S
Cu940  O962    1.961   .     S
Cu940  O960    1.970   .     S
Cu940  O956    1.966   .     S
H947   C349    1.084   1_556 S
C963   H964    1.106   .     S
C963   H965    1.111   .     S
C963   H966    1.108   .     S
C967   H968    1.110   .     S
C967   H969    1.111   .     S
C967   H970    1.089   .     S
C971   H974    1.111   .     S
C971   H972    1.090   .     S
C971   H973    1.110   .     S
C976   O1020   1.296   .     A
C976   O1021   1.295   .     A
C976   C992    1.447   .     S
C977   C978    1.420   .     A
C977   C394    1.426   1_556 S
C977   C418    1.418   1_556 S
C978   C985    1.425   .     A
C978   C982    1.413   .     A
C979   C983    1.402   .     A
C980   C981    1.388   .     A
C980   C394    1.420   1_556 S
C980   C414    1.402   1_556 S
C981   C982    1.383   .     A
C981   H1011   1.084   .     S
C982   H1017   1.073   .     S
C983   C1000   1.398   .     A
C983   H1013   1.076   .     S
C984   C999    1.390   .     A
C984   C1000   1.398   .     A
C984   H1006   1.080   .     S
C985   C987    1.478   .     S
C985   C1001   1.403   .     A
C986   C992    1.395   .     A
C986   H1040   1.083   .     S
C986   C598    1.389   1_565 S
C987   O1023   1.298   .     A
C987   O1022   1.307   .     A
C988   C1028   1.509   .     S
C988   C989    1.421   .     A
C989   C997    1.460   .     S
C989   C990    1.404   .     A
C990   H1007   1.084   .     S
C991   H1008   1.083   .     S
C991   C992    1.396   .     A
C991   C600    1.384   1_565 S
C993   N1019   1.394   .     A
C993   C1032   1.508   .     S
C993   C1059   1.415   .     S
C994   N1018   1.352   .     A
C994   H1009   1.083   .     S
C994   C1123   1.415   1_455 S
C995   N1018   1.354   .     A
C995   H1010   1.083   .     S
C995   C1126   1.415   1_455 S
C996   N1019   1.391   .     A
C996   C1036   1.505   .     S
C996   C1060   1.415   .     S
C997   O1025   1.294   .     A
C997   O1024   1.302   .     A
C998   O1027   1.301   .     A
C998   C1000   1.463   .     S
C998   O1026   1.297   .     A
C1001  C1002   1.386   .     A
C1001  H1014   1.083   .     S
C1002  C418    1.390   1_556 S
C1002  H431    1.083   1_556 S
C1003  H1015   1.077   .     S
Cu1004 O1024   1.966   .     S
Cu1004 N1018   2.025   .     S
Cu1004 Cu1005  2.694   .     S
Cu1004 O1022   1.961   .     S
Cu1004 O1026   1.949   .     S
Cu1004 O1020   1.970   .     S
Cu1005 N1019   2.025   .     S
Cu1005 O1023   1.949   .     S
Cu1005 O1027   1.961   .     S
Cu1005 O1025   1.970   .     S
Cu1005 O1021   1.966   .     S
H1012  C414    1.084   1_556 S
C1028  H1029   1.106   .     S
C1028  H1030   1.111   .     S
C1028  H1031   1.108   .     S
C1032  H1033   1.110   .     S
C1032  H1034   1.111   .     S
C1032  H1035   1.089   .     S
C1036  H1039   1.111   .     S
C1036  H1037   1.090   .     S
C1036  H1038   1.110   .     S
C1041  O1085   1.296   .     A
C1041  O1086   1.295   .     A
C1041  C1057   1.447   .     S
C1042  C1043   1.420   .     A
C1042  C459    1.426   1_556 S
C1042  C483    1.418   1_556 S
C1043  C1050   1.425   .     A
C1043  C1047   1.413   .     A
C1044  C1048   1.402   .     A
C1045  C1046   1.388   .     A
C1045  C459    1.420   1_556 S
C1045  C479    1.402   1_556 S
C1046  C1047   1.383   .     A
C1046  H1076   1.084   .     S
C1047  H1082   1.073   .     S
C1048  C1065   1.398   .     A
C1048  H1078   1.076   .     S
C1049  C1064   1.390   .     A
C1049  C1065   1.398   .     A
C1049  H1071   1.080   .     S
C1050  C1052   1.478   .     S
C1050  C1066   1.403   .     A
C1051  C1057   1.395   .     A
C1051  H1105   1.083   .     S
C1051  C663    1.389   1_565 S
C1052  O1088   1.298   .     A
C1052  O1087   1.307   .     A
C1053  C1093   1.509   .     S
C1053  C1054   1.421   .     A
C1054  C1062   1.460   .     S
C1054  C1055   1.404   .     A
C1055  H1072   1.084   .     S
C1056  H1073   1.083   .     S
C1056  C1057   1.396   .     A
C1056  C665    1.384   1_565 S
C1058  N1084   1.394   .     A
C1058  C1097   1.508   .     S
C1058  C1124   1.415   .     S
C1059  N1083   1.352   .     A
C1059  H1074   1.083   .     S
C1060  N1083   1.354   .     A
C1060  H1075   1.083   .     S
C1061  N1084   1.391   .     A
C1061  C1101   1.505   .     S
C1061  C1125   1.415   .     S
C1062  O1090   1.294   .     A
C1062  O1089   1.302   .     A
C1063  O1092   1.301   .     A
C1063  C1065   1.463   .     S
C1063  O1091   1.297   .     A
C1066  C1067   1.386   .     A
C1066  H1079   1.083   .     S
C1067  C483    1.390   1_556 S
C1067  H496    1.083   1_556 S
C1068  H1080   1.077   .     S
Cu1069 O1089   1.966   .     S
Cu1069 N1083   2.025   .     S
Cu1069 Cu1070  2.694   .     S
Cu1069 O1087   1.961   .     S
Cu1069 O1091   1.949   .     S
Cu1069 O1085   1.970   .     S
Cu1070 N1084   2.025   .     S
Cu1070 O1088   1.949   .     S
Cu1070 O1092   1.961   .     S
Cu1070 O1090   1.970   .     S
Cu1070 O1086   1.966   .     S
H1077  C479    1.084   1_556 S
C1093  H1094   1.106   .     S
C1093  H1095   1.111   .     S
C1093  H1096   1.108   .     S
C1097  H1098   1.110   .     S
C1097  H1099   1.111   .     S
C1097  H1100   1.089   .     S
C1101  H1104   1.111   .     S
C1101  H1102   1.090   .     S
C1101  H1103   1.110   .     S
C1106  O1150   1.296   .     A
C1106  O1151   1.295   .     A
C1106  C1122   1.447   .     S
C1107  C1108   1.420   .     A
C1107  C524    1.426   1_556 S
C1107  C548    1.418   1_556 S
C1108  C1115   1.425   .     A
C1108  C1112   1.413   .     A
C1109  C1113   1.402   .     A
C1110  C1111   1.388   .     A
C1110  C524    1.420   1_556 S
C1110  C544    1.402   1_556 S
C1111  C1112   1.383   .     A
C1111  H1141   1.084   .     S
C1112  H1147   1.073   .     S
C1113  C1130   1.398   .     A
C1113  H1143   1.076   .     S
C1114  C1129   1.390   .     A
C1114  C1130   1.398   .     A
C1114  H1136   1.080   .     S
C1115  C1117   1.478   .     S
C1115  C1131   1.403   .     A
C1116  C1122   1.395   .     A
C1116  H1170   1.083   .     S
C1116  C728    1.389   1_565 S
C1117  O1153   1.298   .     A
C1117  O1152   1.307   .     A
C1118  C1158   1.509   .     S
C1118  C1119   1.421   .     A
C1119  C1127   1.460   .     S
C1119  C1120   1.404   .     A
C1120  H1137   1.084   .     S
C1121  H1138   1.083   .     S
C1121  C1122   1.396   .     A
C1121  C730    1.384   1_565 S
C1123  N1149   1.394   .     A
C1123  C1162   1.508   .     S
C1123  C994    1.415   1_655 S
C1124  N1148   1.352   .     A
C1124  H1139   1.083   .     S
C1125  N1148   1.354   .     A
C1125  H1140   1.083   .     S
C1126  N1149   1.391   .     A
C1126  C1166   1.505   .     S
C1126  C995    1.415   1_655 S
C1127  O1155   1.294   .     A
C1127  O1154   1.302   .     A
C1128  O1157   1.301   .     A
C1128  C1130   1.463   .     S
C1128  O1156   1.297   .     A
C1131  C1132   1.386   .     A
C1131  H1144   1.083   .     S
C1132  C548    1.390   1_556 S
C1132  H561    1.083   1_556 S
C1133  H1145   1.077   .     S
Cu1134 O1154   1.966   .     S
Cu1134 N1148   2.025   .     S
Cu1134 Cu1135  2.694   .     S
Cu1134 O1152   1.961   .     S
Cu1134 O1156   1.949   .     S
Cu1134 O1150   1.970   .     S
Cu1135 N1149   2.025   .     S
Cu1135 O1153   1.949   .     S
Cu1135 O1157   1.961   .     S
Cu1135 O1155   1.970   .     S
Cu1135 O1151   1.966   .     S
H1142  C544    1.084   1_556 S
C1158  H1159   1.106   .     S
C1158  H1160   1.111   .     S
C1158  H1161   1.108   .     S
C1162  H1163   1.110   .     S
C1162  H1164   1.111   .     S
C1162  H1165   1.089   .     S
C1166  H1169   1.111   .     S
C1166  H1167   1.090   .     S
C1166  H1168   1.110   .     S
