data_str_m2_o1_o16_pcu_sym.54
_audit_creation_date              2020-01-03
_audit_creation_method            'Materials Studio'
_symmetry_space_group_name_H-M    'P1'
_symmetry_Int_Tables_number       1
_symmetry_cell_setting            triclinic
loop_
_symmetry_equiv_pos_as_xyz
  x,y,z
_cell_length_a                    28.4960
_cell_length_b                    32.4863
_cell_length_c                    26.9703
_cell_angle_alpha                 89.5561
_cell_angle_beta                  72.8291
_cell_angle_gamma                 89.9940
loop_
_atom_site_label
_atom_site_type_symbol
_atom_site_fract_x
_atom_site_fract_y
_atom_site_fract_z
_atom_site_U_iso_or_equiv
_atom_site_adp_type
_atom_site_occupancy
O1     O     0.12708   0.22678   0.25000   0.00000  Uiso   1.00
O2     O     0.20627   0.22679   0.25000   0.00000  Uiso   1.00
C3     C     0.16677   0.24600   0.24967   0.00000  Uiso   1.00
O4     O     0.10775   0.16665   0.32549   0.00000  Uiso   1.00
O5     O     0.18694   0.16666   0.32549   0.00000  Uiso   1.00
C6     C     0.14056   0.16468   0.34998   0.00000  Uiso   1.00
Cu7    Cu    0.11978   0.16666   0.25000   0.00000  Uiso   1.00
Cu8    Cu    0.21355   0.16667   0.25000   0.00000  Uiso   1.00
O9     O     0.12706   0.10654   0.24999   0.00000  Uiso   1.00
O10    O     0.20625   0.10655   0.24999   0.00000  Uiso   1.00
O11    O     0.14640   0.16667   0.17451   0.00000  Uiso   1.00
O12    O     0.22559   0.16668   0.17451   0.00000  Uiso   1.00
C13    C     0.16676   0.08735   0.24963   0.00000  Uiso   1.00
C14    C     0.19276   0.16295   0.15014   0.00000  Uiso   1.00
C15    C     0.26506   0.13373   0.01142   0.00000  Uiso   1.00
H16    H     0.27129   0.11007   0.41533   0.00000  Uiso   1.00
H17    H     0.30139   0.12371   0.48894   0.00000  Uiso   1.00
C18    C     0.20705   0.15339   0.09386   0.00000  Uiso   1.00
C19    C     0.08043   0.18320   0.43299   0.00000  Uiso   1.00
C20    C     0.06944   0.19249   0.48525   0.00000  Uiso   1.00
C21    C     0.10247   0.18274   0.01251   0.00000  Uiso   1.00
C22    C     0.14595   0.16047   0.48885   0.00000  Uiso   1.00
C23    C     0.15698   0.15070   0.43553   0.00000  Uiso   1.00
C24    C     0.18066   0.15031   0.01560   0.00000  Uiso   1.00
C25    C     0.22793   0.13673   0.48740   0.00000  Uiso   1.00
C26    C     0.23669   0.12417   0.43622   0.00000  Uiso   1.00
C27    C     0.20026   0.12843   0.41195   0.00000  Uiso   1.00
C28    C     0.16901   0.15098   0.06982   0.00000  Uiso   1.00
C29    C     0.25607   0.14382   0.06388   0.00000  Uiso   1.00
C30    C     0.12509   0.16430   0.40706   0.00000  Uiso   1.00
H31    H     0.05538   0.19344   0.41207   0.00000  Uiso   1.00
H32    H     0.09417   0.19463   0.05137   0.00000  Uiso   1.00
H33    H     0.03612   0.20912   0.00421   0.00000  Uiso   1.00
H34    H     0.20688   0.11464   0.37429   0.00000  Uiso   1.00
C35    C     0.20883   0.31206   0.25155   0.00000  Uiso   1.00
H36    H     0.24146   0.29603   0.25388   0.00000  Uiso   1.00
C37    C     0.20885   0.02131   0.25149   0.00000  Uiso   1.00
H38    H     0.24148   0.03732   0.25379   0.00000  Uiso   1.00
C39    C     0.16699   0.04277   0.24889   0.00000  Uiso   1.00
C40    C     0.12532   0.02135   0.24569   0.00000  Uiso   1.00
H41    H     0.09275   0.03740   0.24322   0.00000  Uiso   1.00
C42    C     0.12529   0.31210   0.24579   0.00000  Uiso   1.00
H43    H     0.09269   0.29608   0.24342   0.00000  Uiso   1.00
C44    C     0.16696   0.29062   0.24900   0.00000  Uiso   1.00
C45    C     0.31676   0.19441   0.22041   0.00000  Uiso   1.00
H46    H     0.30462   0.21657   0.19671   0.00000  Uiso   1.00
C47    C     0.03311   0.19434   0.22032   0.00000  Uiso   1.00
H48    H     0.05850   0.21646   0.19655   0.00000  Uiso   1.00
N49    N     0.04931   0.16666   0.24998   0.00000  Uiso   1.00
C50    C     0.01669   0.13873   0.27921   0.00000  Uiso   1.00
H51    H     0.02889   0.11638   0.30265   0.00000  Uiso   1.00
C52    C     0.30048   0.13858   0.27894   0.00000  Uiso   1.00
H53    H     0.27553   0.11579   0.30167   0.00000  Uiso   1.00
N54    N     0.28402   0.16669   0.25000   0.00000  Uiso   1.00
C55    C     0.29896   0.14052   0.08622   0.00000  Uiso   1.00
C56    C     0.29655   0.10078   0.11770   0.00000  Uiso   1.00
H57    H     0.32452   0.10186   0.13887   0.00000  Uiso   1.00
H58    H     0.25995   0.09624   0.14633   0.00000  Uiso   1.00
H59    H     0.30426   0.07394   0.09126   0.00000  Uiso   1.00
H60    H     0.00093   0.14011   0.05460   0.00000  Uiso   1.00
H61    H     0.30152   0.16807   0.10926   0.00000  Uiso   1.00
O62    O     0.12035   0.14560   0.09905   0.00000  Uiso   1.00
C63    C     0.11175   0.10395   0.11541   0.00000  Uiso   1.00
H64    H     0.07958   0.10351   0.15080   0.00000  Uiso   1.00
H65    H     0.14280   0.09002   0.12696   0.00000  Uiso   1.00
C66    C     0.09974   0.07768   0.07373   0.00000  Uiso   1.00
H67    H     0.07065   0.09291   0.06044   0.00000  Uiso   1.00
H68    H     0.13298   0.07454   0.03983   0.00000  Uiso   1.00
C69    C     0.08234   0.03476   0.09453   0.00000  Uiso   1.00
H70    H     0.11130   0.01879   0.10732   0.00000  Uiso   1.00
H71    H     0.07423   0.01640   0.06347   0.00000  Uiso   1.00
H72    H     0.04839   0.03676   0.12780   0.00000  Uiso   1.00
O73    O     0.46042   0.22678   0.25000   0.00000  Uiso   1.00
O74    O     0.53961   0.22679   0.25000   0.00000  Uiso   1.00
C75    C     0.50010   0.24600   0.24967   0.00000  Uiso   1.00
O76    O     0.44108   0.16665   0.32549   0.00000  Uiso   1.00
O77    O     0.52027   0.16666   0.32549   0.00000  Uiso   1.00
C78    C     0.47390   0.16468   0.34998   0.00000  Uiso   1.00
Cu79   Cu    0.45311   0.16666   0.25000   0.00000  Uiso   1.00
Cu80   Cu    0.54689   0.16667   0.25000   0.00000  Uiso   1.00
O81    O     0.46039   0.10654   0.24999   0.00000  Uiso   1.00
O82    O     0.53958   0.10655   0.24999   0.00000  Uiso   1.00
O83    O     0.47973   0.16667   0.17451   0.00000  Uiso   1.00
O84    O     0.55892   0.16668   0.17451   0.00000  Uiso   1.00
C85    C     0.50009   0.08735   0.24963   0.00000  Uiso   1.00
C86    C     0.52609   0.16295   0.15014   0.00000  Uiso   1.00
C87    C     0.59839   0.13373   0.01142   0.00000  Uiso   1.00
H88    H     0.60462   0.11007   0.41533   0.00000  Uiso   1.00
H89    H     0.63472   0.12371   0.48894   0.00000  Uiso   1.00
C90    C     0.54038   0.15339   0.09386   0.00000  Uiso   1.00
C91    C     0.41377   0.18320   0.43299   0.00000  Uiso   1.00
C92    C     0.40278   0.19249   0.48525   0.00000  Uiso   1.00
C93    C     0.43580   0.18274   0.01251   0.00000  Uiso   1.00
C94    C     0.47928   0.16047   0.48885   0.00000  Uiso   1.00
C95    C     0.49032   0.15070   0.43553   0.00000  Uiso   1.00
C96    C     0.51399   0.15031   0.01560   0.00000  Uiso   1.00
C97    C     0.56127   0.13673   0.48740   0.00000  Uiso   1.00
C98    C     0.57002   0.12417   0.43622   0.00000  Uiso   1.00
C99    C     0.53359   0.12843   0.41195   0.00000  Uiso   1.00
C100   C     0.50235   0.15098   0.06982   0.00000  Uiso   1.00
C101   C     0.58941   0.14382   0.06388   0.00000  Uiso   1.00
C102   C     0.45843   0.16430   0.40706   0.00000  Uiso   1.00
H103   H     0.38871   0.19344   0.41207   0.00000  Uiso   1.00
H104   H     0.42750   0.19463   0.05137   0.00000  Uiso   1.00
H105   H     0.36946   0.20912   0.00421   0.00000  Uiso   1.00
H106   H     0.54021   0.11464   0.37429   0.00000  Uiso   1.00
C107   C     0.54216   0.31206   0.25155   0.00000  Uiso   1.00
H108   H     0.57479   0.29603   0.25388   0.00000  Uiso   1.00
C109   C     0.54218   0.02131   0.25149   0.00000  Uiso   1.00
H110   H     0.57481   0.03732   0.25379   0.00000  Uiso   1.00
C111   C     0.50032   0.04277   0.24889   0.00000  Uiso   1.00
C112   C     0.45865   0.02135   0.24569   0.00000  Uiso   1.00
H113   H     0.42608   0.03740   0.24322   0.00000  Uiso   1.00
C114   C     0.45862   0.31210   0.24579   0.00000  Uiso   1.00
H115   H     0.42602   0.29608   0.24342   0.00000  Uiso   1.00
C116   C     0.50029   0.29062   0.24900   0.00000  Uiso   1.00
C117   C     0.65009   0.19441   0.22041   0.00000  Uiso   1.00
H118   H     0.63795   0.21657   0.19671   0.00000  Uiso   1.00
C119   C     0.36644   0.19434   0.22032   0.00000  Uiso   1.00
H120   H     0.39183   0.21646   0.19655   0.00000  Uiso   1.00
N121   N     0.38265   0.16666   0.24998   0.00000  Uiso   1.00
C122   C     0.35002   0.13873   0.27921   0.00000  Uiso   1.00
H123   H     0.36222   0.11638   0.30265   0.00000  Uiso   1.00
C124   C     0.63381   0.13858   0.27894   0.00000  Uiso   1.00
H125   H     0.60886   0.11579   0.30167   0.00000  Uiso   1.00
N126   N     0.61735   0.16669   0.25000   0.00000  Uiso   1.00
C127   C     0.63230   0.14052   0.08622   0.00000  Uiso   1.00
C128   C     0.62988   0.10078   0.11770   0.00000  Uiso   1.00
H129   H     0.65785   0.10186   0.13887   0.00000  Uiso   1.00
H130   H     0.59328   0.09624   0.14633   0.00000  Uiso   1.00
H131   H     0.63760   0.07394   0.09126   0.00000  Uiso   1.00
H132   H     0.33426   0.14011   0.05460   0.00000  Uiso   1.00
H133   H     0.63486   0.16807   0.10926   0.00000  Uiso   1.00
O134   O     0.45368   0.14560   0.09905   0.00000  Uiso   1.00
C135   C     0.44509   0.10395   0.11541   0.00000  Uiso   1.00
H136   H     0.41292   0.10351   0.15080   0.00000  Uiso   1.00
H137   H     0.47613   0.09002   0.12696   0.00000  Uiso   1.00
C138   C     0.43308   0.07768   0.07373   0.00000  Uiso   1.00
H139   H     0.40399   0.09291   0.06044   0.00000  Uiso   1.00
H140   H     0.46631   0.07454   0.03983   0.00000  Uiso   1.00
C141   C     0.41567   0.03476   0.09453   0.00000  Uiso   1.00
H142   H     0.44463   0.01879   0.10732   0.00000  Uiso   1.00
H143   H     0.40756   0.01640   0.06347   0.00000  Uiso   1.00
H144   H     0.38172   0.03676   0.12780   0.00000  Uiso   1.00
O145   O     0.79375   0.22678   0.25000   0.00000  Uiso   1.00
O146   O     0.87294   0.22679   0.25000   0.00000  Uiso   1.00
C147   C     0.83343   0.24600   0.24967   0.00000  Uiso   1.00
O148   O     0.77441   0.16665   0.32549   0.00000  Uiso   1.00
O149   O     0.85360   0.16666   0.32549   0.00000  Uiso   1.00
C150   C     0.80723   0.16468   0.34998   0.00000  Uiso   1.00
Cu151  Cu    0.78645   0.16666   0.25000   0.00000  Uiso   1.00
Cu152  Cu    0.88022   0.16667   0.25000   0.00000  Uiso   1.00
O153   O     0.79373   0.10654   0.24999   0.00000  Uiso   1.00
O154   O     0.87292   0.10655   0.24999   0.00000  Uiso   1.00
O155   O     0.81306   0.16667   0.17451   0.00000  Uiso   1.00
O156   O     0.89225   0.16668   0.17451   0.00000  Uiso   1.00
C157   C     0.83343   0.08735   0.24963   0.00000  Uiso   1.00
C158   C     0.85942   0.16295   0.15014   0.00000  Uiso   1.00
C159   C     0.93173   0.13373   0.01142   0.00000  Uiso   1.00
H160   H     0.93796   0.11007   0.41533   0.00000  Uiso   1.00
H161   H     0.96805   0.12371   0.48894   0.00000  Uiso   1.00
C162   C     0.87371   0.15339   0.09386   0.00000  Uiso   1.00
C163   C     0.74710   0.18320   0.43299   0.00000  Uiso   1.00
C164   C     0.73611   0.19249   0.48525   0.00000  Uiso   1.00
C165   C     0.76914   0.18274   0.01251   0.00000  Uiso   1.00
C166   C     0.81262   0.16047   0.48885   0.00000  Uiso   1.00
C167   C     0.82365   0.15070   0.43553   0.00000  Uiso   1.00
C168   C     0.84732   0.15031   0.01560   0.00000  Uiso   1.00
C169   C     0.89460   0.13673   0.48740   0.00000  Uiso   1.00
C170   C     0.90336   0.12417   0.43622   0.00000  Uiso   1.00
C171   C     0.86692   0.12843   0.41195   0.00000  Uiso   1.00
C172   C     0.83568   0.15098   0.06982   0.00000  Uiso   1.00
C173   C     0.92274   0.14382   0.06388   0.00000  Uiso   1.00
C174   C     0.79176   0.16430   0.40706   0.00000  Uiso   1.00
H175   H     0.72204   0.19344   0.41207   0.00000  Uiso   1.00
H176   H     0.76083   0.19463   0.05137   0.00000  Uiso   1.00
H177   H     0.70279   0.20912   0.00421   0.00000  Uiso   1.00
H178   H     0.87354   0.11464   0.37429   0.00000  Uiso   1.00
C179   C     0.87550   0.31206   0.25155   0.00000  Uiso   1.00
H180   H     0.90813   0.29603   0.25388   0.00000  Uiso   1.00
C181   C     0.87551   0.02131   0.25149   0.00000  Uiso   1.00
H182   H     0.90815   0.03732   0.25379   0.00000  Uiso   1.00
C183   C     0.83365   0.04277   0.24889   0.00000  Uiso   1.00
C184   C     0.79199   0.02135   0.24569   0.00000  Uiso   1.00
H185   H     0.75941   0.03740   0.24322   0.00000  Uiso   1.00
C186   C     0.79196   0.31210   0.24579   0.00000  Uiso   1.00
H187   H     0.75936   0.29608   0.24342   0.00000  Uiso   1.00
C188   C     0.83362   0.29062   0.24900   0.00000  Uiso   1.00
C189   C     0.98342   0.19441   0.22041   0.00000  Uiso   1.00
H190   H     0.97128   0.21657   0.19671   0.00000  Uiso   1.00
C191   C     0.69978   0.19434   0.22032   0.00000  Uiso   1.00
H192   H     0.72517   0.21646   0.19655   0.00000  Uiso   1.00
N193   N     0.71598   0.16666   0.24998   0.00000  Uiso   1.00
C194   C     0.68336   0.13873   0.27921   0.00000  Uiso   1.00
H195   H     0.69556   0.11638   0.30265   0.00000  Uiso   1.00
C196   C     0.96715   0.13858   0.27894   0.00000  Uiso   1.00
H197   H     0.94219   0.11579   0.30167   0.00000  Uiso   1.00
N198   N     0.95069   0.16669   0.25000   0.00000  Uiso   1.00
C199   C     0.96563   0.14052   0.08622   0.00000  Uiso   1.00
C200   C     0.96321   0.10078   0.11770   0.00000  Uiso   1.00
H201   H     0.99119   0.10186   0.13887   0.00000  Uiso   1.00
H202   H     0.92662   0.09624   0.14633   0.00000  Uiso   1.00
H203   H     0.97093   0.07394   0.09126   0.00000  Uiso   1.00
H204   H     0.66759   0.14011   0.05460   0.00000  Uiso   1.00
H205   H     0.96819   0.16807   0.10926   0.00000  Uiso   1.00
O206   O     0.78701   0.14560   0.09905   0.00000  Uiso   1.00
C207   C     0.77842   0.10395   0.11541   0.00000  Uiso   1.00
H208   H     0.74625   0.10351   0.15080   0.00000  Uiso   1.00
H209   H     0.80947   0.09002   0.12696   0.00000  Uiso   1.00
C210   C     0.76641   0.07768   0.07373   0.00000  Uiso   1.00
H211   H     0.73732   0.09291   0.06044   0.00000  Uiso   1.00
H212   H     0.79964   0.07454   0.03983   0.00000  Uiso   1.00
C213   C     0.74901   0.03476   0.09453   0.00000  Uiso   1.00
H214   H     0.77797   0.01879   0.10732   0.00000  Uiso   1.00
H215   H     0.74090   0.01640   0.06347   0.00000  Uiso   1.00
H216   H     0.71505   0.03676   0.12780   0.00000  Uiso   1.00
O217   O     0.12708   0.56011   0.25000   0.00000  Uiso   1.00
O218   O     0.20627   0.56012   0.25000   0.00000  Uiso   1.00
C219   C     0.16677   0.57933   0.24967   0.00000  Uiso   1.00
O220   O     0.10775   0.49998   0.32549   0.00000  Uiso   1.00
O221   O     0.18694   0.49999   0.32549   0.00000  Uiso   1.00
C222   C     0.14056   0.49802   0.34998   0.00000  Uiso   1.00
Cu223  Cu    0.11978   0.49999   0.25000   0.00000  Uiso   1.00
Cu224  Cu    0.21355   0.50001   0.25000   0.00000  Uiso   1.00
O225   O     0.12706   0.43988   0.24999   0.00000  Uiso   1.00
O226   O     0.20625   0.43989   0.24999   0.00000  Uiso   1.00
O227   O     0.14640   0.50001   0.17451   0.00000  Uiso   1.00
O228   O     0.22559   0.50002   0.17451   0.00000  Uiso   1.00
C229   C     0.16676   0.42068   0.24963   0.00000  Uiso   1.00
C230   C     0.19276   0.49628   0.15014   0.00000  Uiso   1.00
C231   C     0.26506   0.46706   0.01142   0.00000  Uiso   1.00
H232   H     0.27129   0.44340   0.41533   0.00000  Uiso   1.00
H233   H     0.30139   0.45705   0.48894   0.00000  Uiso   1.00
C234   C     0.20705   0.48673   0.09386   0.00000  Uiso   1.00
C235   C     0.08043   0.51653   0.43299   0.00000  Uiso   1.00
C236   C     0.06944   0.52582   0.48525   0.00000  Uiso   1.00
C237   C     0.10247   0.51607   0.01251   0.00000  Uiso   1.00
C238   C     0.14595   0.49381   0.48885   0.00000  Uiso   1.00
C239   C     0.15698   0.48403   0.43553   0.00000  Uiso   1.00
C240   C     0.18066   0.48365   0.01560   0.00000  Uiso   1.00
C241   C     0.22793   0.47007   0.48740   0.00000  Uiso   1.00
C242   C     0.23669   0.45750   0.43622   0.00000  Uiso   1.00
C243   C     0.20026   0.46176   0.41195   0.00000  Uiso   1.00
C244   C     0.16901   0.48432   0.06982   0.00000  Uiso   1.00
C245   C     0.25607   0.47715   0.06388   0.00000  Uiso   1.00
C246   C     0.12509   0.49763   0.40706   0.00000  Uiso   1.00
H247   H     0.05538   0.52677   0.41207   0.00000  Uiso   1.00
H248   H     0.09417   0.52796   0.05137   0.00000  Uiso   1.00
H249   H     0.03612   0.54246   0.00421   0.00000  Uiso   1.00
H250   H     0.20688   0.44798   0.37429   0.00000  Uiso   1.00
C251   C     0.20883   0.64540   0.25155   0.00000  Uiso   1.00
H252   H     0.24146   0.62936   0.25388   0.00000  Uiso   1.00
C253   C     0.20885   0.35464   0.25149   0.00000  Uiso   1.00
H254   H     0.24148   0.37065   0.25379   0.00000  Uiso   1.00
C255   C     0.16699   0.37610   0.24889   0.00000  Uiso   1.00
C256   C     0.12532   0.35468   0.24569   0.00000  Uiso   1.00
H257   H     0.09275   0.37074   0.24322   0.00000  Uiso   1.00
C258   C     0.12529   0.64543   0.24579   0.00000  Uiso   1.00
H259   H     0.09269   0.62942   0.24342   0.00000  Uiso   1.00
C260   C     0.16696   0.62396   0.24900   0.00000  Uiso   1.00
C261   C     0.31676   0.52774   0.22041   0.00000  Uiso   1.00
H262   H     0.30462   0.54991   0.19671   0.00000  Uiso   1.00
C263   C     0.03311   0.52767   0.22032   0.00000  Uiso   1.00
H264   H     0.05850   0.54980   0.19655   0.00000  Uiso   1.00
N265   N     0.04931   0.49999   0.24998   0.00000  Uiso   1.00
C266   C     0.01669   0.47206   0.27921   0.00000  Uiso   1.00
H267   H     0.02889   0.44971   0.30265   0.00000  Uiso   1.00
C268   C     0.30048   0.47191   0.27894   0.00000  Uiso   1.00
H269   H     0.27553   0.44912   0.30167   0.00000  Uiso   1.00
N270   N     0.28402   0.50002   0.25000   0.00000  Uiso   1.00
C271   C     0.29896   0.47385   0.08622   0.00000  Uiso   1.00
C272   C     0.29655   0.43412   0.11770   0.00000  Uiso   1.00
H273   H     0.32452   0.43519   0.13887   0.00000  Uiso   1.00
H274   H     0.25995   0.42957   0.14633   0.00000  Uiso   1.00
H275   H     0.30426   0.40728   0.09126   0.00000  Uiso   1.00
H276   H     0.00093   0.47344   0.05460   0.00000  Uiso   1.00
H277   H     0.30152   0.50141   0.10926   0.00000  Uiso   1.00
O278   O     0.12035   0.47894   0.09905   0.00000  Uiso   1.00
C279   C     0.11175   0.43729   0.11541   0.00000  Uiso   1.00
H280   H     0.07958   0.43684   0.15080   0.00000  Uiso   1.00
H281   H     0.14280   0.42335   0.12696   0.00000  Uiso   1.00
C282   C     0.09974   0.41101   0.07373   0.00000  Uiso   1.00
H283   H     0.07065   0.42625   0.06044   0.00000  Uiso   1.00
H284   H     0.13298   0.40787   0.03983   0.00000  Uiso   1.00
C285   C     0.08234   0.36809   0.09453   0.00000  Uiso   1.00
H286   H     0.11130   0.35212   0.10732   0.00000  Uiso   1.00
H287   H     0.07423   0.34973   0.06347   0.00000  Uiso   1.00
H288   H     0.04839   0.37009   0.12780   0.00000  Uiso   1.00
O289   O     0.46042   0.56011   0.25000   0.00000  Uiso   1.00
O290   O     0.53961   0.56012   0.25000   0.00000  Uiso   1.00
C291   C     0.50010   0.57933   0.24967   0.00000  Uiso   1.00
O292   O     0.44108   0.49998   0.32549   0.00000  Uiso   1.00
O293   O     0.52027   0.49999   0.32549   0.00000  Uiso   1.00
C294   C     0.47390   0.49802   0.34998   0.00000  Uiso   1.00
Cu295  Cu    0.45311   0.49999   0.25000   0.00000  Uiso   1.00
Cu296  Cu    0.54689   0.50001   0.25000   0.00000  Uiso   1.00
O297   O     0.46039   0.43988   0.24999   0.00000  Uiso   1.00
O298   O     0.53958   0.43989   0.24999   0.00000  Uiso   1.00
O299   O     0.47973   0.50001   0.17451   0.00000  Uiso   1.00
O300   O     0.55892   0.50002   0.17451   0.00000  Uiso   1.00
C301   C     0.50009   0.42068   0.24963   0.00000  Uiso   1.00
C302   C     0.52609   0.49628   0.15014   0.00000  Uiso   1.00
C303   C     0.59839   0.46706   0.01142   0.00000  Uiso   1.00
H304   H     0.60462   0.44340   0.41533   0.00000  Uiso   1.00
H305   H     0.63472   0.45705   0.48894   0.00000  Uiso   1.00
C306   C     0.54038   0.48673   0.09386   0.00000  Uiso   1.00
C307   C     0.41377   0.51653   0.43299   0.00000  Uiso   1.00
C308   C     0.40278   0.52582   0.48525   0.00000  Uiso   1.00
C309   C     0.43580   0.51607   0.01251   0.00000  Uiso   1.00
C310   C     0.47928   0.49381   0.48885   0.00000  Uiso   1.00
C311   C     0.49032   0.48403   0.43553   0.00000  Uiso   1.00
C312   C     0.51399   0.48365   0.01560   0.00000  Uiso   1.00
C313   C     0.56127   0.47007   0.48740   0.00000  Uiso   1.00
C314   C     0.57002   0.45750   0.43622   0.00000  Uiso   1.00
C315   C     0.53359   0.46176   0.41195   0.00000  Uiso   1.00
C316   C     0.50235   0.48432   0.06982   0.00000  Uiso   1.00
C317   C     0.58941   0.47715   0.06388   0.00000  Uiso   1.00
C318   C     0.45843   0.49763   0.40706   0.00000  Uiso   1.00
H319   H     0.38871   0.52677   0.41207   0.00000  Uiso   1.00
H320   H     0.42750   0.52796   0.05137   0.00000  Uiso   1.00
H321   H     0.36946   0.54246   0.00421   0.00000  Uiso   1.00
H322   H     0.54021   0.44798   0.37429   0.00000  Uiso   1.00
C323   C     0.54216   0.64540   0.25155   0.00000  Uiso   1.00
H324   H     0.57479   0.62936   0.25388   0.00000  Uiso   1.00
C325   C     0.54218   0.35464   0.25149   0.00000  Uiso   1.00
H326   H     0.57481   0.37065   0.25379   0.00000  Uiso   1.00
C327   C     0.50032   0.37610   0.24889   0.00000  Uiso   1.00
C328   C     0.45865   0.35468   0.24569   0.00000  Uiso   1.00
H329   H     0.42608   0.37074   0.24322   0.00000  Uiso   1.00
C330   C     0.45862   0.64543   0.24579   0.00000  Uiso   1.00
H331   H     0.42602   0.62942   0.24342   0.00000  Uiso   1.00
C332   C     0.50029   0.62396   0.24900   0.00000  Uiso   1.00
C333   C     0.65009   0.52774   0.22041   0.00000  Uiso   1.00
H334   H     0.63795   0.54991   0.19671   0.00000  Uiso   1.00
C335   C     0.36644   0.52767   0.22032   0.00000  Uiso   1.00
H336   H     0.39183   0.54980   0.19655   0.00000  Uiso   1.00
N337   N     0.38265   0.49999   0.24998   0.00000  Uiso   1.00
C338   C     0.35002   0.47206   0.27921   0.00000  Uiso   1.00
H339   H     0.36222   0.44971   0.30265   0.00000  Uiso   1.00
C340   C     0.63381   0.47191   0.27894   0.00000  Uiso   1.00
H341   H     0.60886   0.44912   0.30167   0.00000  Uiso   1.00
N342   N     0.61735   0.50002   0.25000   0.00000  Uiso   1.00
C343   C     0.63230   0.47385   0.08622   0.00000  Uiso   1.00
C344   C     0.62988   0.43412   0.11770   0.00000  Uiso   1.00
H345   H     0.65785   0.43519   0.13887   0.00000  Uiso   1.00
H346   H     0.59328   0.42957   0.14633   0.00000  Uiso   1.00
H347   H     0.63760   0.40728   0.09126   0.00000  Uiso   1.00
H348   H     0.33426   0.47344   0.05460   0.00000  Uiso   1.00
H349   H     0.63486   0.50141   0.10926   0.00000  Uiso   1.00
O350   O     0.45368   0.47894   0.09905   0.00000  Uiso   1.00
C351   C     0.44509   0.43729   0.11541   0.00000  Uiso   1.00
H352   H     0.41292   0.43684   0.15080   0.00000  Uiso   1.00
H353   H     0.47613   0.42335   0.12696   0.00000  Uiso   1.00
C354   C     0.43308   0.41101   0.07373   0.00000  Uiso   1.00
H355   H     0.40399   0.42625   0.06044   0.00000  Uiso   1.00
H356   H     0.46631   0.40787   0.03983   0.00000  Uiso   1.00
C357   C     0.41567   0.36809   0.09453   0.00000  Uiso   1.00
H358   H     0.44463   0.35212   0.10732   0.00000  Uiso   1.00
H359   H     0.40756   0.34973   0.06347   0.00000  Uiso   1.00
H360   H     0.38172   0.37009   0.12780   0.00000  Uiso   1.00
O361   O     0.79375   0.56011   0.25000   0.00000  Uiso   1.00
O362   O     0.87294   0.56012   0.25000   0.00000  Uiso   1.00
C363   C     0.83343   0.57933   0.24967   0.00000  Uiso   1.00
O364   O     0.77441   0.49998   0.32549   0.00000  Uiso   1.00
O365   O     0.85360   0.49999   0.32549   0.00000  Uiso   1.00
C366   C     0.80723   0.49802   0.34998   0.00000  Uiso   1.00
Cu367  Cu    0.78645   0.49999   0.25000   0.00000  Uiso   1.00
Cu368  Cu    0.88022   0.50001   0.25000   0.00000  Uiso   1.00
O369   O     0.79373   0.43988   0.24999   0.00000  Uiso   1.00
O370   O     0.87292   0.43989   0.24999   0.00000  Uiso   1.00
O371   O     0.81306   0.50001   0.17451   0.00000  Uiso   1.00
O372   O     0.89225   0.50002   0.17451   0.00000  Uiso   1.00
C373   C     0.83343   0.42068   0.24963   0.00000  Uiso   1.00
C374   C     0.85942   0.49628   0.15014   0.00000  Uiso   1.00
C375   C     0.93173   0.46706   0.01142   0.00000  Uiso   1.00
H376   H     0.93796   0.44340   0.41533   0.00000  Uiso   1.00
H377   H     0.96805   0.45705   0.48894   0.00000  Uiso   1.00
C378   C     0.87371   0.48673   0.09386   0.00000  Uiso   1.00
C379   C     0.74710   0.51653   0.43299   0.00000  Uiso   1.00
C380   C     0.73611   0.52582   0.48525   0.00000  Uiso   1.00
C381   C     0.76914   0.51607   0.01251   0.00000  Uiso   1.00
C382   C     0.81262   0.49381   0.48885   0.00000  Uiso   1.00
C383   C     0.82365   0.48403   0.43553   0.00000  Uiso   1.00
C384   C     0.84732   0.48365   0.01560   0.00000  Uiso   1.00
C385   C     0.89460   0.47007   0.48740   0.00000  Uiso   1.00
C386   C     0.90336   0.45750   0.43622   0.00000  Uiso   1.00
C387   C     0.86692   0.46176   0.41195   0.00000  Uiso   1.00
C388   C     0.83568   0.48432   0.06982   0.00000  Uiso   1.00
C389   C     0.92274   0.47715   0.06388   0.00000  Uiso   1.00
C390   C     0.79176   0.49763   0.40706   0.00000  Uiso   1.00
H391   H     0.72204   0.52677   0.41207   0.00000  Uiso   1.00
H392   H     0.76083   0.52796   0.05137   0.00000  Uiso   1.00
H393   H     0.70279   0.54246   0.00421   0.00000  Uiso   1.00
H394   H     0.87354   0.44798   0.37429   0.00000  Uiso   1.00
C395   C     0.87550   0.64540   0.25155   0.00000  Uiso   1.00
H396   H     0.90813   0.62936   0.25388   0.00000  Uiso   1.00
C397   C     0.87551   0.35464   0.25149   0.00000  Uiso   1.00
H398   H     0.90815   0.37065   0.25379   0.00000  Uiso   1.00
C399   C     0.83365   0.37610   0.24889   0.00000  Uiso   1.00
C400   C     0.79199   0.35468   0.24569   0.00000  Uiso   1.00
H401   H     0.75941   0.37074   0.24322   0.00000  Uiso   1.00
C402   C     0.79196   0.64543   0.24579   0.00000  Uiso   1.00
H403   H     0.75936   0.62942   0.24342   0.00000  Uiso   1.00
C404   C     0.83362   0.62396   0.24900   0.00000  Uiso   1.00
C405   C     0.98342   0.52774   0.22041   0.00000  Uiso   1.00
H406   H     0.97128   0.54991   0.19671   0.00000  Uiso   1.00
C407   C     0.69978   0.52767   0.22032   0.00000  Uiso   1.00
H408   H     0.72517   0.54980   0.19655   0.00000  Uiso   1.00
N409   N     0.71598   0.49999   0.24998   0.00000  Uiso   1.00
C410   C     0.68336   0.47206   0.27921   0.00000  Uiso   1.00
H411   H     0.69556   0.44971   0.30265   0.00000  Uiso   1.00
C412   C     0.96715   0.47191   0.27894   0.00000  Uiso   1.00
H413   H     0.94219   0.44912   0.30167   0.00000  Uiso   1.00
N414   N     0.95069   0.50002   0.25000   0.00000  Uiso   1.00
C415   C     0.96563   0.47385   0.08622   0.00000  Uiso   1.00
C416   C     0.96321   0.43412   0.11770   0.00000  Uiso   1.00
H417   H     0.99119   0.43519   0.13887   0.00000  Uiso   1.00
H418   H     0.92662   0.42957   0.14633   0.00000  Uiso   1.00
H419   H     0.97093   0.40728   0.09126   0.00000  Uiso   1.00
H420   H     0.66759   0.47344   0.05460   0.00000  Uiso   1.00
H421   H     0.96819   0.50141   0.10926   0.00000  Uiso   1.00
O422   O     0.78701   0.47894   0.09905   0.00000  Uiso   1.00
C423   C     0.77842   0.43729   0.11541   0.00000  Uiso   1.00
H424   H     0.74625   0.43684   0.15080   0.00000  Uiso   1.00
H425   H     0.80947   0.42335   0.12696   0.00000  Uiso   1.00
C426   C     0.76641   0.41101   0.07373   0.00000  Uiso   1.00
H427   H     0.73732   0.42625   0.06044   0.00000  Uiso   1.00
H428   H     0.79964   0.40787   0.03983   0.00000  Uiso   1.00
C429   C     0.74901   0.36809   0.09453   0.00000  Uiso   1.00
H430   H     0.77797   0.35212   0.10732   0.00000  Uiso   1.00
H431   H     0.74090   0.34973   0.06347   0.00000  Uiso   1.00
H432   H     0.71505   0.37009   0.12780   0.00000  Uiso   1.00
O433   O     0.12708   0.89345   0.25000   0.00000  Uiso   1.00
O434   O     0.20627   0.89346   0.25000   0.00000  Uiso   1.00
C435   C     0.16677   0.91267   0.24967   0.00000  Uiso   1.00
O436   O     0.10775   0.83332   0.32549   0.00000  Uiso   1.00
O437   O     0.18694   0.83333   0.32549   0.00000  Uiso   1.00
C438   C     0.14056   0.83135   0.34998   0.00000  Uiso   1.00
Cu439  Cu    0.11978   0.83333   0.25000   0.00000  Uiso   1.00
Cu440  Cu    0.21355   0.83334   0.25000   0.00000  Uiso   1.00
O441   O     0.12706   0.77321   0.24999   0.00000  Uiso   1.00
O442   O     0.20625   0.77322   0.24999   0.00000  Uiso   1.00
O443   O     0.14640   0.83334   0.17451   0.00000  Uiso   1.00
O444   O     0.22559   0.83335   0.17451   0.00000  Uiso   1.00
C445   C     0.16676   0.75401   0.24963   0.00000  Uiso   1.00
C446   C     0.19276   0.82961   0.15014   0.00000  Uiso   1.00
C447   C     0.26506   0.80039   0.01142   0.00000  Uiso   1.00
H448   H     0.27129   0.77674   0.41533   0.00000  Uiso   1.00
H449   H     0.30139   0.79038   0.48894   0.00000  Uiso   1.00
C450   C     0.20705   0.82006   0.09386   0.00000  Uiso   1.00
C451   C     0.08043   0.84987   0.43299   0.00000  Uiso   1.00
C452   C     0.06944   0.85916   0.48525   0.00000  Uiso   1.00
C453   C     0.10247   0.84940   0.01251   0.00000  Uiso   1.00
C454   C     0.14595   0.82714   0.48885   0.00000  Uiso   1.00
C455   C     0.15698   0.81737   0.43553   0.00000  Uiso   1.00
C456   C     0.18066   0.81698   0.01560   0.00000  Uiso   1.00
C457   C     0.22793   0.80340   0.48740   0.00000  Uiso   1.00
C458   C     0.23669   0.79084   0.43622   0.00000  Uiso   1.00
C459   C     0.20026   0.79510   0.41195   0.00000  Uiso   1.00
C460   C     0.16901   0.81765   0.06982   0.00000  Uiso   1.00
C461   C     0.25607   0.81049   0.06388   0.00000  Uiso   1.00
C462   C     0.12509   0.83097   0.40706   0.00000  Uiso   1.00
H463   H     0.05538   0.86010   0.41207   0.00000  Uiso   1.00
H464   H     0.09417   0.86129   0.05137   0.00000  Uiso   1.00
H465   H     0.03612   0.87579   0.00421   0.00000  Uiso   1.00
H466   H     0.20688   0.78131   0.37429   0.00000  Uiso   1.00
C467   C     0.20883   0.97873   0.25155   0.00000  Uiso   1.00
H468   H     0.24146   0.96270   0.25388   0.00000  Uiso   1.00
C469   C     0.20885   0.68797   0.25149   0.00000  Uiso   1.00
H470   H     0.24148   0.70399   0.25379   0.00000  Uiso   1.00
C471   C     0.16699   0.70943   0.24889   0.00000  Uiso   1.00
C472   C     0.12532   0.68801   0.24569   0.00000  Uiso   1.00
H473   H     0.09275   0.70407   0.24322   0.00000  Uiso   1.00
C474   C     0.12529   0.97876   0.24579   0.00000  Uiso   1.00
H475   H     0.09269   0.96275   0.24342   0.00000  Uiso   1.00
C476   C     0.16696   0.95729   0.24900   0.00000  Uiso   1.00
C477   C     0.31676   0.86107   0.22041   0.00000  Uiso   1.00
H478   H     0.30462   0.88324   0.19671   0.00000  Uiso   1.00
C479   C     0.03311   0.86100   0.22032   0.00000  Uiso   1.00
H480   H     0.05850   0.88313   0.19655   0.00000  Uiso   1.00
N481   N     0.04931   0.83332   0.24998   0.00000  Uiso   1.00
C482   C     0.01669   0.80539   0.27921   0.00000  Uiso   1.00
H483   H     0.02889   0.78304   0.30265   0.00000  Uiso   1.00
C484   C     0.30048   0.80524   0.27894   0.00000  Uiso   1.00
H485   H     0.27553   0.78246   0.30167   0.00000  Uiso   1.00
N486   N     0.28402   0.83335   0.25000   0.00000  Uiso   1.00
C487   C     0.29896   0.80718   0.08622   0.00000  Uiso   1.00
C488   C     0.29655   0.76745   0.11770   0.00000  Uiso   1.00
H489   H     0.32452   0.76853   0.13887   0.00000  Uiso   1.00
H490   H     0.25995   0.76291   0.14633   0.00000  Uiso   1.00
H491   H     0.30426   0.74061   0.09126   0.00000  Uiso   1.00
H492   H     0.00093   0.80678   0.05460   0.00000  Uiso   1.00
H493   H     0.30152   0.83474   0.10926   0.00000  Uiso   1.00
O494   O     0.12035   0.81227   0.09905   0.00000  Uiso   1.00
C495   C     0.11175   0.77062   0.11541   0.00000  Uiso   1.00
H496   H     0.07958   0.77017   0.15080   0.00000  Uiso   1.00
H497   H     0.14280   0.75668   0.12696   0.00000  Uiso   1.00
C498   C     0.09974   0.74435   0.07373   0.00000  Uiso   1.00
H499   H     0.07065   0.75958   0.06044   0.00000  Uiso   1.00
H500   H     0.13298   0.74121   0.03983   0.00000  Uiso   1.00
C501   C     0.08234   0.70142   0.09453   0.00000  Uiso   1.00
H502   H     0.11130   0.68546   0.10732   0.00000  Uiso   1.00
H503   H     0.07423   0.68307   0.06347   0.00000  Uiso   1.00
H504   H     0.04839   0.70342   0.12780   0.00000  Uiso   1.00
O505   O     0.46042   0.89345   0.25000   0.00000  Uiso   1.00
O506   O     0.53961   0.89346   0.25000   0.00000  Uiso   1.00
C507   C     0.50010   0.91267   0.24967   0.00000  Uiso   1.00
O508   O     0.44108   0.83332   0.32549   0.00000  Uiso   1.00
O509   O     0.52027   0.83333   0.32549   0.00000  Uiso   1.00
C510   C     0.47390   0.83135   0.34998   0.00000  Uiso   1.00
Cu511  Cu    0.45311   0.83333   0.25000   0.00000  Uiso   1.00
Cu512  Cu    0.54689   0.83334   0.25000   0.00000  Uiso   1.00
O513   O     0.46039   0.77321   0.24999   0.00000  Uiso   1.00
O514   O     0.53958   0.77322   0.24999   0.00000  Uiso   1.00
O515   O     0.47973   0.83334   0.17451   0.00000  Uiso   1.00
O516   O     0.55892   0.83335   0.17451   0.00000  Uiso   1.00
C517   C     0.50009   0.75401   0.24963   0.00000  Uiso   1.00
C518   C     0.52609   0.82961   0.15014   0.00000  Uiso   1.00
C519   C     0.59839   0.80039   0.01142   0.00000  Uiso   1.00
H520   H     0.60462   0.77674   0.41533   0.00000  Uiso   1.00
H521   H     0.63472   0.79038   0.48894   0.00000  Uiso   1.00
C522   C     0.54038   0.82006   0.09386   0.00000  Uiso   1.00
C523   C     0.41377   0.84987   0.43299   0.00000  Uiso   1.00
C524   C     0.40278   0.85916   0.48525   0.00000  Uiso   1.00
C525   C     0.43580   0.84940   0.01251   0.00000  Uiso   1.00
C526   C     0.47928   0.82714   0.48885   0.00000  Uiso   1.00
C527   C     0.49032   0.81737   0.43553   0.00000  Uiso   1.00
C528   C     0.51399   0.81698   0.01560   0.00000  Uiso   1.00
C529   C     0.56127   0.80340   0.48740   0.00000  Uiso   1.00
C530   C     0.57002   0.79084   0.43622   0.00000  Uiso   1.00
C531   C     0.53359   0.79510   0.41195   0.00000  Uiso   1.00
C532   C     0.50235   0.81765   0.06982   0.00000  Uiso   1.00
C533   C     0.58941   0.81049   0.06388   0.00000  Uiso   1.00
C534   C     0.45843   0.83097   0.40706   0.00000  Uiso   1.00
H535   H     0.38871   0.86010   0.41207   0.00000  Uiso   1.00
H536   H     0.42750   0.86129   0.05137   0.00000  Uiso   1.00
H537   H     0.36946   0.87579   0.00421   0.00000  Uiso   1.00
H538   H     0.54021   0.78131   0.37429   0.00000  Uiso   1.00
C539   C     0.54216   0.97873   0.25155   0.00000  Uiso   1.00
H540   H     0.57479   0.96270   0.25388   0.00000  Uiso   1.00
C541   C     0.54218   0.68797   0.25149   0.00000  Uiso   1.00
H542   H     0.57481   0.70399   0.25379   0.00000  Uiso   1.00
C543   C     0.50032   0.70943   0.24889   0.00000  Uiso   1.00
C544   C     0.45865   0.68801   0.24569   0.00000  Uiso   1.00
H545   H     0.42608   0.70407   0.24322   0.00000  Uiso   1.00
C546   C     0.45862   0.97876   0.24579   0.00000  Uiso   1.00
H547   H     0.42602   0.96275   0.24342   0.00000  Uiso   1.00
C548   C     0.50029   0.95729   0.24900   0.00000  Uiso   1.00
C549   C     0.65009   0.86107   0.22041   0.00000  Uiso   1.00
H550   H     0.63795   0.88324   0.19671   0.00000  Uiso   1.00
C551   C     0.36644   0.86100   0.22032   0.00000  Uiso   1.00
H552   H     0.39183   0.88313   0.19655   0.00000  Uiso   1.00
N553   N     0.38265   0.83332   0.24998   0.00000  Uiso   1.00
C554   C     0.35002   0.80539   0.27921   0.00000  Uiso   1.00
H555   H     0.36222   0.78304   0.30265   0.00000  Uiso   1.00
C556   C     0.63381   0.80524   0.27894   0.00000  Uiso   1.00
H557   H     0.60886   0.78246   0.30167   0.00000  Uiso   1.00
N558   N     0.61735   0.83335   0.25000   0.00000  Uiso   1.00
C559   C     0.63230   0.80718   0.08622   0.00000  Uiso   1.00
C560   C     0.62988   0.76745   0.11770   0.00000  Uiso   1.00
H561   H     0.65785   0.76853   0.13887   0.00000  Uiso   1.00
H562   H     0.59328   0.76291   0.14633   0.00000  Uiso   1.00
H563   H     0.63760   0.74061   0.09126   0.00000  Uiso   1.00
H564   H     0.33426   0.80678   0.05460   0.00000  Uiso   1.00
H565   H     0.63486   0.83474   0.10926   0.00000  Uiso   1.00
O566   O     0.45368   0.81227   0.09905   0.00000  Uiso   1.00
C567   C     0.44509   0.77062   0.11541   0.00000  Uiso   1.00
H568   H     0.41292   0.77017   0.15080   0.00000  Uiso   1.00
H569   H     0.47613   0.75668   0.12696   0.00000  Uiso   1.00
C570   C     0.43308   0.74435   0.07373   0.00000  Uiso   1.00
H571   H     0.40399   0.75958   0.06044   0.00000  Uiso   1.00
H572   H     0.46631   0.74121   0.03983   0.00000  Uiso   1.00
C573   C     0.41567   0.70142   0.09453   0.00000  Uiso   1.00
H574   H     0.44463   0.68546   0.10732   0.00000  Uiso   1.00
H575   H     0.40756   0.68307   0.06347   0.00000  Uiso   1.00
H576   H     0.38172   0.70342   0.12780   0.00000  Uiso   1.00
O577   O     0.79375   0.89345   0.25000   0.00000  Uiso   1.00
O578   O     0.87294   0.89346   0.25000   0.00000  Uiso   1.00
C579   C     0.83343   0.91267   0.24967   0.00000  Uiso   1.00
O580   O     0.77441   0.83332   0.32549   0.00000  Uiso   1.00
O581   O     0.85360   0.83333   0.32549   0.00000  Uiso   1.00
C582   C     0.80723   0.83135   0.34998   0.00000  Uiso   1.00
Cu583  Cu    0.78645   0.83333   0.25000   0.00000  Uiso   1.00
Cu584  Cu    0.88022   0.83334   0.25000   0.00000  Uiso   1.00
O585   O     0.79373   0.77321   0.24999   0.00000  Uiso   1.00
O586   O     0.87292   0.77322   0.24999   0.00000  Uiso   1.00
O587   O     0.81306   0.83334   0.17451   0.00000  Uiso   1.00
O588   O     0.89225   0.83335   0.17451   0.00000  Uiso   1.00
C589   C     0.83343   0.75401   0.24963   0.00000  Uiso   1.00
C590   C     0.85942   0.82961   0.15014   0.00000  Uiso   1.00
C591   C     0.93173   0.80039   0.01142   0.00000  Uiso   1.00
H592   H     0.93796   0.77674   0.41533   0.00000  Uiso   1.00
H593   H     0.96805   0.79038   0.48894   0.00000  Uiso   1.00
C594   C     0.87371   0.82006   0.09386   0.00000  Uiso   1.00
C595   C     0.74710   0.84987   0.43299   0.00000  Uiso   1.00
C596   C     0.73611   0.85916   0.48525   0.00000  Uiso   1.00
C597   C     0.76914   0.84940   0.01251   0.00000  Uiso   1.00
C598   C     0.81262   0.82714   0.48885   0.00000  Uiso   1.00
C599   C     0.82365   0.81737   0.43553   0.00000  Uiso   1.00
C600   C     0.84732   0.81698   0.01560   0.00000  Uiso   1.00
C601   C     0.89460   0.80340   0.48740   0.00000  Uiso   1.00
C602   C     0.90336   0.79084   0.43622   0.00000  Uiso   1.00
C603   C     0.86692   0.79510   0.41195   0.00000  Uiso   1.00
C604   C     0.83568   0.81765   0.06982   0.00000  Uiso   1.00
C605   C     0.92274   0.81049   0.06388   0.00000  Uiso   1.00
C606   C     0.79176   0.83097   0.40706   0.00000  Uiso   1.00
H607   H     0.72204   0.86010   0.41207   0.00000  Uiso   1.00
H608   H     0.76083   0.86129   0.05137   0.00000  Uiso   1.00
H609   H     0.70279   0.87579   0.00421   0.00000  Uiso   1.00
H610   H     0.87354   0.78131   0.37429   0.00000  Uiso   1.00
C611   C     0.87550   0.97873   0.25155   0.00000  Uiso   1.00
H612   H     0.90813   0.96270   0.25388   0.00000  Uiso   1.00
C613   C     0.87551   0.68797   0.25149   0.00000  Uiso   1.00
H614   H     0.90815   0.70399   0.25379   0.00000  Uiso   1.00
C615   C     0.83365   0.70943   0.24889   0.00000  Uiso   1.00
C616   C     0.79199   0.68801   0.24569   0.00000  Uiso   1.00
H617   H     0.75941   0.70407   0.24322   0.00000  Uiso   1.00
C618   C     0.79196   0.97876   0.24579   0.00000  Uiso   1.00
H619   H     0.75936   0.96275   0.24342   0.00000  Uiso   1.00
C620   C     0.83362   0.95729   0.24900   0.00000  Uiso   1.00
C621   C     0.98342   0.86107   0.22041   0.00000  Uiso   1.00
H622   H     0.97128   0.88324   0.19671   0.00000  Uiso   1.00
C623   C     0.69978   0.86100   0.22032   0.00000  Uiso   1.00
H624   H     0.72517   0.88313   0.19655   0.00000  Uiso   1.00
N625   N     0.71598   0.83332   0.24998   0.00000  Uiso   1.00
C626   C     0.68336   0.80539   0.27921   0.00000  Uiso   1.00
H627   H     0.69556   0.78304   0.30265   0.00000  Uiso   1.00
C628   C     0.96715   0.80524   0.27894   0.00000  Uiso   1.00
H629   H     0.94219   0.78246   0.30167   0.00000  Uiso   1.00
N630   N     0.95069   0.83335   0.25000   0.00000  Uiso   1.00
C631   C     0.96563   0.80718   0.08622   0.00000  Uiso   1.00
C632   C     0.96321   0.76745   0.11770   0.00000  Uiso   1.00
H633   H     0.99119   0.76853   0.13887   0.00000  Uiso   1.00
H634   H     0.92662   0.76291   0.14633   0.00000  Uiso   1.00
H635   H     0.97093   0.74061   0.09126   0.00000  Uiso   1.00
H636   H     0.66759   0.80678   0.05460   0.00000  Uiso   1.00
H637   H     0.96819   0.83474   0.10926   0.00000  Uiso   1.00
O638   O     0.78701   0.81227   0.09905   0.00000  Uiso   1.00
C639   C     0.77842   0.77062   0.11541   0.00000  Uiso   1.00
H640   H     0.74625   0.77017   0.15080   0.00000  Uiso   1.00
H641   H     0.80947   0.75668   0.12696   0.00000  Uiso   1.00
C642   C     0.76641   0.74435   0.07373   0.00000  Uiso   1.00
H643   H     0.73732   0.75958   0.06044   0.00000  Uiso   1.00
H644   H     0.79964   0.74121   0.03983   0.00000  Uiso   1.00
C645   C     0.74901   0.70142   0.09453   0.00000  Uiso   1.00
H646   H     0.77797   0.68546   0.10732   0.00000  Uiso   1.00
H647   H     0.74090   0.68307   0.06347   0.00000  Uiso   1.00
H648   H     0.71505   0.70342   0.12780   0.00000  Uiso   1.00
O649   O     0.12708   0.22678   0.75000   0.00000  Uiso   1.00
O650   O     0.20627   0.22679   0.75000   0.00000  Uiso   1.00
C651   C     0.16677   0.24600   0.74967   0.00000  Uiso   1.00
O652   O     0.10775   0.16665   0.82549   0.00000  Uiso   1.00
O653   O     0.18694   0.16666   0.82549   0.00000  Uiso   1.00
C654   C     0.14056   0.16468   0.84998   0.00000  Uiso   1.00
Cu655  Cu    0.11978   0.16666   0.75000   0.00000  Uiso   1.00
Cu656  Cu    0.21355   0.16667   0.75000   0.00000  Uiso   1.00
O657   O     0.12706   0.10654   0.74999   0.00000  Uiso   1.00
O658   O     0.20625   0.10655   0.74999   0.00000  Uiso   1.00
O659   O     0.14640   0.16667   0.67451   0.00000  Uiso   1.00
O660   O     0.22559   0.16668   0.67451   0.00000  Uiso   1.00
C661   C     0.16676   0.08735   0.74963   0.00000  Uiso   1.00
C662   C     0.19276   0.16295   0.65014   0.00000  Uiso   1.00
C663   C     0.26506   0.13373   0.51142   0.00000  Uiso   1.00
H664   H     0.27129   0.11007   0.91533   0.00000  Uiso   1.00
H665   H     0.30139   0.12371   0.98894   0.00000  Uiso   1.00
C666   C     0.20705   0.15339   0.59386   0.00000  Uiso   1.00
C667   C     0.08043   0.18320   0.93299   0.00000  Uiso   1.00
C668   C     0.06944   0.19249   0.98525   0.00000  Uiso   1.00
C669   C     0.10247   0.18274   0.51251   0.00000  Uiso   1.00
C670   C     0.14595   0.16047   0.98885   0.00000  Uiso   1.00
C671   C     0.15698   0.15070   0.93553   0.00000  Uiso   1.00
C672   C     0.18066   0.15031   0.51560   0.00000  Uiso   1.00
C673   C     0.22793   0.13673   0.98740   0.00000  Uiso   1.00
C674   C     0.23669   0.12417   0.93622   0.00000  Uiso   1.00
C675   C     0.20026   0.12843   0.91195   0.00000  Uiso   1.00
C676   C     0.16901   0.15098   0.56982   0.00000  Uiso   1.00
C677   C     0.25607   0.14382   0.56388   0.00000  Uiso   1.00
C678   C     0.12509   0.16430   0.90706   0.00000  Uiso   1.00
H679   H     0.05538   0.19344   0.91207   0.00000  Uiso   1.00
H680   H     0.09417   0.19463   0.55137   0.00000  Uiso   1.00
H681   H     0.03612   0.20912   0.50421   0.00000  Uiso   1.00
H682   H     0.20688   0.11464   0.87429   0.00000  Uiso   1.00
C683   C     0.20883   0.31206   0.75155   0.00000  Uiso   1.00
H684   H     0.24146   0.29603   0.75388   0.00000  Uiso   1.00
C685   C     0.20885   0.02131   0.75149   0.00000  Uiso   1.00
H686   H     0.24148   0.03732   0.75379   0.00000  Uiso   1.00
C687   C     0.16699   0.04277   0.74889   0.00000  Uiso   1.00
C688   C     0.12532   0.02135   0.74569   0.00000  Uiso   1.00
H689   H     0.09275   0.03740   0.74322   0.00000  Uiso   1.00
C690   C     0.12529   0.31210   0.74579   0.00000  Uiso   1.00
H691   H     0.09269   0.29608   0.74342   0.00000  Uiso   1.00
C692   C     0.16696   0.29062   0.74900   0.00000  Uiso   1.00
C693   C     0.31676   0.19441   0.72041   0.00000  Uiso   1.00
H694   H     0.30462   0.21657   0.69671   0.00000  Uiso   1.00
C695   C     0.03311   0.19434   0.72032   0.00000  Uiso   1.00
H696   H     0.05850   0.21646   0.69655   0.00000  Uiso   1.00
N697   N     0.04931   0.16666   0.74998   0.00000  Uiso   1.00
C698   C     0.01669   0.13873   0.77921   0.00000  Uiso   1.00
H699   H     0.02889   0.11638   0.80265   0.00000  Uiso   1.00
C700   C     0.30048   0.13858   0.77894   0.00000  Uiso   1.00
H701   H     0.27553   0.11579   0.80167   0.00000  Uiso   1.00
N702   N     0.28402   0.16669   0.75000   0.00000  Uiso   1.00
C703   C     0.29896   0.14052   0.58622   0.00000  Uiso   1.00
C704   C     0.29655   0.10078   0.61770   0.00000  Uiso   1.00
H705   H     0.32452   0.10186   0.63887   0.00000  Uiso   1.00
H706   H     0.25995   0.09624   0.64633   0.00000  Uiso   1.00
H707   H     0.30426   0.07394   0.59126   0.00000  Uiso   1.00
H708   H     0.00093   0.14011   0.55460   0.00000  Uiso   1.00
H709   H     0.30152   0.16807   0.60926   0.00000  Uiso   1.00
O710   O     0.12035   0.14560   0.59905   0.00000  Uiso   1.00
C711   C     0.11175   0.10395   0.61541   0.00000  Uiso   1.00
H712   H     0.07958   0.10351   0.65080   0.00000  Uiso   1.00
H713   H     0.14280   0.09002   0.62696   0.00000  Uiso   1.00
C714   C     0.09974   0.07768   0.57373   0.00000  Uiso   1.00
H715   H     0.07065   0.09291   0.56044   0.00000  Uiso   1.00
H716   H     0.13298   0.07454   0.53983   0.00000  Uiso   1.00
C717   C     0.08234   0.03476   0.59453   0.00000  Uiso   1.00
H718   H     0.11130   0.01879   0.60732   0.00000  Uiso   1.00
H719   H     0.07423   0.01640   0.56347   0.00000  Uiso   1.00
H720   H     0.04839   0.03676   0.62780   0.00000  Uiso   1.00
O721   O     0.46042   0.22678   0.75000   0.00000  Uiso   1.00
O722   O     0.53961   0.22679   0.75000   0.00000  Uiso   1.00
C723   C     0.50010   0.24600   0.74967   0.00000  Uiso   1.00
O724   O     0.44108   0.16665   0.82549   0.00000  Uiso   1.00
O725   O     0.52027   0.16666   0.82549   0.00000  Uiso   1.00
C726   C     0.47390   0.16468   0.84998   0.00000  Uiso   1.00
Cu727  Cu    0.45311   0.16666   0.75000   0.00000  Uiso   1.00
Cu728  Cu    0.54689   0.16667   0.75000   0.00000  Uiso   1.00
O729   O     0.46039   0.10654   0.74999   0.00000  Uiso   1.00
O730   O     0.53958   0.10655   0.74999   0.00000  Uiso   1.00
O731   O     0.47973   0.16667   0.67451   0.00000  Uiso   1.00
O732   O     0.55892   0.16668   0.67451   0.00000  Uiso   1.00
C733   C     0.50009   0.08735   0.74963   0.00000  Uiso   1.00
C734   C     0.52609   0.16295   0.65014   0.00000  Uiso   1.00
C735   C     0.59839   0.13373   0.51142   0.00000  Uiso   1.00
H736   H     0.60462   0.11007   0.91533   0.00000  Uiso   1.00
H737   H     0.63472   0.12371   0.98894   0.00000  Uiso   1.00
C738   C     0.54038   0.15339   0.59386   0.00000  Uiso   1.00
C739   C     0.41377   0.18320   0.93299   0.00000  Uiso   1.00
C740   C     0.40278   0.19249   0.98525   0.00000  Uiso   1.00
C741   C     0.43580   0.18274   0.51251   0.00000  Uiso   1.00
C742   C     0.47928   0.16047   0.98885   0.00000  Uiso   1.00
C743   C     0.49032   0.15070   0.93553   0.00000  Uiso   1.00
C744   C     0.51399   0.15031   0.51560   0.00000  Uiso   1.00
C745   C     0.56127   0.13673   0.98740   0.00000  Uiso   1.00
C746   C     0.57002   0.12417   0.93622   0.00000  Uiso   1.00
C747   C     0.53359   0.12843   0.91195   0.00000  Uiso   1.00
C748   C     0.50235   0.15098   0.56982   0.00000  Uiso   1.00
C749   C     0.58941   0.14382   0.56388   0.00000  Uiso   1.00
C750   C     0.45843   0.16430   0.90706   0.00000  Uiso   1.00
H751   H     0.38871   0.19344   0.91207   0.00000  Uiso   1.00
H752   H     0.42750   0.19463   0.55137   0.00000  Uiso   1.00
H753   H     0.36946   0.20912   0.50421   0.00000  Uiso   1.00
H754   H     0.54021   0.11464   0.87429   0.00000  Uiso   1.00
C755   C     0.54216   0.31206   0.75155   0.00000  Uiso   1.00
H756   H     0.57479   0.29603   0.75388   0.00000  Uiso   1.00
C757   C     0.54218   0.02131   0.75149   0.00000  Uiso   1.00
H758   H     0.57481   0.03732   0.75379   0.00000  Uiso   1.00
C759   C     0.50032   0.04277   0.74889   0.00000  Uiso   1.00
C760   C     0.45865   0.02135   0.74569   0.00000  Uiso   1.00
H761   H     0.42608   0.03740   0.74322   0.00000  Uiso   1.00
C762   C     0.45862   0.31210   0.74579   0.00000  Uiso   1.00
H763   H     0.42602   0.29608   0.74342   0.00000  Uiso   1.00
C764   C     0.50029   0.29062   0.74900   0.00000  Uiso   1.00
C765   C     0.65009   0.19441   0.72041   0.00000  Uiso   1.00
H766   H     0.63795   0.21657   0.69671   0.00000  Uiso   1.00
C767   C     0.36644   0.19434   0.72032   0.00000  Uiso   1.00
H768   H     0.39183   0.21646   0.69655   0.00000  Uiso   1.00
N769   N     0.38265   0.16666   0.74998   0.00000  Uiso   1.00
C770   C     0.35002   0.13873   0.77921   0.00000  Uiso   1.00
H771   H     0.36222   0.11638   0.80265   0.00000  Uiso   1.00
C772   C     0.63381   0.13858   0.77894   0.00000  Uiso   1.00
H773   H     0.60886   0.11579   0.80167   0.00000  Uiso   1.00
N774   N     0.61735   0.16669   0.75000   0.00000  Uiso   1.00
C775   C     0.63230   0.14052   0.58622   0.00000  Uiso   1.00
C776   C     0.62988   0.10078   0.61770   0.00000  Uiso   1.00
H777   H     0.65785   0.10186   0.63887   0.00000  Uiso   1.00
H778   H     0.59328   0.09624   0.64633   0.00000  Uiso   1.00
H779   H     0.63760   0.07394   0.59126   0.00000  Uiso   1.00
H780   H     0.33426   0.14011   0.55460   0.00000  Uiso   1.00
H781   H     0.63486   0.16807   0.60926   0.00000  Uiso   1.00
O782   O     0.45368   0.14560   0.59905   0.00000  Uiso   1.00
C783   C     0.44509   0.10395   0.61541   0.00000  Uiso   1.00
H784   H     0.41292   0.10351   0.65080   0.00000  Uiso   1.00
H785   H     0.47613   0.09002   0.62696   0.00000  Uiso   1.00
C786   C     0.43308   0.07768   0.57373   0.00000  Uiso   1.00
H787   H     0.40399   0.09291   0.56044   0.00000  Uiso   1.00
H788   H     0.46631   0.07454   0.53983   0.00000  Uiso   1.00
C789   C     0.41567   0.03476   0.59453   0.00000  Uiso   1.00
H790   H     0.44463   0.01879   0.60732   0.00000  Uiso   1.00
H791   H     0.40756   0.01640   0.56347   0.00000  Uiso   1.00
H792   H     0.38172   0.03676   0.62780   0.00000  Uiso   1.00
O793   O     0.79375   0.22678   0.75000   0.00000  Uiso   1.00
O794   O     0.87294   0.22679   0.75000   0.00000  Uiso   1.00
C795   C     0.83343   0.24600   0.74967   0.00000  Uiso   1.00
O796   O     0.77441   0.16665   0.82549   0.00000  Uiso   1.00
O797   O     0.85360   0.16666   0.82549   0.00000  Uiso   1.00
C798   C     0.80723   0.16468   0.84998   0.00000  Uiso   1.00
Cu799  Cu    0.78645   0.16666   0.75000   0.00000  Uiso   1.00
Cu800  Cu    0.88022   0.16667   0.75000   0.00000  Uiso   1.00
O801   O     0.79373   0.10654   0.74999   0.00000  Uiso   1.00
O802   O     0.87292   0.10655   0.74999   0.00000  Uiso   1.00
O803   O     0.81306   0.16667   0.67451   0.00000  Uiso   1.00
O804   O     0.89225   0.16668   0.67451   0.00000  Uiso   1.00
C805   C     0.83343   0.08735   0.74963   0.00000  Uiso   1.00
C806   C     0.85942   0.16295   0.65014   0.00000  Uiso   1.00
C807   C     0.93173   0.13373   0.51142   0.00000  Uiso   1.00
H808   H     0.93796   0.11007   0.91533   0.00000  Uiso   1.00
H809   H     0.96805   0.12371   0.98894   0.00000  Uiso   1.00
C810   C     0.87371   0.15339   0.59386   0.00000  Uiso   1.00
C811   C     0.74710   0.18320   0.93299   0.00000  Uiso   1.00
C812   C     0.73611   0.19249   0.98525   0.00000  Uiso   1.00
C813   C     0.76914   0.18274   0.51251   0.00000  Uiso   1.00
C814   C     0.81262   0.16047   0.98885   0.00000  Uiso   1.00
C815   C     0.82365   0.15070   0.93553   0.00000  Uiso   1.00
C816   C     0.84732   0.15031   0.51560   0.00000  Uiso   1.00
C817   C     0.89460   0.13673   0.98740   0.00000  Uiso   1.00
C818   C     0.90336   0.12417   0.93622   0.00000  Uiso   1.00
C819   C     0.86692   0.12843   0.91195   0.00000  Uiso   1.00
C820   C     0.83568   0.15098   0.56982   0.00000  Uiso   1.00
C821   C     0.92274   0.14382   0.56388   0.00000  Uiso   1.00
C822   C     0.79176   0.16430   0.90706   0.00000  Uiso   1.00
H823   H     0.72204   0.19344   0.91207   0.00000  Uiso   1.00
H824   H     0.76083   0.19463   0.55137   0.00000  Uiso   1.00
H825   H     0.70279   0.20912   0.50421   0.00000  Uiso   1.00
H826   H     0.87354   0.11464   0.87429   0.00000  Uiso   1.00
C827   C     0.87550   0.31206   0.75155   0.00000  Uiso   1.00
H828   H     0.90813   0.29603   0.75388   0.00000  Uiso   1.00
C829   C     0.87551   0.02131   0.75149   0.00000  Uiso   1.00
H830   H     0.90815   0.03732   0.75379   0.00000  Uiso   1.00
C831   C     0.83365   0.04277   0.74889   0.00000  Uiso   1.00
C832   C     0.79199   0.02135   0.74569   0.00000  Uiso   1.00
H833   H     0.75941   0.03740   0.74322   0.00000  Uiso   1.00
C834   C     0.79196   0.31210   0.74579   0.00000  Uiso   1.00
H835   H     0.75936   0.29608   0.74342   0.00000  Uiso   1.00
C836   C     0.83362   0.29062   0.74900   0.00000  Uiso   1.00
C837   C     0.98342   0.19441   0.72041   0.00000  Uiso   1.00
H838   H     0.97128   0.21657   0.69671   0.00000  Uiso   1.00
C839   C     0.69978   0.19434   0.72032   0.00000  Uiso   1.00
H840   H     0.72517   0.21646   0.69655   0.00000  Uiso   1.00
N841   N     0.71598   0.16666   0.74998   0.00000  Uiso   1.00
C842   C     0.68336   0.13873   0.77921   0.00000  Uiso   1.00
H843   H     0.69556   0.11638   0.80265   0.00000  Uiso   1.00
C844   C     0.96715   0.13858   0.77894   0.00000  Uiso   1.00
H845   H     0.94219   0.11579   0.80167   0.00000  Uiso   1.00
N846   N     0.95069   0.16669   0.75000   0.00000  Uiso   1.00
C847   C     0.96563   0.14052   0.58622   0.00000  Uiso   1.00
C848   C     0.96321   0.10078   0.61770   0.00000  Uiso   1.00
H849   H     0.99119   0.10186   0.63887   0.00000  Uiso   1.00
H850   H     0.92662   0.09624   0.64633   0.00000  Uiso   1.00
H851   H     0.97093   0.07394   0.59126   0.00000  Uiso   1.00
H852   H     0.66759   0.14011   0.55460   0.00000  Uiso   1.00
H853   H     0.96819   0.16807   0.60926   0.00000  Uiso   1.00
O854   O     0.78701   0.14560   0.59905   0.00000  Uiso   1.00
C855   C     0.77842   0.10395   0.61541   0.00000  Uiso   1.00
H856   H     0.74625   0.10351   0.65080   0.00000  Uiso   1.00
H857   H     0.80947   0.09002   0.62696   0.00000  Uiso   1.00
C858   C     0.76641   0.07768   0.57373   0.00000  Uiso   1.00
H859   H     0.73732   0.09291   0.56044   0.00000  Uiso   1.00
H860   H     0.79964   0.07454   0.53983   0.00000  Uiso   1.00
C861   C     0.74901   0.03476   0.59453   0.00000  Uiso   1.00
H862   H     0.77797   0.01879   0.60732   0.00000  Uiso   1.00
H863   H     0.74090   0.01640   0.56347   0.00000  Uiso   1.00
H864   H     0.71505   0.03676   0.62780   0.00000  Uiso   1.00
O865   O     0.12708   0.56011   0.75000   0.00000  Uiso   1.00
O866   O     0.20627   0.56012   0.75000   0.00000  Uiso   1.00
C867   C     0.16677   0.57933   0.74967   0.00000  Uiso   1.00
O868   O     0.10775   0.49998   0.82549   0.00000  Uiso   1.00
O869   O     0.18694   0.49999   0.82549   0.00000  Uiso   1.00
C870   C     0.14056   0.49802   0.84998   0.00000  Uiso   1.00
Cu871  Cu    0.11978   0.49999   0.75000   0.00000  Uiso   1.00
Cu872  Cu    0.21355   0.50001   0.75000   0.00000  Uiso   1.00
O873   O     0.12706   0.43988   0.74999   0.00000  Uiso   1.00
O874   O     0.20625   0.43989   0.74999   0.00000  Uiso   1.00
O875   O     0.14640   0.50001   0.67451   0.00000  Uiso   1.00
O876   O     0.22559   0.50002   0.67451   0.00000  Uiso   1.00
C877   C     0.16676   0.42068   0.74963   0.00000  Uiso   1.00
C878   C     0.19276   0.49628   0.65014   0.00000  Uiso   1.00
C879   C     0.26506   0.46706   0.51142   0.00000  Uiso   1.00
H880   H     0.27129   0.44340   0.91533   0.00000  Uiso   1.00
H881   H     0.30139   0.45705   0.98894   0.00000  Uiso   1.00
C882   C     0.20705   0.48673   0.59386   0.00000  Uiso   1.00
C883   C     0.08043   0.51653   0.93299   0.00000  Uiso   1.00
C884   C     0.06944   0.52582   0.98525   0.00000  Uiso   1.00
C885   C     0.10247   0.51607   0.51251   0.00000  Uiso   1.00
C886   C     0.14595   0.49381   0.98885   0.00000  Uiso   1.00
C887   C     0.15698   0.48403   0.93553   0.00000  Uiso   1.00
C888   C     0.18066   0.48365   0.51560   0.00000  Uiso   1.00
C889   C     0.22793   0.47007   0.98740   0.00000  Uiso   1.00
C890   C     0.23669   0.45750   0.93622   0.00000  Uiso   1.00
C891   C     0.20026   0.46176   0.91195   0.00000  Uiso   1.00
C892   C     0.16901   0.48432   0.56982   0.00000  Uiso   1.00
C893   C     0.25607   0.47715   0.56388   0.00000  Uiso   1.00
C894   C     0.12509   0.49763   0.90706   0.00000  Uiso   1.00
H895   H     0.05538   0.52677   0.91207   0.00000  Uiso   1.00
H896   H     0.09417   0.52796   0.55137   0.00000  Uiso   1.00
H897   H     0.03612   0.54246   0.50421   0.00000  Uiso   1.00
H898   H     0.20688   0.44798   0.87429   0.00000  Uiso   1.00
C899   C     0.20883   0.64540   0.75155   0.00000  Uiso   1.00
H900   H     0.24146   0.62936   0.75388   0.00000  Uiso   1.00
C901   C     0.20885   0.35464   0.75149   0.00000  Uiso   1.00
H902   H     0.24148   0.37065   0.75379   0.00000  Uiso   1.00
C903   C     0.16699   0.37610   0.74889   0.00000  Uiso   1.00
C904   C     0.12532   0.35468   0.74569   0.00000  Uiso   1.00
H905   H     0.09275   0.37074   0.74322   0.00000  Uiso   1.00
C906   C     0.12529   0.64543   0.74579   0.00000  Uiso   1.00
H907   H     0.09269   0.62942   0.74342   0.00000  Uiso   1.00
C908   C     0.16696   0.62396   0.74900   0.00000  Uiso   1.00
C909   C     0.31676   0.52774   0.72041   0.00000  Uiso   1.00
H910   H     0.30462   0.54991   0.69671   0.00000  Uiso   1.00
C911   C     0.03311   0.52767   0.72032   0.00000  Uiso   1.00
H912   H     0.05850   0.54980   0.69655   0.00000  Uiso   1.00
N913   N     0.04931   0.49999   0.74998   0.00000  Uiso   1.00
C914   C     0.01669   0.47206   0.77921   0.00000  Uiso   1.00
H915   H     0.02889   0.44971   0.80265   0.00000  Uiso   1.00
C916   C     0.30048   0.47191   0.77894   0.00000  Uiso   1.00
H917   H     0.27553   0.44912   0.80167   0.00000  Uiso   1.00
N918   N     0.28402   0.50002   0.75000   0.00000  Uiso   1.00
C919   C     0.29896   0.47385   0.58622   0.00000  Uiso   1.00
C920   C     0.29655   0.43412   0.61770   0.00000  Uiso   1.00
H921   H     0.32452   0.43519   0.63887   0.00000  Uiso   1.00
H922   H     0.25995   0.42957   0.64633   0.00000  Uiso   1.00
H923   H     0.30426   0.40728   0.59126   0.00000  Uiso   1.00
H924   H     0.00093   0.47344   0.55460   0.00000  Uiso   1.00
H925   H     0.30152   0.50141   0.60926   0.00000  Uiso   1.00
O926   O     0.12035   0.47894   0.59905   0.00000  Uiso   1.00
C927   C     0.11175   0.43729   0.61541   0.00000  Uiso   1.00
H928   H     0.07958   0.43684   0.65080   0.00000  Uiso   1.00
H929   H     0.14280   0.42335   0.62696   0.00000  Uiso   1.00
C930   C     0.09974   0.41101   0.57373   0.00000  Uiso   1.00
H931   H     0.07065   0.42625   0.56044   0.00000  Uiso   1.00
H932   H     0.13298   0.40787   0.53983   0.00000  Uiso   1.00
C933   C     0.08234   0.36809   0.59453   0.00000  Uiso   1.00
H934   H     0.11130   0.35212   0.60732   0.00000  Uiso   1.00
H935   H     0.07423   0.34973   0.56347   0.00000  Uiso   1.00
H936   H     0.04839   0.37009   0.62780   0.00000  Uiso   1.00
O937   O     0.46042   0.56011   0.75000   0.00000  Uiso   1.00
O938   O     0.53961   0.56012   0.75000   0.00000  Uiso   1.00
C939   C     0.50010   0.57933   0.74967   0.00000  Uiso   1.00
O940   O     0.44108   0.49998   0.82549   0.00000  Uiso   1.00
O941   O     0.52027   0.49999   0.82549   0.00000  Uiso   1.00
C942   C     0.47390   0.49802   0.84998   0.00000  Uiso   1.00
Cu943  Cu    0.45311   0.49999   0.75000   0.00000  Uiso   1.00
Cu944  Cu    0.54689   0.50001   0.75000   0.00000  Uiso   1.00
O945   O     0.46039   0.43988   0.74999   0.00000  Uiso   1.00
O946   O     0.53958   0.43989   0.74999   0.00000  Uiso   1.00
O947   O     0.47973   0.50001   0.67451   0.00000  Uiso   1.00
O948   O     0.55892   0.50002   0.67451   0.00000  Uiso   1.00
C949   C     0.50009   0.42068   0.74963   0.00000  Uiso   1.00
C950   C     0.52609   0.49628   0.65014   0.00000  Uiso   1.00
C951   C     0.59839   0.46706   0.51142   0.00000  Uiso   1.00
H952   H     0.60462   0.44340   0.91533   0.00000  Uiso   1.00
H953   H     0.63472   0.45705   0.98894   0.00000  Uiso   1.00
C954   C     0.54038   0.48673   0.59386   0.00000  Uiso   1.00
C955   C     0.41377   0.51653   0.93299   0.00000  Uiso   1.00
C956   C     0.40278   0.52582   0.98525   0.00000  Uiso   1.00
C957   C     0.43580   0.51607   0.51251   0.00000  Uiso   1.00
C958   C     0.47928   0.49381   0.98885   0.00000  Uiso   1.00
C959   C     0.49032   0.48403   0.93553   0.00000  Uiso   1.00
C960   C     0.51399   0.48365   0.51560   0.00000  Uiso   1.00
C961   C     0.56127   0.47007   0.98740   0.00000  Uiso   1.00
C962   C     0.57002   0.45750   0.93622   0.00000  Uiso   1.00
C963   C     0.53359   0.46176   0.91195   0.00000  Uiso   1.00
C964   C     0.50235   0.48432   0.56982   0.00000  Uiso   1.00
C965   C     0.58941   0.47715   0.56388   0.00000  Uiso   1.00
C966   C     0.45843   0.49763   0.90706   0.00000  Uiso   1.00
H967   H     0.38871   0.52677   0.91207   0.00000  Uiso   1.00
H968   H     0.42750   0.52796   0.55137   0.00000  Uiso   1.00
H969   H     0.36946   0.54246   0.50421   0.00000  Uiso   1.00
H970   H     0.54021   0.44798   0.87429   0.00000  Uiso   1.00
C971   C     0.54216   0.64540   0.75155   0.00000  Uiso   1.00
H972   H     0.57479   0.62936   0.75388   0.00000  Uiso   1.00
C973   C     0.54218   0.35464   0.75149   0.00000  Uiso   1.00
H974   H     0.57481   0.37065   0.75379   0.00000  Uiso   1.00
C975   C     0.50032   0.37610   0.74889   0.00000  Uiso   1.00
C976   C     0.45865   0.35468   0.74569   0.00000  Uiso   1.00
H977   H     0.42608   0.37074   0.74322   0.00000  Uiso   1.00
C978   C     0.45862   0.64543   0.74579   0.00000  Uiso   1.00
H979   H     0.42602   0.62942   0.74342   0.00000  Uiso   1.00
C980   C     0.50029   0.62396   0.74900   0.00000  Uiso   1.00
C981   C     0.65009   0.52774   0.72041   0.00000  Uiso   1.00
H982   H     0.63795   0.54991   0.69671   0.00000  Uiso   1.00
C983   C     0.36644   0.52767   0.72032   0.00000  Uiso   1.00
H984   H     0.39183   0.54980   0.69655   0.00000  Uiso   1.00
N985   N     0.38265   0.49999   0.74998   0.00000  Uiso   1.00
C986   C     0.35002   0.47206   0.77921   0.00000  Uiso   1.00
H987   H     0.36222   0.44971   0.80265   0.00000  Uiso   1.00
C988   C     0.63381   0.47191   0.77894   0.00000  Uiso   1.00
H989   H     0.60886   0.44912   0.80167   0.00000  Uiso   1.00
N990   N     0.61735   0.50002   0.75000   0.00000  Uiso   1.00
C991   C     0.63230   0.47385   0.58622   0.00000  Uiso   1.00
C992   C     0.62988   0.43412   0.61770   0.00000  Uiso   1.00
H993   H     0.65785   0.43519   0.63887   0.00000  Uiso   1.00
H994   H     0.59328   0.42957   0.64633   0.00000  Uiso   1.00
H995   H     0.63760   0.40728   0.59126   0.00000  Uiso   1.00
H996   H     0.33426   0.47344   0.55460   0.00000  Uiso   1.00
H997   H     0.63486   0.50141   0.60926   0.00000  Uiso   1.00
O998   O     0.45368   0.47894   0.59905   0.00000  Uiso   1.00
C999   C     0.44509   0.43729   0.61541   0.00000  Uiso   1.00
H1000  H     0.41292   0.43684   0.65080   0.00000  Uiso   1.00
H1001  H     0.47613   0.42335   0.62696   0.00000  Uiso   1.00
C1002  C     0.43308   0.41101   0.57373   0.00000  Uiso   1.00
H1003  H     0.40399   0.42625   0.56044   0.00000  Uiso   1.00
H1004  H     0.46631   0.40787   0.53983   0.00000  Uiso   1.00
C1005  C     0.41567   0.36809   0.59453   0.00000  Uiso   1.00
H1006  H     0.44463   0.35212   0.60732   0.00000  Uiso   1.00
H1007  H     0.40756   0.34973   0.56347   0.00000  Uiso   1.00
H1008  H     0.38172   0.37009   0.62780   0.00000  Uiso   1.00
O1009  O     0.79375   0.56011   0.75000   0.00000  Uiso   1.00
O1010  O     0.87294   0.56012   0.75000   0.00000  Uiso   1.00
C1011  C     0.83343   0.57933   0.74967   0.00000  Uiso   1.00
O1012  O     0.77441   0.49998   0.82549   0.00000  Uiso   1.00
O1013  O     0.85360   0.49999   0.82549   0.00000  Uiso   1.00
C1014  C     0.80723   0.49802   0.84998   0.00000  Uiso   1.00
Cu1015 Cu    0.78645   0.49999   0.75000   0.00000  Uiso   1.00
Cu1016 Cu    0.88022   0.50001   0.75000   0.00000  Uiso   1.00
O1017  O     0.79373   0.43988   0.74999   0.00000  Uiso   1.00
O1018  O     0.87292   0.43989   0.74999   0.00000  Uiso   1.00
O1019  O     0.81306   0.50001   0.67451   0.00000  Uiso   1.00
O1020  O     0.89225   0.50002   0.67451   0.00000  Uiso   1.00
C1021  C     0.83343   0.42068   0.74963   0.00000  Uiso   1.00
C1022  C     0.85942   0.49628   0.65014   0.00000  Uiso   1.00
C1023  C     0.93173   0.46706   0.51142   0.00000  Uiso   1.00
H1024  H     0.93796   0.44340   0.91533   0.00000  Uiso   1.00
H1025  H     0.96805   0.45705   0.98894   0.00000  Uiso   1.00
C1026  C     0.87371   0.48673   0.59386   0.00000  Uiso   1.00
C1027  C     0.74710   0.51653   0.93299   0.00000  Uiso   1.00
C1028  C     0.73611   0.52582   0.98525   0.00000  Uiso   1.00
C1029  C     0.76914   0.51607   0.51251   0.00000  Uiso   1.00
C1030  C     0.81262   0.49381   0.98885   0.00000  Uiso   1.00
C1031  C     0.82365   0.48403   0.93553   0.00000  Uiso   1.00
C1032  C     0.84732   0.48365   0.51560   0.00000  Uiso   1.00
C1033  C     0.89460   0.47007   0.98740   0.00000  Uiso   1.00
C1034  C     0.90336   0.45750   0.93622   0.00000  Uiso   1.00
C1035  C     0.86692   0.46176   0.91195   0.00000  Uiso   1.00
C1036  C     0.83568   0.48432   0.56982   0.00000  Uiso   1.00
C1037  C     0.92274   0.47715   0.56388   0.00000  Uiso   1.00
C1038  C     0.79176   0.49763   0.90706   0.00000  Uiso   1.00
H1039  H     0.72204   0.52677   0.91207   0.00000  Uiso   1.00
H1040  H     0.76083   0.52796   0.55137   0.00000  Uiso   1.00
H1041  H     0.70279   0.54246   0.50421   0.00000  Uiso   1.00
H1042  H     0.87354   0.44798   0.87429   0.00000  Uiso   1.00
C1043  C     0.87550   0.64540   0.75155   0.00000  Uiso   1.00
H1044  H     0.90813   0.62936   0.75388   0.00000  Uiso   1.00
C1045  C     0.87551   0.35464   0.75149   0.00000  Uiso   1.00
H1046  H     0.90815   0.37065   0.75379   0.00000  Uiso   1.00
C1047  C     0.83365   0.37610   0.74889   0.00000  Uiso   1.00
C1048  C     0.79199   0.35468   0.74569   0.00000  Uiso   1.00
H1049  H     0.75941   0.37074   0.74322   0.00000  Uiso   1.00
C1050  C     0.79196   0.64543   0.74579   0.00000  Uiso   1.00
H1051  H     0.75936   0.62942   0.74342   0.00000  Uiso   1.00
C1052  C     0.83362   0.62396   0.74900   0.00000  Uiso   1.00
C1053  C     0.98342   0.52774   0.72041   0.00000  Uiso   1.00
H1054  H     0.97128   0.54991   0.69671   0.00000  Uiso   1.00
C1055  C     0.69978   0.52767   0.72032   0.00000  Uiso   1.00
H1056  H     0.72517   0.54980   0.69655   0.00000  Uiso   1.00
N1057  N     0.71598   0.49999   0.74998   0.00000  Uiso   1.00
C1058  C     0.68336   0.47206   0.77921   0.00000  Uiso   1.00
H1059  H     0.69556   0.44971   0.80265   0.00000  Uiso   1.00
C1060  C     0.96715   0.47191   0.77894   0.00000  Uiso   1.00
H1061  H     0.94219   0.44912   0.80167   0.00000  Uiso   1.00
N1062  N     0.95069   0.50002   0.75000   0.00000  Uiso   1.00
C1063  C     0.96563   0.47385   0.58622   0.00000  Uiso   1.00
C1064  C     0.96321   0.43412   0.61770   0.00000  Uiso   1.00
H1065  H     0.99119   0.43519   0.63887   0.00000  Uiso   1.00
H1066  H     0.92662   0.42957   0.64633   0.00000  Uiso   1.00
H1067  H     0.97093   0.40728   0.59126   0.00000  Uiso   1.00
H1068  H     0.66759   0.47344   0.55460   0.00000  Uiso   1.00
H1069  H     0.96819   0.50141   0.60926   0.00000  Uiso   1.00
O1070  O     0.78701   0.47894   0.59905   0.00000  Uiso   1.00
C1071  C     0.77842   0.43729   0.61541   0.00000  Uiso   1.00
H1072  H     0.74625   0.43684   0.65080   0.00000  Uiso   1.00
H1073  H     0.80947   0.42335   0.62696   0.00000  Uiso   1.00
C1074  C     0.76641   0.41101   0.57373   0.00000  Uiso   1.00
H1075  H     0.73732   0.42625   0.56044   0.00000  Uiso   1.00
H1076  H     0.79964   0.40787   0.53983   0.00000  Uiso   1.00
C1077  C     0.74901   0.36809   0.59453   0.00000  Uiso   1.00
H1078  H     0.77797   0.35212   0.60732   0.00000  Uiso   1.00
H1079  H     0.74090   0.34973   0.56347   0.00000  Uiso   1.00
H1080  H     0.71505   0.37009   0.62780   0.00000  Uiso   1.00
O1081  O     0.12708   0.89345   0.75000   0.00000  Uiso   1.00
O1082  O     0.20627   0.89346   0.75000   0.00000  Uiso   1.00
C1083  C     0.16677   0.91267   0.74967   0.00000  Uiso   1.00
O1084  O     0.10775   0.83332   0.82549   0.00000  Uiso   1.00
O1085  O     0.18694   0.83333   0.82549   0.00000  Uiso   1.00
C1086  C     0.14056   0.83135   0.84998   0.00000  Uiso   1.00
Cu1087 Cu    0.11978   0.83333   0.75000   0.00000  Uiso   1.00
Cu1088 Cu    0.21355   0.83334   0.75000   0.00000  Uiso   1.00
O1089  O     0.12706   0.77321   0.74999   0.00000  Uiso   1.00
O1090  O     0.20625   0.77322   0.74999   0.00000  Uiso   1.00
O1091  O     0.14640   0.83334   0.67451   0.00000  Uiso   1.00
O1092  O     0.22559   0.83335   0.67451   0.00000  Uiso   1.00
C1093  C     0.16676   0.75401   0.74963   0.00000  Uiso   1.00
C1094  C     0.19276   0.82961   0.65014   0.00000  Uiso   1.00
C1095  C     0.26506   0.80039   0.51142   0.00000  Uiso   1.00
H1096  H     0.27129   0.77674   0.91533   0.00000  Uiso   1.00
H1097  H     0.30139   0.79038   0.98894   0.00000  Uiso   1.00
C1098  C     0.20705   0.82006   0.59386   0.00000  Uiso   1.00
C1099  C     0.08043   0.84987   0.93299   0.00000  Uiso   1.00
C1100  C     0.06944   0.85916   0.98525   0.00000  Uiso   1.00
C1101  C     0.10247   0.84940   0.51251   0.00000  Uiso   1.00
C1102  C     0.14595   0.82714   0.98885   0.00000  Uiso   1.00
C1103  C     0.15698   0.81737   0.93553   0.00000  Uiso   1.00
C1104  C     0.18066   0.81698   0.51560   0.00000  Uiso   1.00
C1105  C     0.22793   0.80340   0.98740   0.00000  Uiso   1.00
C1106  C     0.23669   0.79084   0.93622   0.00000  Uiso   1.00
C1107  C     0.20026   0.79510   0.91195   0.00000  Uiso   1.00
C1108  C     0.16901   0.81765   0.56982   0.00000  Uiso   1.00
C1109  C     0.25607   0.81049   0.56388   0.00000  Uiso   1.00
C1110  C     0.12509   0.83097   0.90706   0.00000  Uiso   1.00
H1111  H     0.05538   0.86010   0.91207   0.00000  Uiso   1.00
H1112  H     0.09417   0.86129   0.55137   0.00000  Uiso   1.00
H1113  H     0.03612   0.87579   0.50421   0.00000  Uiso   1.00
H1114  H     0.20688   0.78131   0.87429   0.00000  Uiso   1.00
C1115  C     0.20883   0.97873   0.75155   0.00000  Uiso   1.00
H1116  H     0.24146   0.96270   0.75388   0.00000  Uiso   1.00
C1117  C     0.20885   0.68797   0.75149   0.00000  Uiso   1.00
H1118  H     0.24148   0.70399   0.75379   0.00000  Uiso   1.00
C1119  C     0.16699   0.70943   0.74889   0.00000  Uiso   1.00
C1120  C     0.12532   0.68801   0.74569   0.00000  Uiso   1.00
H1121  H     0.09275   0.70407   0.74322   0.00000  Uiso   1.00
C1122  C     0.12529   0.97876   0.74579   0.00000  Uiso   1.00
H1123  H     0.09269   0.96275   0.74342   0.00000  Uiso   1.00
C1124  C     0.16696   0.95729   0.74900   0.00000  Uiso   1.00
C1125  C     0.31676   0.86107   0.72041   0.00000  Uiso   1.00
H1126  H     0.30462   0.88324   0.69671   0.00000  Uiso   1.00
C1127  C     0.03311   0.86100   0.72032   0.00000  Uiso   1.00
H1128  H     0.05850   0.88313   0.69655   0.00000  Uiso   1.00
N1129  N     0.04931   0.83332   0.74998   0.00000  Uiso   1.00
C1130  C     0.01669   0.80539   0.77921   0.00000  Uiso   1.00
H1131  H     0.02889   0.78304   0.80265   0.00000  Uiso   1.00
C1132  C     0.30048   0.80524   0.77894   0.00000  Uiso   1.00
H1133  H     0.27553   0.78246   0.80167   0.00000  Uiso   1.00
N1134  N     0.28402   0.83335   0.75000   0.00000  Uiso   1.00
C1135  C     0.29896   0.80718   0.58622   0.00000  Uiso   1.00
C1136  C     0.29655   0.76745   0.61770   0.00000  Uiso   1.00
H1137  H     0.32452   0.76853   0.63887   0.00000  Uiso   1.00
H1138  H     0.25995   0.76291   0.64633   0.00000  Uiso   1.00
H1139  H     0.30426   0.74061   0.59126   0.00000  Uiso   1.00
H1140  H     0.00093   0.80678   0.55460   0.00000  Uiso   1.00
H1141  H     0.30152   0.83474   0.60926   0.00000  Uiso   1.00
O1142  O     0.12035   0.81227   0.59905   0.00000  Uiso   1.00
C1143  C     0.11175   0.77062   0.61541   0.00000  Uiso   1.00
H1144  H     0.07958   0.77017   0.65080   0.00000  Uiso   1.00
H1145  H     0.14280   0.75668   0.62696   0.00000  Uiso   1.00
C1146  C     0.09974   0.74435   0.57373   0.00000  Uiso   1.00
H1147  H     0.07065   0.75958   0.56044   0.00000  Uiso   1.00
H1148  H     0.13298   0.74121   0.53983   0.00000  Uiso   1.00
C1149  C     0.08234   0.70142   0.59453   0.00000  Uiso   1.00
H1150  H     0.11130   0.68546   0.60732   0.00000  Uiso   1.00
H1151  H     0.07423   0.68307   0.56347   0.00000  Uiso   1.00
H1152  H     0.04839   0.70342   0.62780   0.00000  Uiso   1.00
O1153  O     0.46042   0.89345   0.75000   0.00000  Uiso   1.00
O1154  O     0.53961   0.89346   0.75000   0.00000  Uiso   1.00
C1155  C     0.50010   0.91267   0.74967   0.00000  Uiso   1.00
O1156  O     0.44108   0.83332   0.82549   0.00000  Uiso   1.00
O1157  O     0.52027   0.83333   0.82549   0.00000  Uiso   1.00
C1158  C     0.47390   0.83135   0.84998   0.00000  Uiso   1.00
Cu1159 Cu    0.45311   0.83333   0.75000   0.00000  Uiso   1.00
Cu1160 Cu    0.54689   0.83334   0.75000   0.00000  Uiso   1.00
O1161  O     0.46039   0.77321   0.74999   0.00000  Uiso   1.00
O1162  O     0.53958   0.77322   0.74999   0.00000  Uiso   1.00
O1163  O     0.47973   0.83334   0.67451   0.00000  Uiso   1.00
O1164  O     0.55892   0.83335   0.67451   0.00000  Uiso   1.00
C1165  C     0.50009   0.75401   0.74963   0.00000  Uiso   1.00
C1166  C     0.52609   0.82961   0.65014   0.00000  Uiso   1.00
C1167  C     0.59839   0.80039   0.51142   0.00000  Uiso   1.00
H1168  H     0.60462   0.77674   0.91533   0.00000  Uiso   1.00
H1169  H     0.63472   0.79038   0.98894   0.00000  Uiso   1.00
C1170  C     0.54038   0.82006   0.59386   0.00000  Uiso   1.00
C1171  C     0.41377   0.84987   0.93299   0.00000  Uiso   1.00
C1172  C     0.40278   0.85916   0.98525   0.00000  Uiso   1.00
C1173  C     0.43580   0.84940   0.51251   0.00000  Uiso   1.00
C1174  C     0.47928   0.82714   0.98885   0.00000  Uiso   1.00
C1175  C     0.49032   0.81737   0.93553   0.00000  Uiso   1.00
C1176  C     0.51399   0.81698   0.51560   0.00000  Uiso   1.00
C1177  C     0.56127   0.80340   0.98740   0.00000  Uiso   1.00
C1178  C     0.57002   0.79084   0.93622   0.00000  Uiso   1.00
C1179  C     0.53359   0.79510   0.91195   0.00000  Uiso   1.00
C1180  C     0.50235   0.81765   0.56982   0.00000  Uiso   1.00
C1181  C     0.58941   0.81049   0.56388   0.00000  Uiso   1.00
C1182  C     0.45843   0.83097   0.90706   0.00000  Uiso   1.00
H1183  H     0.38871   0.86010   0.91207   0.00000  Uiso   1.00
H1184  H     0.42750   0.86129   0.55137   0.00000  Uiso   1.00
H1185  H     0.36946   0.87579   0.50421   0.00000  Uiso   1.00
H1186  H     0.54021   0.78131   0.87429   0.00000  Uiso   1.00
C1187  C     0.54216   0.97873   0.75155   0.00000  Uiso   1.00
H1188  H     0.57479   0.96270   0.75388   0.00000  Uiso   1.00
C1189  C     0.54218   0.68797   0.75149   0.00000  Uiso   1.00
H1190  H     0.57481   0.70399   0.75379   0.00000  Uiso   1.00
C1191  C     0.50032   0.70943   0.74889   0.00000  Uiso   1.00
C1192  C     0.45865   0.68801   0.74569   0.00000  Uiso   1.00
H1193  H     0.42608   0.70407   0.74322   0.00000  Uiso   1.00
C1194  C     0.45862   0.97876   0.74579   0.00000  Uiso   1.00
H1195  H     0.42602   0.96275   0.74342   0.00000  Uiso   1.00
C1196  C     0.50029   0.95729   0.74900   0.00000  Uiso   1.00
C1197  C     0.65009   0.86107   0.72041   0.00000  Uiso   1.00
H1198  H     0.63795   0.88324   0.69671   0.00000  Uiso   1.00
C1199  C     0.36644   0.86100   0.72032   0.00000  Uiso   1.00
H1200  H     0.39183   0.88313   0.69655   0.00000  Uiso   1.00
N1201  N     0.38265   0.83332   0.74998   0.00000  Uiso   1.00
C1202  C     0.35002   0.80539   0.77921   0.00000  Uiso   1.00
H1203  H     0.36222   0.78304   0.80265   0.00000  Uiso   1.00
C1204  C     0.63381   0.80524   0.77894   0.00000  Uiso   1.00
H1205  H     0.60886   0.78246   0.80167   0.00000  Uiso   1.00
N1206  N     0.61735   0.83335   0.75000   0.00000  Uiso   1.00
C1207  C     0.63230   0.80718   0.58622   0.00000  Uiso   1.00
C1208  C     0.62988   0.76745   0.61770   0.00000  Uiso   1.00
H1209  H     0.65785   0.76853   0.63887   0.00000  Uiso   1.00
H1210  H     0.59328   0.76291   0.64633   0.00000  Uiso   1.00
H1211  H     0.63760   0.74061   0.59126   0.00000  Uiso   1.00
H1212  H     0.33426   0.80678   0.55460   0.00000  Uiso   1.00
H1213  H     0.63486   0.83474   0.60926   0.00000  Uiso   1.00
O1214  O     0.45368   0.81227   0.59905   0.00000  Uiso   1.00
C1215  C     0.44509   0.77062   0.61541   0.00000  Uiso   1.00
H1216  H     0.41292   0.77017   0.65080   0.00000  Uiso   1.00
H1217  H     0.47613   0.75668   0.62696   0.00000  Uiso   1.00
C1218  C     0.43308   0.74435   0.57373   0.00000  Uiso   1.00
H1219  H     0.40399   0.75958   0.56044   0.00000  Uiso   1.00
H1220  H     0.46631   0.74121   0.53983   0.00000  Uiso   1.00
C1221  C     0.41567   0.70142   0.59453   0.00000  Uiso   1.00
H1222  H     0.44463   0.68546   0.60732   0.00000  Uiso   1.00
H1223  H     0.40756   0.68307   0.56347   0.00000  Uiso   1.00
H1224  H     0.38172   0.70342   0.62780   0.00000  Uiso   1.00
O1225  O     0.79375   0.89345   0.75000   0.00000  Uiso   1.00
O1226  O     0.87294   0.89346   0.75000   0.00000  Uiso   1.00
C1227  C     0.83343   0.91267   0.74967   0.00000  Uiso   1.00
O1228  O     0.77441   0.83332   0.82549   0.00000  Uiso   1.00
O1229  O     0.85360   0.83333   0.82549   0.00000  Uiso   1.00
C1230  C     0.80723   0.83135   0.84998   0.00000  Uiso   1.00
Cu1231 Cu    0.78645   0.83333   0.75000   0.00000  Uiso   1.00
Cu1232 Cu    0.88022   0.83334   0.75000   0.00000  Uiso   1.00
O1233  O     0.79373   0.77321   0.74999   0.00000  Uiso   1.00
O1234  O     0.87292   0.77322   0.74999   0.00000  Uiso   1.00
O1235  O     0.81306   0.83334   0.67451   0.00000  Uiso   1.00
O1236  O     0.89225   0.83335   0.67451   0.00000  Uiso   1.00
C1237  C     0.83343   0.75401   0.74963   0.00000  Uiso   1.00
C1238  C     0.85942   0.82961   0.65014   0.00000  Uiso   1.00
C1239  C     0.93173   0.80039   0.51142   0.00000  Uiso   1.00
H1240  H     0.93796   0.77674   0.91533   0.00000  Uiso   1.00
H1241  H     0.96805   0.79038   0.98894   0.00000  Uiso   1.00
C1242  C     0.87371   0.82006   0.59386   0.00000  Uiso   1.00
C1243  C     0.74710   0.84987   0.93299   0.00000  Uiso   1.00
C1244  C     0.73611   0.85916   0.98525   0.00000  Uiso   1.00
C1245  C     0.76914   0.84940   0.51251   0.00000  Uiso   1.00
C1246  C     0.81262   0.82714   0.98885   0.00000  Uiso   1.00
C1247  C     0.82365   0.81737   0.93553   0.00000  Uiso   1.00
C1248  C     0.84732   0.81698   0.51560   0.00000  Uiso   1.00
C1249  C     0.89460   0.80340   0.98740   0.00000  Uiso   1.00
C1250  C     0.90336   0.79084   0.93622   0.00000  Uiso   1.00
C1251  C     0.86692   0.79510   0.91195   0.00000  Uiso   1.00
C1252  C     0.83568   0.81765   0.56982   0.00000  Uiso   1.00
C1253  C     0.92274   0.81049   0.56388   0.00000  Uiso   1.00
C1254  C     0.79176   0.83097   0.90706   0.00000  Uiso   1.00
H1255  H     0.72204   0.86010   0.91207   0.00000  Uiso   1.00
H1256  H     0.76083   0.86129   0.55137   0.00000  Uiso   1.00
H1257  H     0.70279   0.87579   0.50421   0.00000  Uiso   1.00
H1258  H     0.87354   0.78131   0.87429   0.00000  Uiso   1.00
C1259  C     0.87550   0.97873   0.75155   0.00000  Uiso   1.00
H1260  H     0.90813   0.96270   0.75388   0.00000  Uiso   1.00
C1261  C     0.87551   0.68797   0.75149   0.00000  Uiso   1.00
H1262  H     0.90815   0.70399   0.75379   0.00000  Uiso   1.00
C1263  C     0.83365   0.70943   0.74889   0.00000  Uiso   1.00
C1264  C     0.79199   0.68801   0.74569   0.00000  Uiso   1.00
H1265  H     0.75941   0.70407   0.74322   0.00000  Uiso   1.00
C1266  C     0.79196   0.97876   0.74579   0.00000  Uiso   1.00
H1267  H     0.75936   0.96275   0.74342   0.00000  Uiso   1.00
C1268  C     0.83362   0.95729   0.74900   0.00000  Uiso   1.00
C1269  C     0.98342   0.86107   0.72041   0.00000  Uiso   1.00
H1270  H     0.97128   0.88324   0.69671   0.00000  Uiso   1.00
C1271  C     0.69978   0.86100   0.72032   0.00000  Uiso   1.00
H1272  H     0.72517   0.88313   0.69655   0.00000  Uiso   1.00
N1273  N     0.71598   0.83332   0.74998   0.00000  Uiso   1.00
C1274  C     0.68336   0.80539   0.77921   0.00000  Uiso   1.00
H1275  H     0.69556   0.78304   0.80265   0.00000  Uiso   1.00
C1276  C     0.96715   0.80524   0.77894   0.00000  Uiso   1.00
H1277  H     0.94219   0.78246   0.80167   0.00000  Uiso   1.00
N1278  N     0.95069   0.83335   0.75000   0.00000  Uiso   1.00
C1279  C     0.96563   0.80718   0.58622   0.00000  Uiso   1.00
C1280  C     0.96321   0.76745   0.61770   0.00000  Uiso   1.00
H1281  H     0.99119   0.76853   0.63887   0.00000  Uiso   1.00
H1282  H     0.92662   0.76291   0.64633   0.00000  Uiso   1.00
H1283  H     0.97093   0.74061   0.59126   0.00000  Uiso   1.00
H1284  H     0.66759   0.80678   0.55460   0.00000  Uiso   1.00
H1285  H     0.96819   0.83474   0.60926   0.00000  Uiso   1.00
O1286  O     0.78701   0.81227   0.59905   0.00000  Uiso   1.00
C1287  C     0.77842   0.77062   0.61541   0.00000  Uiso   1.00
H1288  H     0.74625   0.77017   0.65080   0.00000  Uiso   1.00
H1289  H     0.80947   0.75668   0.62696   0.00000  Uiso   1.00
C1290  C     0.76641   0.74435   0.57373   0.00000  Uiso   1.00
H1291  H     0.73732   0.75958   0.56044   0.00000  Uiso   1.00
H1292  H     0.79964   0.74121   0.53983   0.00000  Uiso   1.00
C1293  C     0.74901   0.70142   0.59453   0.00000  Uiso   1.00
H1294  H     0.77797   0.68546   0.60732   0.00000  Uiso   1.00
H1295  H     0.74090   0.68307   0.56347   0.00000  Uiso   1.00
H1296  H     0.71505   0.70342   0.62780   0.00000  Uiso   1.00
loop_
_geom_bond_atom_site_label_1
_geom_bond_atom_site_label_2
_geom_bond_distance
_geom_bond_site_symmetry_2
_ccdc_geom_bond_type
O1     Cu7     1.964   .     S
O1     C3      1.290   .     A
O2     C3      1.289   .     A
O2     Cu8     1.964   .     S
C3     C44     1.450   .     S
O4     Cu7     1.962   .     S
O4     C6      1.296   .     A
O5     Cu8     1.952   .     S
O5     C6      1.293   .     A
C6     C30     1.471   .     S
Cu7    O9      1.964   .     S
Cu7    Cu8     2.672   .     S
Cu7    O11     1.952   .     S
Cu7    N49     2.008   .     S
Cu8    O12     1.962   .     S
Cu8    N54     2.008   .     S
Cu8    O10     1.964   .     S
O9     C13     1.289   .     A
O10    C13     1.289   .     A
O11    C14     1.296   .     A
O12    C14     1.298   .     A
C13    C39     1.449   .     S
C14    C18     1.486   .     S
C15    C29     1.403   .     A
C15    H665    1.085   1_554 S
C15    C673    1.397   1_554 S
H16    C26     1.084   .     S
H17    C663    1.085   .     S
C18    C29     1.428   .     A
C18    C28     1.420   .     A
C19    C20     1.386   .     A
C19    H31     1.083   .     S
C19    C30     1.402   .     A
C20    C669    1.390   .     S
C20    H681    1.083   .     S
C21    H32     1.079   .     S
C21    C668    1.390   1_554 S
C21    C670    1.416   1_554 S
C22    C23     1.417   .     A
C22    C669    1.416   .     S
C22    C672    1.423   .     S
C23    C27     1.412   .     A
C23    C30     1.420   .     A
C24    C28     1.401   .     A
C24    C670    1.423   1_554 S
C24    C673    1.410   1_554 S
C25    C26     1.393   .     A
C25    C663    1.397   .     S
C25    C672    1.410   .     S
C26    C27     1.388   .     A
C27    H34     1.078   .     S
C28    O62     1.388   .     S
C29    C55     1.517   .     S
H33    C668    1.083   1_554 S
C35    C44     1.401   .     A
C35    H36     1.083   .     S
C35    C253    1.383   .     S
C37    H38     1.083   .     S
C37    C39     1.401   .     A
C37    C467    1.383   1_545 S
C39    C40     1.401   .     A
C40    H41     1.083   .     S
C40    C474    1.383   1_545 S
C42    C44     1.401   .     A
C42    H43     1.083   .     S
C42    C256    1.383   .     S
C45    N54     1.366   .     A
C45    H46     1.082   .     S
C45    C119    1.415   .     S
C47    N49     1.367   .     A
C47    H48     1.082   .     S
C47    C189    1.415   1_455 S
N49    C50     1.366   .     A
C50    H51     1.082   .     S
C50    C196    1.414   1_455 S
C52    H53     1.079   .     S
C52    N54     1.367   .     A
C52    C122    1.414   .     S
C55    C56     1.530   .     S
C55    H61     1.108   .     S
C55    H132    1.110   .     S
C56    H59     1.111   .     S
C56    H57     1.110   .     S
C56    H58     1.108   .     S
H60    C199    1.110   1_455 S
O62    C63     1.419   .     S
C63    H65     1.116   .     S
C63    C66     1.533   .     S
C63    H64     1.111   .     S
C66    H68     1.111   .     S
C66    H67     1.110   .     S
C66    C69     1.526   .     S
C69    H72     1.111   .     S
C69    H70     1.111   .     S
C69    H71     1.110   .     S
O73    Cu79    1.964   .     S
O73    C75     1.290   .     A
O74    C75     1.289   .     A
O74    Cu80    1.964   .     S
C75    C116    1.450   .     S
O76    Cu79    1.962   .     S
O76    C78     1.296   .     A
O77    Cu80    1.952   .     S
O77    C78     1.293   .     A
C78    C102    1.471   .     S
Cu79   O81     1.964   .     S
Cu79   Cu80    2.672   .     S
Cu79   O83     1.952   .     S
Cu79   N121    2.008   .     S
Cu80   O84     1.962   .     S
Cu80   N126    2.008   .     S
Cu80   O82     1.964   .     S
O81    C85     1.289   .     A
O82    C85     1.289   .     A
O83    C86     1.296   .     A
O84    C86     1.298   .     A
C85    C111    1.449   .     S
C86    C90     1.486   .     S
C87    C101    1.403   .     A
C87    H737    1.085   1_554 S
C87    C745    1.397   1_554 S
H88    C98     1.084   .     S
H89    C735    1.085   .     S
C90    C101    1.428   .     A
C90    C100    1.420   .     A
C91    C92     1.386   .     A
C91    H103    1.083   .     S
C91    C102    1.402   .     A
C92    C741    1.390   .     S
C92    H753    1.083   .     S
C93    H104    1.079   .     S
C93    C740    1.390   1_554 S
C93    C742    1.416   1_554 S
C94    C95     1.417   .     A
C94    C741    1.416   .     S
C94    C744    1.423   .     S
C95    C99     1.412   .     A
C95    C102    1.420   .     A
C96    C100    1.401   .     A
C96    C742    1.423   1_554 S
C96    C745    1.410   1_554 S
C97    C98     1.393   .     A
C97    C735    1.397   .     S
C97    C744    1.410   .     S
C98    C99     1.388   .     A
C99    H106    1.078   .     S
C100   O134    1.388   .     S
C101   C127    1.517   .     S
H105   C740    1.083   1_554 S
C107   C116    1.401   .     A
C107   H108    1.083   .     S
C107   C325    1.383   .     S
C109   H110    1.083   .     S
C109   C111    1.401   .     A
C109   C539    1.383   1_545 S
C111   C112    1.401   .     A
C112   H113    1.083   .     S
C112   C546    1.383   1_545 S
C114   C116    1.401   .     A
C114   H115    1.083   .     S
C114   C328    1.383   .     S
C117   N126    1.366   .     A
C117   H118    1.082   .     S
C117   C191    1.415   .     S
C119   N121    1.367   .     A
C119   H120    1.082   .     S
N121   C122    1.366   .     A
C122   H123    1.082   .     S
C124   H125    1.079   .     S
C124   N126    1.367   .     A
C124   C194    1.414   .     S
C127   C128    1.530   .     S
C127   H133    1.108   .     S
C127   H204    1.110   .     S
C128   H131    1.111   .     S
C128   H129    1.110   .     S
C128   H130    1.108   .     S
O134   C135    1.419   .     S
C135   H137    1.116   .     S
C135   C138    1.533   .     S
C135   H136    1.111   .     S
C138   H140    1.111   .     S
C138   H139    1.110   .     S
C138   C141    1.526   .     S
C141   H144    1.111   .     S
C141   H142    1.111   .     S
C141   H143    1.110   .     S
O145   Cu151   1.964   .     S
O145   C147    1.290   .     A
O146   C147    1.289   .     A
O146   Cu152   1.964   .     S
C147   C188    1.450   .     S
O148   Cu151   1.962   .     S
O148   C150    1.296   .     A
O149   Cu152   1.952   .     S
O149   C150    1.293   .     A
C150   C174    1.471   .     S
Cu151  O153    1.964   .     S
Cu151  Cu152   2.672   .     S
Cu151  O155    1.952   .     S
Cu151  N193    2.008   .     S
Cu152  O156    1.962   .     S
Cu152  N198    2.008   .     S
Cu152  O154    1.964   .     S
O153   C157    1.289   .     A
O154   C157    1.289   .     A
O155   C158    1.296   .     A
O156   C158    1.298   .     A
C157   C183    1.449   .     S
C158   C162    1.486   .     S
C159   C173    1.403   .     A
C159   H809    1.085   1_554 S
C159   C817    1.397   1_554 S
H160   C170    1.084   .     S
H161   C807    1.085   .     S
C162   C173    1.428   .     A
C162   C172    1.420   .     A
C163   C164    1.386   .     A
C163   H175    1.083   .     S
C163   C174    1.402   .     A
C164   C813    1.390   .     S
C164   H825    1.083   .     S
C165   H176    1.079   .     S
C165   C812    1.390   1_554 S
C165   C814    1.416   1_554 S
C166   C167    1.417   .     A
C166   C813    1.416   .     S
C166   C816    1.423   .     S
C167   C171    1.412   .     A
C167   C174    1.420   .     A
C168   C172    1.401   .     A
C168   C814    1.423   1_554 S
C168   C817    1.410   1_554 S
C169   C170    1.393   .     A
C169   C807    1.397   .     S
C169   C816    1.410   .     S
C170   C171    1.388   .     A
C171   H178    1.078   .     S
C172   O206    1.388   .     S
C173   C199    1.517   .     S
H177   C812    1.083   1_554 S
C179   C188    1.401   .     A
C179   H180    1.083   .     S
C179   C397    1.383   .     S
C181   H182    1.083   .     S
C181   C183    1.401   .     A
C181   C611    1.383   1_545 S
C183   C184    1.401   .     A
C184   H185    1.083   .     S
C184   C618    1.383   1_545 S
C186   C188    1.401   .     A
C186   H187    1.083   .     S
C186   C400    1.383   .     S
C189   N198    1.366   .     A
C189   H190    1.082   .     S
C189   C47     1.415   1_655 S
C191   N193    1.367   .     A
C191   H192    1.082   .     S
N193   C194    1.366   .     A
C194   H195    1.082   .     S
C196   H197    1.079   .     S
C196   N198    1.367   .     A
C196   C50     1.414   1_655 S
C199   C200    1.530   .     S
C199   H205    1.108   .     S
C199   H60     1.110   1_655 S
C200   H203    1.111   .     S
C200   H201    1.110   .     S
C200   H202    1.108   .     S
O206   C207    1.419   .     S
C207   H209    1.116   .     S
C207   C210    1.533   .     S
C207   H208    1.111   .     S
C210   H212    1.111   .     S
C210   H211    1.110   .     S
C210   C213    1.526   .     S
C213   H216    1.111   .     S
C213   H214    1.111   .     S
C213   H215    1.110   .     S
O217   Cu223   1.964   .     S
O217   C219    1.290   .     A
O218   C219    1.289   .     A
O218   Cu224   1.964   .     S
C219   C260    1.450   .     S
O220   Cu223   1.962   .     S
O220   C222    1.296   .     A
O221   Cu224   1.952   .     S
O221   C222    1.293   .     A
C222   C246    1.471   .     S
Cu223  O225    1.964   .     S
Cu223  Cu224   2.672   .     S
Cu223  O227    1.952   .     S
Cu223  N265    2.008   .     S
Cu224  O228    1.962   .     S
Cu224  N270    2.008   .     S
Cu224  O226    1.964   .     S
O225   C229    1.289   .     A
O226   C229    1.289   .     A
O227   C230    1.296   .     A
O228   C230    1.298   .     A
C229   C255    1.449   .     S
C230   C234    1.486   .     S
C231   C245    1.403   .     A
C231   H881    1.085   1_554 S
C231   C889    1.397   1_554 S
H232   C242    1.084   .     S
H233   C879    1.085   .     S
C234   C245    1.428   .     A
C234   C244    1.420   .     A
C235   C236    1.386   .     A
C235   H247    1.083   .     S
C235   C246    1.402   .     A
C236   C885    1.390   .     S
C236   H897    1.083   .     S
C237   H248    1.079   .     S
C237   C884    1.390   1_554 S
C237   C886    1.416   1_554 S
C238   C239    1.417   .     A
C238   C885    1.416   .     S
C238   C888    1.423   .     S
C239   C243    1.412   .     A
C239   C246    1.420   .     A
C240   C244    1.401   .     A
C240   C886    1.423   1_554 S
C240   C889    1.410   1_554 S
C241   C242    1.393   .     A
C241   C879    1.397   .     S
C241   C888    1.410   .     S
C242   C243    1.388   .     A
C243   H250    1.078   .     S
C244   O278    1.388   .     S
C245   C271    1.517   .     S
H249   C884    1.083   1_554 S
C251   C260    1.401   .     A
C251   H252    1.083   .     S
C251   C469    1.383   .     S
C253   H254    1.083   .     S
C253   C255    1.401   .     A
C255   C256    1.401   .     A
C256   H257    1.083   .     S
C258   C260    1.401   .     A
C258   H259    1.083   .     S
C258   C472    1.383   .     S
C261   N270    1.366   .     A
C261   H262    1.082   .     S
C261   C335    1.415   .     S
C263   N265    1.367   .     A
C263   H264    1.082   .     S
C263   C405    1.415   1_455 S
N265   C266    1.366   .     A
C266   H267    1.082   .     S
C266   C412    1.414   1_455 S
C268   H269    1.079   .     S
C268   N270    1.367   .     A
C268   C338    1.414   .     S
C271   C272    1.530   .     S
C271   H277    1.108   .     S
C271   H348    1.110   .     S
C272   H275    1.111   .     S
C272   H273    1.110   .     S
C272   H274    1.108   .     S
H276   C415    1.110   1_455 S
O278   C279    1.419   .     S
C279   H281    1.116   .     S
C279   C282    1.533   .     S
C279   H280    1.111   .     S
C282   H284    1.111   .     S
C282   H283    1.110   .     S
C282   C285    1.526   .     S
C285   H288    1.111   .     S
C285   H286    1.111   .     S
C285   H287    1.110   .     S
O289   Cu295   1.964   .     S
O289   C291    1.290   .     A
O290   C291    1.289   .     A
O290   Cu296   1.964   .     S
C291   C332    1.450   .     S
O292   Cu295   1.962   .     S
O292   C294    1.296   .     A
O293   Cu296   1.952   .     S
O293   C294    1.293   .     A
C294   C318    1.471   .     S
Cu295  O297    1.964   .     S
Cu295  Cu296   2.672   .     S
Cu295  O299    1.952   .     S
Cu295  N337    2.008   .     S
Cu296  O300    1.962   .     S
Cu296  N342    2.008   .     S
Cu296  O298    1.964   .     S
O297   C301    1.289   .     A
O298   C301    1.289   .     A
O299   C302    1.296   .     A
O300   C302    1.298   .     A
C301   C327    1.449   .     S
C302   C306    1.486   .     S
C303   C317    1.403   .     A
C303   H953    1.085   1_554 S
C303   C961    1.397   1_554 S
H304   C314    1.084   .     S
H305   C951    1.085   .     S
C306   C317    1.428   .     A
C306   C316    1.420   .     A
C307   C308    1.386   .     A
C307   H319    1.083   .     S
C307   C318    1.402   .     A
C308   C957    1.390   .     S
C308   H969    1.083   .     S
C309   H320    1.079   .     S
C309   C956    1.390   1_554 S
C309   C958    1.416   1_554 S
C310   C311    1.417   .     A
C310   C957    1.416   .     S
C310   C960    1.423   .     S
C311   C315    1.412   .     A
C311   C318    1.420   .     A
C312   C316    1.401   .     A
C312   C958    1.423   1_554 S
C312   C961    1.410   1_554 S
C313   C314    1.393   .     A
C313   C951    1.397   .     S
C313   C960    1.410   .     S
C314   C315    1.388   .     A
C315   H322    1.078   .     S
C316   O350    1.388   .     S
C317   C343    1.517   .     S
H321   C956    1.083   1_554 S
C323   C332    1.401   .     A
C323   H324    1.083   .     S
C323   C541    1.383   .     S
C325   H326    1.083   .     S
C325   C327    1.401   .     A
C327   C328    1.401   .     A
C328   H329    1.083   .     S
C330   C332    1.401   .     A
C330   H331    1.083   .     S
C330   C544    1.383   .     S
C333   N342    1.366   .     A
C333   H334    1.082   .     S
C333   C407    1.415   .     S
C335   N337    1.367   .     A
C335   H336    1.082   .     S
N337   C338    1.366   .     A
C338   H339    1.082   .     S
C340   H341    1.079   .     S
C340   N342    1.367   .     A
C340   C410    1.414   .     S
C343   C344    1.530   .     S
C343   H349    1.108   .     S
C343   H420    1.110   .     S
C344   H347    1.111   .     S
C344   H345    1.110   .     S
C344   H346    1.108   .     S
O350   C351    1.419   .     S
C351   H353    1.116   .     S
C351   C354    1.533   .     S
C351   H352    1.111   .     S
C354   H356    1.111   .     S
C354   H355    1.110   .     S
C354   C357    1.526   .     S
C357   H360    1.111   .     S
C357   H358    1.111   .     S
C357   H359    1.110   .     S
O361   Cu367   1.964   .     S
O361   C363    1.290   .     A
O362   C363    1.289   .     A
O362   Cu368   1.964   .     S
C363   C404    1.450   .     S
O364   Cu367   1.962   .     S
O364   C366    1.296   .     A
O365   Cu368   1.952   .     S
O365   C366    1.293   .     A
C366   C390    1.471   .     S
Cu367  O369    1.964   .     S
Cu367  Cu368   2.672   .     S
Cu367  O371    1.952   .     S
Cu367  N409    2.008   .     S
Cu368  O372    1.962   .     S
Cu368  N414    2.008   .     S
Cu368  O370    1.964   .     S
O369   C373    1.289   .     A
O370   C373    1.289   .     A
O371   C374    1.296   .     A
O372   C374    1.298   .     A
C373   C399    1.449   .     S
C374   C378    1.486   .     S
C375   C389    1.403   .     A
C375   H1025   1.085   1_554 S
C375   C1033   1.397   1_554 S
H376   C386    1.084   .     S
H377   C1023   1.085   .     S
C378   C389    1.428   .     A
C378   C388    1.420   .     A
C379   C380    1.386   .     A
C379   H391    1.083   .     S
C379   C390    1.402   .     A
C380   C1029   1.390   .     S
C380   H1041   1.083   .     S
C381   H392    1.079   .     S
C381   C1028   1.390   1_554 S
C381   C1030   1.416   1_554 S
C382   C383    1.417   .     A
C382   C1029   1.416   .     S
C382   C1032   1.423   .     S
C383   C387    1.412   .     A
C383   C390    1.420   .     A
C384   C388    1.401   .     A
C384   C1030   1.423   1_554 S
C384   C1033   1.410   1_554 S
C385   C386    1.393   .     A
C385   C1023   1.397   .     S
C385   C1032   1.410   .     S
C386   C387    1.388   .     A
C387   H394    1.078   .     S
C388   O422    1.388   .     S
C389   C415    1.517   .     S
H393   C1028   1.083   1_554 S
C395   C404    1.401   .     A
C395   H396    1.083   .     S
C395   C613    1.383   .     S
C397   H398    1.083   .     S
C397   C399    1.401   .     A
C399   C400    1.401   .     A
C400   H401    1.083   .     S
C402   C404    1.401   .     A
C402   H403    1.083   .     S
C402   C616    1.383   .     S
C405   N414    1.366   .     A
C405   H406    1.082   .     S
C405   C263    1.415   1_655 S
C407   N409    1.367   .     A
C407   H408    1.082   .     S
N409   C410    1.366   .     A
C410   H411    1.082   .     S
C412   H413    1.079   .     S
C412   N414    1.367   .     A
C412   C266    1.414   1_655 S
C415   C416    1.530   .     S
C415   H421    1.108   .     S
C415   H276    1.110   1_655 S
C416   H419    1.111   .     S
C416   H417    1.110   .     S
C416   H418    1.108   .     S
O422   C423    1.419   .     S
C423   H425    1.116   .     S
C423   C426    1.533   .     S
C423   H424    1.111   .     S
C426   H428    1.111   .     S
C426   H427    1.110   .     S
C426   C429    1.526   .     S
C429   H432    1.111   .     S
C429   H430    1.111   .     S
C429   H431    1.110   .     S
O433   Cu439   1.964   .     S
O433   C435    1.290   .     A
O434   C435    1.289   .     A
O434   Cu440   1.964   .     S
C435   C476    1.450   .     S
O436   Cu439   1.962   .     S
O436   C438    1.296   .     A
O437   Cu440   1.952   .     S
O437   C438    1.293   .     A
C438   C462    1.471   .     S
Cu439  O441    1.964   .     S
Cu439  Cu440   2.672   .     S
Cu439  O443    1.952   .     S
Cu439  N481    2.008   .     S
Cu440  O444    1.962   .     S
Cu440  N486    2.008   .     S
Cu440  O442    1.964   .     S
O441   C445    1.289   .     A
O442   C445    1.289   .     A
O443   C446    1.296   .     A
O444   C446    1.298   .     A
C445   C471    1.449   .     S
C446   C450    1.486   .     S
C447   C461    1.403   .     A
C447   H1097   1.085   1_554 S
C447   C1105   1.397   1_554 S
H448   C458    1.084   .     S
H449   C1095   1.085   .     S
C450   C461    1.428   .     A
C450   C460    1.420   .     A
C451   C452    1.386   .     A
C451   H463    1.083   .     S
C451   C462    1.402   .     A
C452   C1101   1.390   .     S
C452   H1113   1.083   .     S
C453   H464    1.079   .     S
C453   C1100   1.390   1_554 S
C453   C1102   1.416   1_554 S
C454   C455    1.417   .     A
C454   C1101   1.416   .     S
C454   C1104   1.423   .     S
C455   C459    1.412   .     A
C455   C462    1.420   .     A
C456   C460    1.401   .     A
C456   C1102   1.423   1_554 S
C456   C1105   1.410   1_554 S
C457   C458    1.393   .     A
C457   C1095   1.397   .     S
C457   C1104   1.410   .     S
C458   C459    1.388   .     A
C459   H466    1.078   .     S
C460   O494    1.388   .     S
C461   C487    1.517   .     S
H465   C1100   1.083   1_554 S
C467   C476    1.401   .     A
C467   H468    1.083   .     S
C467   C37     1.383   1_565 S
C469   H470    1.083   .     S
C469   C471    1.401   .     A
C471   C472    1.401   .     A
C472   H473    1.083   .     S
C474   C476    1.401   .     A
C474   H475    1.083   .     S
C474   C40     1.383   1_565 S
C477   N486    1.366   .     A
C477   H478    1.082   .     S
C477   C551    1.415   .     S
C479   N481    1.367   .     A
C479   H480    1.082   .     S
C479   C621    1.415   1_455 S
N481   C482    1.366   .     A
C482   H483    1.082   .     S
C482   C628    1.414   1_455 S
C484   H485    1.079   .     S
C484   N486    1.367   .     A
C484   C554    1.414   .     S
C487   C488    1.530   .     S
C487   H493    1.108   .     S
C487   H564    1.110   .     S
C488   H491    1.111   .     S
C488   H489    1.110   .     S
C488   H490    1.108   .     S
H492   C631    1.110   1_455 S
O494   C495    1.419   .     S
C495   H497    1.116   .     S
C495   C498    1.533   .     S
C495   H496    1.111   .     S
C498   H500    1.111   .     S
C498   H499    1.110   .     S
C498   C501    1.526   .     S
C501   H504    1.111   .     S
C501   H502    1.111   .     S
C501   H503    1.110   .     S
O505   Cu511   1.964   .     S
O505   C507    1.290   .     A
O506   C507    1.289   .     A
O506   Cu512   1.964   .     S
C507   C548    1.450   .     S
O508   Cu511   1.962   .     S
O508   C510    1.296   .     A
O509   Cu512   1.952   .     S
O509   C510    1.293   .     A
C510   C534    1.471   .     S
Cu511  O513    1.964   .     S
Cu511  Cu512   2.672   .     S
Cu511  O515    1.952   .     S
Cu511  N553    2.008   .     S
Cu512  O516    1.962   .     S
Cu512  N558    2.008   .     S
Cu512  O514    1.964   .     S
O513   C517    1.289   .     A
O514   C517    1.289   .     A
O515   C518    1.296   .     A
O516   C518    1.298   .     A
C517   C543    1.449   .     S
C518   C522    1.486   .     S
C519   C533    1.403   .     A
C519   H1169   1.085   1_554 S
C519   C1177   1.397   1_554 S
H520   C530    1.084   .     S
H521   C1167   1.085   .     S
C522   C533    1.428   .     A
C522   C532    1.420   .     A
C523   C524    1.386   .     A
C523   H535    1.083   .     S
C523   C534    1.402   .     A
C524   C1173   1.390   .     S
C524   H1185   1.083   .     S
C525   H536    1.079   .     S
C525   C1172   1.390   1_554 S
C525   C1174   1.416   1_554 S
C526   C527    1.417   .     A
C526   C1173   1.416   .     S
C526   C1176   1.423   .     S
C527   C531    1.412   .     A
C527   C534    1.420   .     A
C528   C532    1.401   .     A
C528   C1174   1.423   1_554 S
C528   C1177   1.410   1_554 S
C529   C530    1.393   .     A
C529   C1167   1.397   .     S
C529   C1176   1.410   .     S
C530   C531    1.388   .     A
C531   H538    1.078   .     S
C532   O566    1.388   .     S
C533   C559    1.517   .     S
H537   C1172   1.083   1_554 S
C539   C548    1.401   .     A
C539   H540    1.083   .     S
C539   C109    1.383   1_565 S
C541   H542    1.083   .     S
C541   C543    1.401   .     A
C543   C544    1.401   .     A
C544   H545    1.083   .     S
C546   C548    1.401   .     A
C546   H547    1.083   .     S
C546   C112    1.383   1_565 S
C549   N558    1.366   .     A
C549   H550    1.082   .     S
C549   C623    1.415   .     S
C551   N553    1.367   .     A
C551   H552    1.082   .     S
N553   C554    1.366   .     A
C554   H555    1.082   .     S
C556   H557    1.079   .     S
C556   N558    1.367   .     A
C556   C626    1.414   .     S
C559   C560    1.530   .     S
C559   H565    1.108   .     S
C559   H636    1.110   .     S
C560   H563    1.111   .     S
C560   H561    1.110   .     S
C560   H562    1.108   .     S
O566   C567    1.419   .     S
C567   H569    1.116   .     S
C567   C570    1.533   .     S
C567   H568    1.111   .     S
C570   H572    1.111   .     S
C570   H571    1.110   .     S
C570   C573    1.526   .     S
C573   H576    1.111   .     S
C573   H574    1.111   .     S
C573   H575    1.110   .     S
O577   Cu583   1.964   .     S
O577   C579    1.290   .     A
O578   C579    1.289   .     A
O578   Cu584   1.964   .     S
C579   C620    1.450   .     S
O580   Cu583   1.962   .     S
O580   C582    1.296   .     A
O581   Cu584   1.952   .     S
O581   C582    1.293   .     A
C582   C606    1.471   .     S
Cu583  O585    1.964   .     S
Cu583  Cu584   2.672   .     S
Cu583  O587    1.952   .     S
Cu583  N625    2.008   .     S
Cu584  O588    1.962   .     S
Cu584  N630    2.008   .     S
Cu584  O586    1.964   .     S
O585   C589    1.289   .     A
O586   C589    1.289   .     A
O587   C590    1.296   .     A
O588   C590    1.298   .     A
C589   C615    1.449   .     S
C590   C594    1.486   .     S
C591   C605    1.403   .     A
C591   H1241   1.085   1_554 S
C591   C1249   1.397   1_554 S
H592   C602    1.084   .     S
H593   C1239   1.085   .     S
C594   C605    1.428   .     A
C594   C604    1.420   .     A
C595   C596    1.386   .     A
C595   H607    1.083   .     S
C595   C606    1.402   .     A
C596   C1245   1.390   .     S
C596   H1257   1.083   .     S
C597   H608    1.079   .     S
C597   C1244   1.390   1_554 S
C597   C1246   1.416   1_554 S
C598   C599    1.417   .     A
C598   C1245   1.416   .     S
C598   C1248   1.423   .     S
C599   C603    1.412   .     A
C599   C606    1.420   .     A
C600   C604    1.401   .     A
C600   C1246   1.423   1_554 S
C600   C1249   1.410   1_554 S
C601   C602    1.393   .     A
C601   C1239   1.397   .     S
C601   C1248   1.410   .     S
C602   C603    1.388   .     A
C603   H610    1.078   .     S
C604   O638    1.388   .     S
C605   C631    1.517   .     S
H609   C1244   1.083   1_554 S
C611   C620    1.401   .     A
C611   H612    1.083   .     S
C611   C181    1.383   1_565 S
C613   H614    1.083   .     S
C613   C615    1.401   .     A
C615   C616    1.401   .     A
C616   H617    1.083   .     S
C618   C620    1.401   .     A
C618   H619    1.083   .     S
C618   C184    1.383   1_565 S
C621   N630    1.366   .     A
C621   H622    1.082   .     S
C621   C479    1.415   1_655 S
C623   N625    1.367   .     A
C623   H624    1.082   .     S
N625   C626    1.366   .     A
C626   H627    1.082   .     S
C628   H629    1.079   .     S
C628   N630    1.367   .     A
C628   C482    1.414   1_655 S
C631   C632    1.530   .     S
C631   H637    1.108   .     S
C631   H492    1.110   1_655 S
C632   H635    1.111   .     S
C632   H633    1.110   .     S
C632   H634    1.108   .     S
O638   C639    1.419   .     S
C639   H641    1.116   .     S
C639   C642    1.533   .     S
C639   H640    1.111   .     S
C642   H644    1.111   .     S
C642   H643    1.110   .     S
C642   C645    1.526   .     S
C645   H648    1.111   .     S
C645   H646    1.111   .     S
C645   H647    1.110   .     S
O649   Cu655   1.964   .     S
O649   C651    1.290   .     A
O650   C651    1.289   .     A
O650   Cu656   1.964   .     S
C651   C692    1.450   .     S
O652   Cu655   1.962   .     S
O652   C654    1.296   .     A
O653   Cu656   1.952   .     S
O653   C654    1.293   .     A
C654   C678    1.471   .     S
Cu655  O657    1.964   .     S
Cu655  Cu656   2.672   .     S
Cu655  O659    1.952   .     S
Cu655  N697    2.008   .     S
Cu656  O660    1.962   .     S
Cu656  N702    2.008   .     S
Cu656  O658    1.964   .     S
O657   C661    1.289   .     A
O658   C661    1.289   .     A
O659   C662    1.296   .     A
O660   C662    1.298   .     A
C661   C687    1.449   .     S
C662   C666    1.486   .     S
C663   C677    1.403   .     A
H664   C674    1.084   .     S
H665   C15     1.085   1_556 S
C666   C677    1.428   .     A
C666   C676    1.420   .     A
C667   C668    1.386   .     A
C667   H679    1.083   .     S
C667   C678    1.402   .     A
C668   C21     1.390   1_556 S
C668   H33     1.083   1_556 S
C669   H680    1.079   .     S
C670   C671    1.417   .     A
C670   C21     1.416   1_556 S
C670   C24     1.423   1_556 S
C671   C675    1.412   .     A
C671   C678    1.420   .     A
C672   C676    1.401   .     A
C673   C674    1.393   .     A
C673   C15     1.397   1_556 S
C673   C24     1.410   1_556 S
C674   C675    1.388   .     A
C675   H682    1.078   .     S
C676   O710    1.388   .     S
C677   C703    1.517   .     S
C683   C692    1.401   .     A
C683   H684    1.083   .     S
C683   C901    1.383   .     S
C685   H686    1.083   .     S
C685   C687    1.401   .     A
C685   C1115   1.383   1_545 S
C687   C688    1.401   .     A
C688   H689    1.083   .     S
C688   C1122   1.383   1_545 S
C690   C692    1.401   .     A
C690   H691    1.083   .     S
C690   C904    1.383   .     S
C693   N702    1.366   .     A
C693   H694    1.082   .     S
C693   C767    1.415   .     S
C695   N697    1.367   .     A
C695   H696    1.082   .     S
C695   C837    1.415   1_455 S
N697   C698    1.366   .     A
C698   H699    1.082   .     S
C698   C844    1.414   1_455 S
C700   H701    1.079   .     S
C700   N702    1.367   .     A
C700   C770    1.414   .     S
C703   C704    1.530   .     S
C703   H709    1.108   .     S
C703   H780    1.110   .     S
C704   H707    1.111   .     S
C704   H705    1.110   .     S
C704   H706    1.108   .     S
H708   C847    1.110   1_455 S
O710   C711    1.419   .     S
C711   H713    1.116   .     S
C711   C714    1.533   .     S
C711   H712    1.111   .     S
C714   H716    1.111   .     S
C714   H715    1.110   .     S
C714   C717    1.526   .     S
C717   H720    1.111   .     S
C717   H718    1.111   .     S
C717   H719    1.110   .     S
O721   Cu727   1.964   .     S
O721   C723    1.290   .     A
O722   C723    1.289   .     A
O722   Cu728   1.964   .     S
C723   C764    1.450   .     S
O724   Cu727   1.962   .     S
O724   C726    1.296   .     A
O725   Cu728   1.952   .     S
O725   C726    1.293   .     A
C726   C750    1.471   .     S
Cu727  O729    1.964   .     S
Cu727  Cu728   2.672   .     S
Cu727  O731    1.952   .     S
Cu727  N769    2.008   .     S
Cu728  O732    1.962   .     S
Cu728  N774    2.008   .     S
Cu728  O730    1.964   .     S
O729   C733    1.289   .     A
O730   C733    1.289   .     A
O731   C734    1.296   .     A
O732   C734    1.298   .     A
C733   C759    1.449   .     S
C734   C738    1.486   .     S
C735   C749    1.403   .     A
H736   C746    1.084   .     S
H737   C87     1.085   1_556 S
C738   C749    1.428   .     A
C738   C748    1.420   .     A
C739   C740    1.386   .     A
C739   H751    1.083   .     S
C739   C750    1.402   .     A
C740   C93     1.390   1_556 S
C740   H105    1.083   1_556 S
C741   H752    1.079   .     S
C742   C743    1.417   .     A
C742   C93     1.416   1_556 S
C742   C96     1.423   1_556 S
C743   C747    1.412   .     A
C743   C750    1.420   .     A
C744   C748    1.401   .     A
C745   C746    1.393   .     A
C745   C87     1.397   1_556 S
C745   C96     1.410   1_556 S
C746   C747    1.388   .     A
C747   H754    1.078   .     S
C748   O782    1.388   .     S
C749   C775    1.517   .     S
C755   C764    1.401   .     A
C755   H756    1.083   .     S
C755   C973    1.383   .     S
C757   H758    1.083   .     S
C757   C759    1.401   .     A
C757   C1187   1.383   1_545 S
C759   C760    1.401   .     A
C760   H761    1.083   .     S
C760   C1194   1.383   1_545 S
C762   C764    1.401   .     A
C762   H763    1.083   .     S
C762   C976    1.383   .     S
C765   N774    1.366   .     A
C765   H766    1.082   .     S
C765   C839    1.415   .     S
C767   N769    1.367   .     A
C767   H768    1.082   .     S
N769   C770    1.366   .     A
C770   H771    1.082   .     S
C772   H773    1.079   .     S
C772   N774    1.367   .     A
C772   C842    1.414   .     S
C775   C776    1.530   .     S
C775   H781    1.108   .     S
C775   H852    1.110   .     S
C776   H779    1.111   .     S
C776   H777    1.110   .     S
C776   H778    1.108   .     S
O782   C783    1.419   .     S
C783   H785    1.116   .     S
C783   C786    1.533   .     S
C783   H784    1.111   .     S
C786   H788    1.111   .     S
C786   H787    1.110   .     S
C786   C789    1.526   .     S
C789   H792    1.111   .     S
C789   H790    1.111   .     S
C789   H791    1.110   .     S
O793   Cu799   1.964   .     S
O793   C795    1.290   .     A
O794   C795    1.289   .     A
O794   Cu800   1.964   .     S
C795   C836    1.450   .     S
O796   Cu799   1.962   .     S
O796   C798    1.296   .     A
O797   Cu800   1.952   .     S
O797   C798    1.293   .     A
C798   C822    1.471   .     S
Cu799  O801    1.964   .     S
Cu799  Cu800   2.672   .     S
Cu799  O803    1.952   .     S
Cu799  N841    2.008   .     S
Cu800  O804    1.962   .     S
Cu800  N846    2.008   .     S
Cu800  O802    1.964   .     S
O801   C805    1.289   .     A
O802   C805    1.289   .     A
O803   C806    1.296   .     A
O804   C806    1.298   .     A
C805   C831    1.449   .     S
C806   C810    1.486   .     S
C807   C821    1.403   .     A
H808   C818    1.084   .     S
H809   C159    1.085   1_556 S
C810   C821    1.428   .     A
C810   C820    1.420   .     A
C811   C812    1.386   .     A
C811   H823    1.083   .     S
C811   C822    1.402   .     A
C812   C165    1.390   1_556 S
C812   H177    1.083   1_556 S
C813   H824    1.079   .     S
C814   C815    1.417   .     A
C814   C165    1.416   1_556 S
C814   C168    1.423   1_556 S
C815   C819    1.412   .     A
C815   C822    1.420   .     A
C816   C820    1.401   .     A
C817   C818    1.393   .     A
C817   C159    1.397   1_556 S
C817   C168    1.410   1_556 S
C818   C819    1.388   .     A
C819   H826    1.078   .     S
C820   O854    1.388   .     S
C821   C847    1.517   .     S
C827   C836    1.401   .     A
C827   H828    1.083   .     S
C827   C1045   1.383   .     S
C829   H830    1.083   .     S
C829   C831    1.401   .     A
C829   C1259   1.383   1_545 S
C831   C832    1.401   .     A
C832   H833    1.083   .     S
C832   C1266   1.383   1_545 S
C834   C836    1.401   .     A
C834   H835    1.083   .     S
C834   C1048   1.383   .     S
C837   N846    1.366   .     A
C837   H838    1.082   .     S
C837   C695    1.415   1_655 S
C839   N841    1.367   .     A
C839   H840    1.082   .     S
N841   C842    1.366   .     A
C842   H843    1.082   .     S
C844   H845    1.079   .     S
C844   N846    1.367   .     A
C844   C698    1.414   1_655 S
C847   C848    1.530   .     S
C847   H853    1.108   .     S
C847   H708    1.110   1_655 S
C848   H851    1.111   .     S
C848   H849    1.110   .     S
C848   H850    1.108   .     S
O854   C855    1.419   .     S
C855   H857    1.116   .     S
C855   C858    1.533   .     S
C855   H856    1.111   .     S
C858   H860    1.111   .     S
C858   H859    1.110   .     S
C858   C861    1.526   .     S
C861   H864    1.111   .     S
C861   H862    1.111   .     S
C861   H863    1.110   .     S
O865   Cu871   1.964   .     S
O865   C867    1.290   .     A
O866   C867    1.289   .     A
O866   Cu872   1.964   .     S
C867   C908    1.450   .     S
O868   Cu871   1.962   .     S
O868   C870    1.296   .     A
O869   Cu872   1.952   .     S
O869   C870    1.293   .     A
C870   C894    1.471   .     S
Cu871  O873    1.964   .     S
Cu871  Cu872   2.672   .     S
Cu871  O875    1.952   .     S
Cu871  N913    2.008   .     S
Cu872  O876    1.962   .     S
Cu872  N918    2.008   .     S
Cu872  O874    1.964   .     S
O873   C877    1.289   .     A
O874   C877    1.289   .     A
O875   C878    1.296   .     A
O876   C878    1.298   .     A
C877   C903    1.449   .     S
C878   C882    1.486   .     S
C879   C893    1.403   .     A
H880   C890    1.084   .     S
H881   C231    1.085   1_556 S
C882   C893    1.428   .     A
C882   C892    1.420   .     A
C883   C884    1.386   .     A
C883   H895    1.083   .     S
C883   C894    1.402   .     A
C884   C237    1.390   1_556 S
C884   H249    1.083   1_556 S
C885   H896    1.079   .     S
C886   C887    1.417   .     A
C886   C237    1.416   1_556 S
C886   C240    1.423   1_556 S
C887   C891    1.412   .     A
C887   C894    1.420   .     A
C888   C892    1.401   .     A
C889   C890    1.393   .     A
C889   C231    1.397   1_556 S
C889   C240    1.410   1_556 S
C890   C891    1.388   .     A
C891   H898    1.078   .     S
C892   O926    1.388   .     S
C893   C919    1.517   .     S
C899   C908    1.401   .     A
C899   H900    1.083   .     S
C899   C1117   1.383   .     S
C901   H902    1.083   .     S
C901   C903    1.401   .     A
C903   C904    1.401   .     A
C904   H905    1.083   .     S
C906   C908    1.401   .     A
C906   H907    1.083   .     S
C906   C1120   1.383   .     S
C909   N918    1.366   .     A
C909   H910    1.082   .     S
C909   C983    1.415   .     S
C911   N913    1.367   .     A
C911   H912    1.082   .     S
C911   C1053   1.415   1_455 S
N913   C914    1.366   .     A
C914   H915    1.082   .     S
C914   C1060   1.414   1_455 S
C916   H917    1.079   .     S
C916   N918    1.367   .     A
C916   C986    1.414   .     S
C919   C920    1.530   .     S
C919   H925    1.108   .     S
C919   H996    1.110   .     S
C920   H923    1.111   .     S
C920   H921    1.110   .     S
C920   H922    1.108   .     S
H924   C1063   1.110   1_455 S
O926   C927    1.419   .     S
C927   H929    1.116   .     S
C927   C930    1.533   .     S
C927   H928    1.111   .     S
C930   H932    1.111   .     S
C930   H931    1.110   .     S
C930   C933    1.526   .     S
C933   H936    1.111   .     S
C933   H934    1.111   .     S
C933   H935    1.110   .     S
O937   Cu943   1.964   .     S
O937   C939    1.290   .     A
O938   C939    1.289   .     A
O938   Cu944   1.964   .     S
C939   C980    1.450   .     S
O940   Cu943   1.962   .     S
O940   C942    1.296   .     A
O941   Cu944   1.952   .     S
O941   C942    1.293   .     A
C942   C966    1.471   .     S
Cu943  O945    1.964   .     S
Cu943  Cu944   2.672   .     S
Cu943  O947    1.952   .     S
Cu943  N985    2.008   .     S
Cu944  O948    1.962   .     S
Cu944  N990    2.008   .     S
Cu944  O946    1.964   .     S
O945   C949    1.289   .     A
O946   C949    1.289   .     A
O947   C950    1.296   .     A
O948   C950    1.298   .     A
C949   C975    1.449   .     S
C950   C954    1.486   .     S
C951   C965    1.403   .     A
H952   C962    1.084   .     S
H953   C303    1.085   1_556 S
C954   C965    1.428   .     A
C954   C964    1.420   .     A
C955   C956    1.386   .     A
C955   H967    1.083   .     S
C955   C966    1.402   .     A
C956   C309    1.390   1_556 S
C956   H321    1.083   1_556 S
C957   H968    1.079   .     S
C958   C959    1.417   .     A
C958   C309    1.416   1_556 S
C958   C312    1.423   1_556 S
C959   C963    1.412   .     A
C959   C966    1.420   .     A
C960   C964    1.401   .     A
C961   C962    1.393   .     A
C961   C303    1.397   1_556 S
C961   C312    1.410   1_556 S
C962   C963    1.388   .     A
C963   H970    1.078   .     S
C964   O998    1.388   .     S
C965   C991    1.517   .     S
C971   C980    1.401   .     A
C971   H972    1.083   .     S
C971   C1189   1.383   .     S
C973   H974    1.083   .     S
C973   C975    1.401   .     A
C975   C976    1.401   .     A
C976   H977    1.083   .     S
C978   C980    1.401   .     A
C978   H979    1.083   .     S
C978   C1192   1.383   .     S
C981   N990    1.366   .     A
C981   H982    1.082   .     S
C981   C1055   1.415   .     S
C983   N985    1.367   .     A
C983   H984    1.082   .     S
N985   C986    1.366   .     A
C986   H987    1.082   .     S
C988   H989    1.079   .     S
C988   N990    1.367   .     A
C988   C1058   1.414   .     S
C991   C992    1.530   .     S
C991   H997    1.108   .     S
C991   H1068   1.110   .     S
C992   H995    1.111   .     S
C992   H993    1.110   .     S
C992   H994    1.108   .     S
O998   C999    1.419   .     S
C999   H1001   1.116   .     S
C999   C1002   1.533   .     S
C999   H1000   1.111   .     S
C1002  H1004   1.111   .     S
C1002  H1003   1.110   .     S
C1002  C1005   1.526   .     S
C1005  H1008   1.111   .     S
C1005  H1006   1.111   .     S
C1005  H1007   1.110   .     S
O1009  Cu1015  1.964   .     S
O1009  C1011   1.290   .     A
O1010  C1011   1.289   .     A
O1010  Cu1016  1.964   .     S
C1011  C1052   1.450   .     S
O1012  Cu1015  1.962   .     S
O1012  C1014   1.296   .     A
O1013  Cu1016  1.952   .     S
O1013  C1014   1.293   .     A
C1014  C1038   1.471   .     S
Cu1015 O1017   1.964   .     S
Cu1015 Cu1016  2.672   .     S
Cu1015 O1019   1.952   .     S
Cu1015 N1057   2.008   .     S
Cu1016 O1020   1.962   .     S
Cu1016 N1062   2.008   .     S
Cu1016 O1018   1.964   .     S
O1017  C1021   1.289   .     A
O1018  C1021   1.289   .     A
O1019  C1022   1.296   .     A
O1020  C1022   1.298   .     A
C1021  C1047   1.449   .     S
C1022  C1026   1.486   .     S
C1023  C1037   1.403   .     A
H1024  C1034   1.084   .     S
H1025  C375    1.085   1_556 S
C1026  C1037   1.428   .     A
C1026  C1036   1.420   .     A
C1027  C1028   1.386   .     A
C1027  H1039   1.083   .     S
C1027  C1038   1.402   .     A
C1028  C381    1.390   1_556 S
C1028  H393    1.083   1_556 S
C1029  H1040   1.079   .     S
C1030  C1031   1.417   .     A
C1030  C381    1.416   1_556 S
C1030  C384    1.423   1_556 S
C1031  C1035   1.412   .     A
C1031  C1038   1.420   .     A
C1032  C1036   1.401   .     A
C1033  C1034   1.393   .     A
C1033  C375    1.397   1_556 S
C1033  C384    1.410   1_556 S
C1034  C1035   1.388   .     A
C1035  H1042   1.078   .     S
C1036  O1070   1.388   .     S
C1037  C1063   1.517   .     S
C1043  C1052   1.401   .     A
C1043  H1044   1.083   .     S
C1043  C1261   1.383   .     S
C1045  H1046   1.083   .     S
C1045  C1047   1.401   .     A
C1047  C1048   1.401   .     A
C1048  H1049   1.083   .     S
C1050  C1052   1.401   .     A
C1050  H1051   1.083   .     S
C1050  C1264   1.383   .     S
C1053  N1062   1.366   .     A
C1053  H1054   1.082   .     S
C1053  C911    1.415   1_655 S
C1055  N1057   1.367   .     A
C1055  H1056   1.082   .     S
N1057  C1058   1.366   .     A
C1058  H1059   1.082   .     S
C1060  H1061   1.079   .     S
C1060  N1062   1.367   .     A
C1060  C914    1.414   1_655 S
C1063  C1064   1.530   .     S
C1063  H1069   1.108   .     S
C1063  H924    1.110   1_655 S
C1064  H1067   1.111   .     S
C1064  H1065   1.110   .     S
C1064  H1066   1.108   .     S
O1070  C1071   1.419   .     S
C1071  H1073   1.116   .     S
C1071  C1074   1.533   .     S
C1071  H1072   1.111   .     S
C1074  H1076   1.111   .     S
C1074  H1075   1.110   .     S
C1074  C1077   1.526   .     S
C1077  H1080   1.111   .     S
C1077  H1078   1.111   .     S
C1077  H1079   1.110   .     S
O1081  Cu1087  1.964   .     S
O1081  C1083   1.290   .     A
O1082  C1083   1.289   .     A
O1082  Cu1088  1.964   .     S
C1083  C1124   1.450   .     S
O1084  Cu1087  1.962   .     S
O1084  C1086   1.296   .     A
O1085  Cu1088  1.952   .     S
O1085  C1086   1.293   .     A
C1086  C1110   1.471   .     S
Cu1087 O1089   1.964   .     S
Cu1087 Cu1088  2.672   .     S
Cu1087 O1091   1.952   .     S
Cu1087 N1129   2.008   .     S
Cu1088 O1092   1.962   .     S
Cu1088 N1134   2.008   .     S
Cu1088 O1090   1.964   .     S
O1089  C1093   1.289   .     A
O1090  C1093   1.289   .     A
O1091  C1094   1.296   .     A
O1092  C1094   1.298   .     A
C1093  C1119   1.449   .     S
C1094  C1098   1.486   .     S
C1095  C1109   1.403   .     A
H1096  C1106   1.084   .     S
H1097  C447    1.085   1_556 S
C1098  C1109   1.428   .     A
C1098  C1108   1.420   .     A
C1099  C1100   1.386   .     A
C1099  H1111   1.083   .     S
C1099  C1110   1.402   .     A
C1100  C453    1.390   1_556 S
C1100  H465    1.083   1_556 S
C1101  H1112   1.079   .     S
C1102  C1103   1.417   .     A
C1102  C453    1.416   1_556 S
C1102  C456    1.423   1_556 S
C1103  C1107   1.412   .     A
C1103  C1110   1.420   .     A
C1104  C1108   1.401   .     A
C1105  C1106   1.393   .     A
C1105  C447    1.397   1_556 S
C1105  C456    1.410   1_556 S
C1106  C1107   1.388   .     A
C1107  H1114   1.078   .     S
C1108  O1142   1.388   .     S
C1109  C1135   1.517   .     S
C1115  C1124   1.401   .     A
C1115  H1116   1.083   .     S
C1115  C685    1.383   1_565 S
C1117  H1118   1.083   .     S
C1117  C1119   1.401   .     A
C1119  C1120   1.401   .     A
C1120  H1121   1.083   .     S
C1122  C1124   1.401   .     A
C1122  H1123   1.083   .     S
C1122  C688    1.383   1_565 S
C1125  N1134   1.366   .     A
C1125  H1126   1.082   .     S
C1125  C1199   1.415   .     S
C1127  N1129   1.367   .     A
C1127  H1128   1.082   .     S
C1127  C1269   1.415   1_455 S
N1129  C1130   1.366   .     A
C1130  H1131   1.082   .     S
C1130  C1276   1.414   1_455 S
C1132  H1133   1.079   .     S
C1132  N1134   1.367   .     A
C1132  C1202   1.414   .     S
C1135  C1136   1.530   .     S
C1135  H1141   1.108   .     S
C1135  H1212   1.110   .     S
C1136  H1139   1.111   .     S
C1136  H1137   1.110   .     S
C1136  H1138   1.108   .     S
H1140  C1279   1.110   1_455 S
O1142  C1143   1.419   .     S
C1143  H1145   1.116   .     S
C1143  C1146   1.533   .     S
C1143  H1144   1.111   .     S
C1146  H1148   1.111   .     S
C1146  H1147   1.110   .     S
C1146  C1149   1.526   .     S
C1149  H1152   1.111   .     S
C1149  H1150   1.111   .     S
C1149  H1151   1.110   .     S
O1153  Cu1159  1.964   .     S
O1153  C1155   1.290   .     A
O1154  C1155   1.289   .     A
O1154  Cu1160  1.964   .     S
C1155  C1196   1.450   .     S
O1156  Cu1159  1.962   .     S
O1156  C1158   1.296   .     A
O1157  Cu1160  1.952   .     S
O1157  C1158   1.293   .     A
C1158  C1182   1.471   .     S
Cu1159 O1161   1.964   .     S
Cu1159 Cu1160  2.672   .     S
Cu1159 O1163   1.952   .     S
Cu1159 N1201   2.008   .     S
Cu1160 O1164   1.962   .     S
Cu1160 N1206   2.008   .     S
Cu1160 O1162   1.964   .     S
O1161  C1165   1.289   .     A
O1162  C1165   1.289   .     A
O1163  C1166   1.296   .     A
O1164  C1166   1.298   .     A
C1165  C1191   1.449   .     S
C1166  C1170   1.486   .     S
C1167  C1181   1.403   .     A
H1168  C1178   1.084   .     S
H1169  C519    1.085   1_556 S
C1170  C1181   1.428   .     A
C1170  C1180   1.420   .     A
C1171  C1172   1.386   .     A
C1171  H1183   1.083   .     S
C1171  C1182   1.402   .     A
C1172  C525    1.390   1_556 S
C1172  H537    1.083   1_556 S
C1173  H1184   1.079   .     S
C1174  C1175   1.417   .     A
C1174  C525    1.416   1_556 S
C1174  C528    1.423   1_556 S
C1175  C1179   1.412   .     A
C1175  C1182   1.420   .     A
C1176  C1180   1.401   .     A
C1177  C1178   1.393   .     A
C1177  C519    1.397   1_556 S
C1177  C528    1.410   1_556 S
C1178  C1179   1.388   .     A
C1179  H1186   1.078   .     S
C1180  O1214   1.388   .     S
C1181  C1207   1.517   .     S
C1187  C1196   1.401   .     A
C1187  H1188   1.083   .     S
C1187  C757    1.383   1_565 S
C1189  H1190   1.083   .     S
C1189  C1191   1.401   .     A
C1191  C1192   1.401   .     A
C1192  H1193   1.083   .     S
C1194  C1196   1.401   .     A
C1194  H1195   1.083   .     S
C1194  C760    1.383   1_565 S
C1197  N1206   1.366   .     A
C1197  H1198   1.082   .     S
C1197  C1271   1.415   .     S
C1199  N1201   1.367   .     A
C1199  H1200   1.082   .     S
N1201  C1202   1.366   .     A
C1202  H1203   1.082   .     S
C1204  H1205   1.079   .     S
C1204  N1206   1.367   .     A
C1204  C1274   1.414   .     S
C1207  C1208   1.530   .     S
C1207  H1213   1.108   .     S
C1207  H1284   1.110   .     S
C1208  H1211   1.111   .     S
C1208  H1209   1.110   .     S
C1208  H1210   1.108   .     S
O1214  C1215   1.419   .     S
C1215  H1217   1.116   .     S
C1215  C1218   1.533   .     S
C1215  H1216   1.111   .     S
C1218  H1220   1.111   .     S
C1218  H1219   1.110   .     S
C1218  C1221   1.526   .     S
C1221  H1224   1.111   .     S
C1221  H1222   1.111   .     S
C1221  H1223   1.110   .     S
O1225  Cu1231  1.964   .     S
O1225  C1227   1.290   .     A
O1226  C1227   1.289   .     A
O1226  Cu1232  1.964   .     S
C1227  C1268   1.450   .     S
O1228  Cu1231  1.962   .     S
O1228  C1230   1.296   .     A
O1229  Cu1232  1.952   .     S
O1229  C1230   1.293   .     A
C1230  C1254   1.471   .     S
Cu1231 O1233   1.964   .     S
Cu1231 Cu1232  2.672   .     S
Cu1231 O1235   1.952   .     S
Cu1231 N1273   2.008   .     S
Cu1232 O1236   1.962   .     S
Cu1232 N1278   2.008   .     S
Cu1232 O1234   1.964   .     S
O1233  C1237   1.289   .     A
O1234  C1237   1.289   .     A
O1235  C1238   1.296   .     A
O1236  C1238   1.298   .     A
C1237  C1263   1.449   .     S
C1238  C1242   1.486   .     S
C1239  C1253   1.403   .     A
H1240  C1250   1.084   .     S
H1241  C591    1.085   1_556 S
C1242  C1253   1.428   .     A
C1242  C1252   1.420   .     A
C1243  C1244   1.386   .     A
C1243  H1255   1.083   .     S
C1243  C1254   1.402   .     A
C1244  C597    1.390   1_556 S
C1244  H609    1.083   1_556 S
C1245  H1256   1.079   .     S
C1246  C1247   1.417   .     A
C1246  C597    1.416   1_556 S
C1246  C600    1.423   1_556 S
C1247  C1251   1.412   .     A
C1247  C1254   1.420   .     A
C1248  C1252   1.401   .     A
C1249  C1250   1.393   .     A
C1249  C591    1.397   1_556 S
C1249  C600    1.410   1_556 S
C1250  C1251   1.388   .     A
C1251  H1258   1.078   .     S
C1252  O1286   1.388   .     S
C1253  C1279   1.517   .     S
C1259  C1268   1.401   .     A
C1259  H1260   1.083   .     S
C1259  C829    1.383   1_565 S
C1261  H1262   1.083   .     S
C1261  C1263   1.401   .     A
C1263  C1264   1.401   .     A
C1264  H1265   1.083   .     S
C1266  C1268   1.401   .     A
C1266  H1267   1.083   .     S
C1266  C832    1.383   1_565 S
C1269  N1278   1.366   .     A
C1269  H1270   1.082   .     S
C1269  C1127   1.415   1_655 S
C1271  N1273   1.367   .     A
C1271  H1272   1.082   .     S
N1273  C1274   1.366   .     A
C1274  H1275   1.082   .     S
C1276  H1277   1.079   .     S
C1276  N1278   1.367   .     A
C1276  C1130   1.414   1_655 S
C1279  C1280   1.530   .     S
C1279  H1285   1.108   .     S
C1279  H1140   1.110   1_655 S
C1280  H1283   1.111   .     S
C1280  H1281   1.110   .     S
C1280  H1282   1.108   .     S
O1286  C1287   1.419   .     S
C1287  H1289   1.116   .     S
C1287  C1290   1.533   .     S
C1287  H1288   1.111   .     S
C1290  H1292   1.111   .     S
C1290  H1291   1.110   .     S
C1290  C1293   1.526   .     S
C1293  H1296   1.111   .     S
C1293  H1294   1.111   .     S
C1293  H1295   1.110   .     S
