data_str_m2_o10_o16_pcu_sym.138
_audit_creation_date              2020-01-03
_audit_creation_method            'Materials Studio'
_symmetry_space_group_name_H-M    'P1'
_symmetry_Int_Tables_number       1
_symmetry_cell_setting            triclinic
loop_
_symmetry_equiv_pos_as_xyz
  x,y,z
_cell_length_a                    22.2468
_cell_length_b                    26.0659
_cell_length_c                    26.7369
_cell_angle_alpha                 93.9702
_cell_angle_beta                  76.8044
_cell_angle_gamma                 103.2909
loop_
_atom_site_label
_atom_site_type_symbol
_atom_site_fract_x
_atom_site_fract_y
_atom_site_fract_z
_atom_site_U_iso_or_equiv
_atom_site_adp_type
_atom_site_occupancy
C1     C     0.18179   0.26677   0.25159   0.00000  Uiso   1.00
C2     C     0.13710   0.16501   0.48864   0.00000  Uiso   1.00
C3     C     0.14980   0.18170   0.43713   0.00000  Uiso   1.00
C4     C     0.18442   0.18200   0.01799   0.00000  Uiso   1.00
C5     C     0.24077   0.21866   0.49706   0.00000  Uiso   1.00
C6     C     0.24843   0.24005   0.44907   0.00000  Uiso   1.00
C7     C     0.20319   0.22262   0.41995   0.00000  Uiso   1.00
C8     C     0.17783   0.16314   0.06729   0.00000  Uiso   1.00
C9     C     0.28079   0.21667   0.07445   0.00000  Uiso   1.00
C10    C     0.10936   0.15683   0.40393   0.00000  Uiso   1.00
C11    C     0.19031   0.32274   0.25235   0.00000  Uiso   1.00
C12    C     0.13212   0.16286   0.34746   0.00000  Uiso   1.00
C13    C     0.14296   0.01058   0.24780   0.00000  Uiso   1.00
C14    C     0.15150   0.06657   0.24852   0.00000  Uiso   1.00
C15    C     0.20136   0.17197   0.15271   0.00000  Uiso   1.00
C16    C     0.28877   0.23430   0.02454   0.00000  Uiso   1.00
C17    C     0.22287   0.18237   0.09704   0.00000  Uiso   1.00
C18    C     0.05150   0.12101   0.42499   0.00000  Uiso   1.00
C19    C     0.03547   0.11168   0.47769   0.00000  Uiso   1.00
C20    C     0.07765   0.13213   0.00876   0.00000  Uiso   1.00
Cu21   Cu    0.10710   0.16105   0.24436   0.00000  Uiso   1.00
Cu22   Cu    0.22623   0.17228   0.25565   0.00000  Uiso   1.00
H23    H     0.09736   0.32002   0.24349   0.00000  Uiso   1.00
H24    H     0.00397   0.20663   0.28894   0.00000  Uiso   1.00
H25    H     0.32937   0.12675   0.21102   0.00000  Uiso   1.00
H26    H     0.29001   0.27007   0.43364   0.00000  Uiso   1.00
H27    H     0.33207   0.26155   0.00725   0.00000  Uiso   1.00
H28    H     0.13688   0.13389   0.08438   0.00000  Uiso   1.00
H29    H     0.06179   0.12156   0.04858   0.00000  Uiso   1.00
H30    H     0.32407   0.08597   0.49470   0.00000  Uiso   1.00
H31    H     0.21076   0.24179   0.38376   0.00000  Uiso   1.00
H32    H     0.23592   0.01330   0.25665   0.00000  Uiso   1.00
N33    N     0.31574   0.18074   0.26416   0.00000  Uiso   1.00
N34    N     0.01759   0.15259   0.23584   0.00000  Uiso   1.00
O35    O     0.12797   0.23807   0.24633   0.00000  Uiso   1.00
O36    O     0.22858   0.24755   0.25587   0.00000  Uiso   1.00
O37    O     0.09181   0.15960   0.31840   0.00000  Uiso   1.00
O38    O     0.19242   0.16908   0.32793   0.00000  Uiso   1.00
O39    O     0.10476   0.08578   0.24414   0.00000  Uiso   1.00
O40    O     0.20536   0.09526   0.25367   0.00000  Uiso   1.00
O41    O     0.14092   0.16425   0.17207   0.00000  Uiso   1.00
O42    O     0.24152   0.17373   0.18161   0.00000  Uiso   1.00
S43    S     0.00987   0.24057   0.10696   0.00000  Uiso   1.00
O44    O     0.02986   0.19481   0.12448   0.00000  Uiso   1.00
O45    O     0.06617   0.27372   0.07222   0.00000  Uiso   1.00
O46    O     0.31854   0.27726   0.15844   0.00000  Uiso   1.00
H47    H     0.30198   0.30428   0.14478   0.00000  Uiso   1.00
C48    C     0.00683   0.08928   0.39323   0.00000  Uiso   1.00
C49    C     0.28974   0.11857   0.38853   0.00000  Uiso   1.00
H50    H     0.25835   0.12205   0.42680   0.00000  Uiso   1.00
H51    H     0.31171   0.15868   0.37331   0.00000  Uiso   1.00
H52    H     0.26053   0.09636   0.36217   0.00000  Uiso   1.00
H53    H     0.03251   0.07820   0.35490   0.00000  Uiso   1.00
H54    H     0.31572   0.05089   0.41176   0.00000  Uiso   1.00
C55    C     0.51512   0.26677   0.25159   0.00000  Uiso   1.00
C56    C     0.47043   0.16501   0.48864   0.00000  Uiso   1.00
C57    C     0.48313   0.18170   0.43713   0.00000  Uiso   1.00
C58    C     0.51776   0.18200   0.01799   0.00000  Uiso   1.00
C59    C     0.57410   0.21866   0.49706   0.00000  Uiso   1.00
C60    C     0.58177   0.24005   0.44907   0.00000  Uiso   1.00
C61    C     0.53652   0.22262   0.41995   0.00000  Uiso   1.00
C62    C     0.51117   0.16314   0.06729   0.00000  Uiso   1.00
C63    C     0.61413   0.21667   0.07445   0.00000  Uiso   1.00
C64    C     0.44269   0.15683   0.40393   0.00000  Uiso   1.00
C65    C     0.52365   0.32274   0.25235   0.00000  Uiso   1.00
C66    C     0.46545   0.16286   0.34746   0.00000  Uiso   1.00
C67    C     0.47629   0.01058   0.24780   0.00000  Uiso   1.00
C68    C     0.48484   0.06657   0.24852   0.00000  Uiso   1.00
C69    C     0.53469   0.17197   0.15271   0.00000  Uiso   1.00
C70    C     0.62210   0.23430   0.02454   0.00000  Uiso   1.00
C71    C     0.55620   0.18237   0.09704   0.00000  Uiso   1.00
C72    C     0.38483   0.12101   0.42499   0.00000  Uiso   1.00
C73    C     0.36880   0.11168   0.47769   0.00000  Uiso   1.00
C74    C     0.41099   0.13213   0.00876   0.00000  Uiso   1.00
Cu75   Cu    0.44043   0.16105   0.24436   0.00000  Uiso   1.00
Cu76   Cu    0.55957   0.17228   0.25565   0.00000  Uiso   1.00
H77    H     0.43069   0.32002   0.24349   0.00000  Uiso   1.00
H78    H     0.33730   0.20663   0.28894   0.00000  Uiso   1.00
H79    H     0.66271   0.12675   0.21102   0.00000  Uiso   1.00
H80    H     0.62334   0.27007   0.43364   0.00000  Uiso   1.00
H81    H     0.66540   0.26155   0.00725   0.00000  Uiso   1.00
H82    H     0.47021   0.13389   0.08438   0.00000  Uiso   1.00
H83    H     0.39512   0.12156   0.04858   0.00000  Uiso   1.00
H84    H     0.65740   0.08597   0.49470   0.00000  Uiso   1.00
H85    H     0.54409   0.24179   0.38376   0.00000  Uiso   1.00
H86    H     0.56926   0.01330   0.25665   0.00000  Uiso   1.00
N87    N     0.64908   0.18074   0.26416   0.00000  Uiso   1.00
N88    N     0.35092   0.15259   0.23584   0.00000  Uiso   1.00
O89    O     0.46131   0.23807   0.24633   0.00000  Uiso   1.00
O90    O     0.56191   0.24755   0.25587   0.00000  Uiso   1.00
O91    O     0.42515   0.15960   0.31840   0.00000  Uiso   1.00
O92    O     0.52575   0.16908   0.32793   0.00000  Uiso   1.00
O93    O     0.43809   0.08578   0.24414   0.00000  Uiso   1.00
O94    O     0.53869   0.09526   0.25367   0.00000  Uiso   1.00
O95    O     0.47425   0.16425   0.17207   0.00000  Uiso   1.00
O96    O     0.57485   0.17373   0.18161   0.00000  Uiso   1.00
S97    S     0.34320   0.24057   0.10696   0.00000  Uiso   1.00
O98    O     0.36320   0.19481   0.12448   0.00000  Uiso   1.00
O99    O     0.39950   0.27372   0.07222   0.00000  Uiso   1.00
O100   O     0.65187   0.27726   0.15844   0.00000  Uiso   1.00
H101   H     0.63532   0.30428   0.14478   0.00000  Uiso   1.00
C102   C     0.34016   0.08928   0.39323   0.00000  Uiso   1.00
C103   C     0.62307   0.11857   0.38853   0.00000  Uiso   1.00
H104   H     0.59168   0.12205   0.42680   0.00000  Uiso   1.00
H105   H     0.64505   0.15868   0.37331   0.00000  Uiso   1.00
H106   H     0.59386   0.09636   0.36217   0.00000  Uiso   1.00
H107   H     0.36584   0.07820   0.35490   0.00000  Uiso   1.00
H108   H     0.64905   0.05089   0.41176   0.00000  Uiso   1.00
C109   C     0.84845   0.26677   0.25159   0.00000  Uiso   1.00
C110   C     0.80377   0.16501   0.48864   0.00000  Uiso   1.00
C111   C     0.81646   0.18170   0.43713   0.00000  Uiso   1.00
C112   C     0.85109   0.18200   0.01799   0.00000  Uiso   1.00
C113   C     0.90744   0.21866   0.49706   0.00000  Uiso   1.00
C114   C     0.91510   0.24005   0.44907   0.00000  Uiso   1.00
C115   C     0.86985   0.22262   0.41995   0.00000  Uiso   1.00
C116   C     0.84450   0.16314   0.06729   0.00000  Uiso   1.00
C117   C     0.94746   0.21667   0.07445   0.00000  Uiso   1.00
C118   C     0.77603   0.15683   0.40393   0.00000  Uiso   1.00
C119   C     0.85698   0.32274   0.25235   0.00000  Uiso   1.00
C120   C     0.79879   0.16286   0.34746   0.00000  Uiso   1.00
C121   C     0.80963   0.01058   0.24780   0.00000  Uiso   1.00
C122   C     0.81817   0.06657   0.24852   0.00000  Uiso   1.00
C123   C     0.86802   0.17197   0.15271   0.00000  Uiso   1.00
C124   C     0.95543   0.23430   0.02454   0.00000  Uiso   1.00
C125   C     0.88954   0.18237   0.09704   0.00000  Uiso   1.00
C126   C     0.71816   0.12101   0.42499   0.00000  Uiso   1.00
C127   C     0.70213   0.11168   0.47769   0.00000  Uiso   1.00
C128   C     0.74432   0.13213   0.00876   0.00000  Uiso   1.00
Cu129  Cu    0.77377   0.16105   0.24436   0.00000  Uiso   1.00
Cu130  Cu    0.89290   0.17228   0.25565   0.00000  Uiso   1.00
H131   H     0.76403   0.32002   0.24349   0.00000  Uiso   1.00
H132   H     0.67064   0.20663   0.28894   0.00000  Uiso   1.00
H133   H     0.99604   0.12675   0.21102   0.00000  Uiso   1.00
H134   H     0.95667   0.27007   0.43364   0.00000  Uiso   1.00
H135   H     0.99873   0.26155   0.00725   0.00000  Uiso   1.00
H136   H     0.80354   0.13389   0.08438   0.00000  Uiso   1.00
H137   H     0.72846   0.12156   0.04858   0.00000  Uiso   1.00
H138   H     0.99073   0.08597   0.49470   0.00000  Uiso   1.00
H139   H     0.87742   0.24179   0.38376   0.00000  Uiso   1.00
H140   H     0.90259   0.01330   0.25665   0.00000  Uiso   1.00
N141   N     0.98241   0.18074   0.26416   0.00000  Uiso   1.00
N142   N     0.68426   0.15259   0.23584   0.00000  Uiso   1.00
O143   O     0.79464   0.23807   0.24633   0.00000  Uiso   1.00
O144   O     0.89524   0.24755   0.25587   0.00000  Uiso   1.00
O145   O     0.75848   0.15960   0.31840   0.00000  Uiso   1.00
O146   O     0.85908   0.16908   0.32793   0.00000  Uiso   1.00
O147   O     0.77142   0.08578   0.24414   0.00000  Uiso   1.00
O148   O     0.87203   0.09526   0.25367   0.00000  Uiso   1.00
O149   O     0.80758   0.16425   0.17207   0.00000  Uiso   1.00
O150   O     0.90819   0.17373   0.18161   0.00000  Uiso   1.00
S151   S     0.67654   0.24057   0.10696   0.00000  Uiso   1.00
O152   O     0.69653   0.19481   0.12448   0.00000  Uiso   1.00
O153   O     0.73283   0.27372   0.07222   0.00000  Uiso   1.00
O154   O     0.98521   0.27726   0.15844   0.00000  Uiso   1.00
H155   H     0.96865   0.30428   0.14478   0.00000  Uiso   1.00
C156   C     0.67349   0.08928   0.39323   0.00000  Uiso   1.00
C157   C     0.95641   0.11857   0.38853   0.00000  Uiso   1.00
H158   H     0.92501   0.12205   0.42680   0.00000  Uiso   1.00
H159   H     0.97838   0.15868   0.37331   0.00000  Uiso   1.00
H160   H     0.92720   0.09636   0.36217   0.00000  Uiso   1.00
H161   H     0.69917   0.07820   0.35490   0.00000  Uiso   1.00
H162   H     0.98239   0.05089   0.41176   0.00000  Uiso   1.00
C163   C     0.18179   0.60010   0.25159   0.00000  Uiso   1.00
C164   C     0.13710   0.49834   0.48864   0.00000  Uiso   1.00
C165   C     0.14980   0.51503   0.43713   0.00000  Uiso   1.00
C166   C     0.18442   0.51533   0.01799   0.00000  Uiso   1.00
C167   C     0.24077   0.55200   0.49706   0.00000  Uiso   1.00
C168   C     0.24843   0.57339   0.44907   0.00000  Uiso   1.00
C169   C     0.20319   0.55595   0.41995   0.00000  Uiso   1.00
C170   C     0.17783   0.49647   0.06729   0.00000  Uiso   1.00
C171   C     0.28079   0.55001   0.07445   0.00000  Uiso   1.00
C172   C     0.10936   0.49016   0.40393   0.00000  Uiso   1.00
C173   C     0.19031   0.65608   0.25235   0.00000  Uiso   1.00
C174   C     0.13212   0.49619   0.34746   0.00000  Uiso   1.00
C175   C     0.14296   0.34392   0.24780   0.00000  Uiso   1.00
C176   C     0.15150   0.39990   0.24852   0.00000  Uiso   1.00
C177   C     0.20136   0.50531   0.15271   0.00000  Uiso   1.00
C178   C     0.28877   0.56763   0.02454   0.00000  Uiso   1.00
C179   C     0.22287   0.51570   0.09704   0.00000  Uiso   1.00
C180   C     0.05150   0.45434   0.42499   0.00000  Uiso   1.00
C181   C     0.03547   0.44501   0.47769   0.00000  Uiso   1.00
C182   C     0.07765   0.46546   0.00876   0.00000  Uiso   1.00
Cu183  Cu    0.10710   0.49439   0.24436   0.00000  Uiso   1.00
Cu184  Cu    0.22623   0.50561   0.25565   0.00000  Uiso   1.00
H185   H     0.09736   0.65336   0.24349   0.00000  Uiso   1.00
H186   H     0.00397   0.53996   0.28894   0.00000  Uiso   1.00
H187   H     0.32937   0.46008   0.21102   0.00000  Uiso   1.00
H188   H     0.29001   0.60341   0.43364   0.00000  Uiso   1.00
H189   H     0.33207   0.59488   0.00725   0.00000  Uiso   1.00
H190   H     0.13688   0.46723   0.08438   0.00000  Uiso   1.00
H191   H     0.06179   0.45489   0.04858   0.00000  Uiso   1.00
H192   H     0.32407   0.41931   0.49470   0.00000  Uiso   1.00
H193   H     0.21076   0.57512   0.38376   0.00000  Uiso   1.00
H194   H     0.23592   0.34664   0.25665   0.00000  Uiso   1.00
N195   N     0.31574   0.51407   0.26416   0.00000  Uiso   1.00
N196   N     0.01759   0.48593   0.23584   0.00000  Uiso   1.00
O197   O     0.12797   0.57141   0.24633   0.00000  Uiso   1.00
O198   O     0.22858   0.58089   0.25587   0.00000  Uiso   1.00
O199   O     0.09181   0.49293   0.31840   0.00000  Uiso   1.00
O200   O     0.19242   0.50241   0.32793   0.00000  Uiso   1.00
O201   O     0.10476   0.41911   0.24414   0.00000  Uiso   1.00
O202   O     0.20536   0.42859   0.25367   0.00000  Uiso   1.00
O203   O     0.14092   0.49759   0.17207   0.00000  Uiso   1.00
O204   O     0.24152   0.50707   0.18161   0.00000  Uiso   1.00
S205   S     0.00987   0.57390   0.10696   0.00000  Uiso   1.00
O206   O     0.02986   0.52815   0.12448   0.00000  Uiso   1.00
O207   O     0.06617   0.60705   0.07222   0.00000  Uiso   1.00
O208   O     0.31854   0.61060   0.15844   0.00000  Uiso   1.00
H209   H     0.30198   0.63762   0.14478   0.00000  Uiso   1.00
C210   C     0.00683   0.42261   0.39323   0.00000  Uiso   1.00
C211   C     0.28974   0.45190   0.38853   0.00000  Uiso   1.00
H212   H     0.25835   0.45538   0.42680   0.00000  Uiso   1.00
H213   H     0.31171   0.49201   0.37331   0.00000  Uiso   1.00
H214   H     0.26053   0.42969   0.36217   0.00000  Uiso   1.00
H215   H     0.03251   0.41154   0.35490   0.00000  Uiso   1.00
H216   H     0.31572   0.38423   0.41176   0.00000  Uiso   1.00
C217   C     0.51512   0.60010   0.25159   0.00000  Uiso   1.00
C218   C     0.47043   0.49834   0.48864   0.00000  Uiso   1.00
C219   C     0.48313   0.51503   0.43713   0.00000  Uiso   1.00
C220   C     0.51776   0.51533   0.01799   0.00000  Uiso   1.00
C221   C     0.57410   0.55200   0.49706   0.00000  Uiso   1.00
C222   C     0.58177   0.57339   0.44907   0.00000  Uiso   1.00
C223   C     0.53652   0.55595   0.41995   0.00000  Uiso   1.00
C224   C     0.51117   0.49647   0.06729   0.00000  Uiso   1.00
C225   C     0.61413   0.55001   0.07445   0.00000  Uiso   1.00
C226   C     0.44269   0.49016   0.40393   0.00000  Uiso   1.00
C227   C     0.52365   0.65608   0.25235   0.00000  Uiso   1.00
C228   C     0.46545   0.49619   0.34746   0.00000  Uiso   1.00
C229   C     0.47629   0.34392   0.24780   0.00000  Uiso   1.00
C230   C     0.48484   0.39990   0.24852   0.00000  Uiso   1.00
C231   C     0.53469   0.50531   0.15271   0.00000  Uiso   1.00
C232   C     0.62210   0.56763   0.02454   0.00000  Uiso   1.00
C233   C     0.55620   0.51570   0.09704   0.00000  Uiso   1.00
C234   C     0.38483   0.45434   0.42499   0.00000  Uiso   1.00
C235   C     0.36880   0.44501   0.47769   0.00000  Uiso   1.00
C236   C     0.41099   0.46546   0.00876   0.00000  Uiso   1.00
Cu237  Cu    0.44043   0.49439   0.24436   0.00000  Uiso   1.00
Cu238  Cu    0.55957   0.50561   0.25565   0.00000  Uiso   1.00
H239   H     0.43069   0.65336   0.24349   0.00000  Uiso   1.00
H240   H     0.33730   0.53996   0.28894   0.00000  Uiso   1.00
H241   H     0.66271   0.46008   0.21102   0.00000  Uiso   1.00
H242   H     0.62334   0.60341   0.43364   0.00000  Uiso   1.00
H243   H     0.66540   0.59488   0.00725   0.00000  Uiso   1.00
H244   H     0.47021   0.46723   0.08438   0.00000  Uiso   1.00
H245   H     0.39512   0.45489   0.04858   0.00000  Uiso   1.00
H246   H     0.65740   0.41931   0.49470   0.00000  Uiso   1.00
H247   H     0.54409   0.57512   0.38376   0.00000  Uiso   1.00
H248   H     0.56926   0.34664   0.25665   0.00000  Uiso   1.00
N249   N     0.64908   0.51407   0.26416   0.00000  Uiso   1.00
N250   N     0.35092   0.48593   0.23584   0.00000  Uiso   1.00
O251   O     0.46131   0.57141   0.24633   0.00000  Uiso   1.00
O252   O     0.56191   0.58089   0.25587   0.00000  Uiso   1.00
O253   O     0.42515   0.49293   0.31840   0.00000  Uiso   1.00
O254   O     0.52575   0.50241   0.32793   0.00000  Uiso   1.00
O255   O     0.43809   0.41911   0.24414   0.00000  Uiso   1.00
O256   O     0.53869   0.42859   0.25367   0.00000  Uiso   1.00
O257   O     0.47425   0.49759   0.17207   0.00000  Uiso   1.00
O258   O     0.57485   0.50707   0.18161   0.00000  Uiso   1.00
S259   S     0.34320   0.57390   0.10696   0.00000  Uiso   1.00
O260   O     0.36320   0.52815   0.12448   0.00000  Uiso   1.00
O261   O     0.39950   0.60705   0.07222   0.00000  Uiso   1.00
O262   O     0.65187   0.61060   0.15844   0.00000  Uiso   1.00
H263   H     0.63532   0.63762   0.14478   0.00000  Uiso   1.00
C264   C     0.34016   0.42261   0.39323   0.00000  Uiso   1.00
C265   C     0.62307   0.45190   0.38853   0.00000  Uiso   1.00
H266   H     0.59168   0.45538   0.42680   0.00000  Uiso   1.00
H267   H     0.64505   0.49201   0.37331   0.00000  Uiso   1.00
H268   H     0.59386   0.42969   0.36217   0.00000  Uiso   1.00
H269   H     0.36584   0.41154   0.35490   0.00000  Uiso   1.00
H270   H     0.64905   0.38423   0.41176   0.00000  Uiso   1.00
C271   C     0.84845   0.60010   0.25159   0.00000  Uiso   1.00
C272   C     0.80377   0.49834   0.48864   0.00000  Uiso   1.00
C273   C     0.81646   0.51503   0.43713   0.00000  Uiso   1.00
C274   C     0.85109   0.51533   0.01799   0.00000  Uiso   1.00
C275   C     0.90744   0.55200   0.49706   0.00000  Uiso   1.00
C276   C     0.91510   0.57339   0.44907   0.00000  Uiso   1.00
C277   C     0.86985   0.55595   0.41995   0.00000  Uiso   1.00
C278   C     0.84450   0.49647   0.06729   0.00000  Uiso   1.00
C279   C     0.94746   0.55001   0.07445   0.00000  Uiso   1.00
C280   C     0.77603   0.49016   0.40393   0.00000  Uiso   1.00
C281   C     0.85698   0.65608   0.25235   0.00000  Uiso   1.00
C282   C     0.79879   0.49619   0.34746   0.00000  Uiso   1.00
C283   C     0.80963   0.34392   0.24780   0.00000  Uiso   1.00
C284   C     0.81817   0.39990   0.24852   0.00000  Uiso   1.00
C285   C     0.86802   0.50531   0.15271   0.00000  Uiso   1.00
C286   C     0.95543   0.56763   0.02454   0.00000  Uiso   1.00
C287   C     0.88954   0.51570   0.09704   0.00000  Uiso   1.00
C288   C     0.71816   0.45434   0.42499   0.00000  Uiso   1.00
C289   C     0.70213   0.44501   0.47769   0.00000  Uiso   1.00
C290   C     0.74432   0.46546   0.00876   0.00000  Uiso   1.00
Cu291  Cu    0.77377   0.49439   0.24436   0.00000  Uiso   1.00
Cu292  Cu    0.89290   0.50561   0.25565   0.00000  Uiso   1.00
H293   H     0.76403   0.65336   0.24349   0.00000  Uiso   1.00
H294   H     0.67064   0.53996   0.28894   0.00000  Uiso   1.00
H295   H     0.99604   0.46008   0.21102   0.00000  Uiso   1.00
H296   H     0.95667   0.60341   0.43364   0.00000  Uiso   1.00
H297   H     0.99873   0.59488   0.00725   0.00000  Uiso   1.00
H298   H     0.80354   0.46723   0.08438   0.00000  Uiso   1.00
H299   H     0.72846   0.45489   0.04858   0.00000  Uiso   1.00
H300   H     0.99073   0.41931   0.49470   0.00000  Uiso   1.00
H301   H     0.87742   0.57512   0.38376   0.00000  Uiso   1.00
H302   H     0.90259   0.34664   0.25665   0.00000  Uiso   1.00
N303   N     0.98241   0.51407   0.26416   0.00000  Uiso   1.00
N304   N     0.68426   0.48593   0.23584   0.00000  Uiso   1.00
O305   O     0.79464   0.57141   0.24633   0.00000  Uiso   1.00
O306   O     0.89524   0.58089   0.25587   0.00000  Uiso   1.00
O307   O     0.75848   0.49293   0.31840   0.00000  Uiso   1.00
O308   O     0.85908   0.50241   0.32793   0.00000  Uiso   1.00
O309   O     0.77142   0.41911   0.24414   0.00000  Uiso   1.00
O310   O     0.87203   0.42859   0.25367   0.00000  Uiso   1.00
O311   O     0.80758   0.49759   0.17207   0.00000  Uiso   1.00
O312   O     0.90819   0.50707   0.18161   0.00000  Uiso   1.00
S313   S     0.67654   0.57390   0.10696   0.00000  Uiso   1.00
O314   O     0.69653   0.52815   0.12448   0.00000  Uiso   1.00
O315   O     0.73283   0.60705   0.07222   0.00000  Uiso   1.00
O316   O     0.98521   0.61060   0.15844   0.00000  Uiso   1.00
H317   H     0.96865   0.63762   0.14478   0.00000  Uiso   1.00
C318   C     0.67349   0.42261   0.39323   0.00000  Uiso   1.00
C319   C     0.95641   0.45190   0.38853   0.00000  Uiso   1.00
H320   H     0.92501   0.45538   0.42680   0.00000  Uiso   1.00
H321   H     0.97838   0.49201   0.37331   0.00000  Uiso   1.00
H322   H     0.92720   0.42969   0.36217   0.00000  Uiso   1.00
H323   H     0.69917   0.41154   0.35490   0.00000  Uiso   1.00
H324   H     0.98239   0.38423   0.41176   0.00000  Uiso   1.00
C325   C     0.18179   0.93343   0.25159   0.00000  Uiso   1.00
C326   C     0.13710   0.83168   0.48864   0.00000  Uiso   1.00
C327   C     0.14980   0.84837   0.43713   0.00000  Uiso   1.00
C328   C     0.18442   0.84867   0.01799   0.00000  Uiso   1.00
C329   C     0.24077   0.88533   0.49706   0.00000  Uiso   1.00
C330   C     0.24843   0.90672   0.44907   0.00000  Uiso   1.00
C331   C     0.20319   0.88929   0.41995   0.00000  Uiso   1.00
C332   C     0.17783   0.82981   0.06729   0.00000  Uiso   1.00
C333   C     0.28079   0.88334   0.07445   0.00000  Uiso   1.00
C334   C     0.10936   0.82349   0.40393   0.00000  Uiso   1.00
C335   C     0.19031   0.98941   0.25235   0.00000  Uiso   1.00
C336   C     0.13212   0.82953   0.34746   0.00000  Uiso   1.00
C337   C     0.14296   0.67725   0.24780   0.00000  Uiso   1.00
C338   C     0.15150   0.73323   0.24852   0.00000  Uiso   1.00
C339   C     0.20136   0.83864   0.15271   0.00000  Uiso   1.00
C340   C     0.28877   0.90097   0.02454   0.00000  Uiso   1.00
C341   C     0.22287   0.84904   0.09704   0.00000  Uiso   1.00
C342   C     0.05150   0.78767   0.42499   0.00000  Uiso   1.00
C343   C     0.03547   0.77834   0.47769   0.00000  Uiso   1.00
C344   C     0.07765   0.79879   0.00876   0.00000  Uiso   1.00
Cu345  Cu    0.10710   0.82772   0.24436   0.00000  Uiso   1.00
Cu346  Cu    0.22623   0.83895   0.25565   0.00000  Uiso   1.00
H347   H     0.09736   0.98669   0.24349   0.00000  Uiso   1.00
H348   H     0.00397   0.87330   0.28894   0.00000  Uiso   1.00
H349   H     0.32937   0.79342   0.21102   0.00000  Uiso   1.00
H350   H     0.29001   0.93674   0.43364   0.00000  Uiso   1.00
H351   H     0.33207   0.92822   0.00725   0.00000  Uiso   1.00
H352   H     0.13688   0.80056   0.08438   0.00000  Uiso   1.00
H353   H     0.06179   0.78823   0.04858   0.00000  Uiso   1.00
H354   H     0.32407   0.75264   0.49470   0.00000  Uiso   1.00
H355   H     0.21076   0.90846   0.38376   0.00000  Uiso   1.00
H356   H     0.23592   0.67997   0.25665   0.00000  Uiso   1.00
N357   N     0.31574   0.84741   0.26416   0.00000  Uiso   1.00
N358   N     0.01759   0.81926   0.23584   0.00000  Uiso   1.00
O359   O     0.12797   0.90474   0.24633   0.00000  Uiso   1.00
O360   O     0.22858   0.91422   0.25587   0.00000  Uiso   1.00
O361   O     0.09181   0.82627   0.31840   0.00000  Uiso   1.00
O362   O     0.19242   0.83575   0.32793   0.00000  Uiso   1.00
O363   O     0.10476   0.75245   0.24414   0.00000  Uiso   1.00
O364   O     0.20536   0.76193   0.25367   0.00000  Uiso   1.00
O365   O     0.14092   0.83092   0.17207   0.00000  Uiso   1.00
O366   O     0.24152   0.84040   0.18161   0.00000  Uiso   1.00
S367   S     0.00987   0.90723   0.10696   0.00000  Uiso   1.00
O368   O     0.02986   0.86148   0.12448   0.00000  Uiso   1.00
O369   O     0.06617   0.94039   0.07222   0.00000  Uiso   1.00
O370   O     0.31854   0.94393   0.15844   0.00000  Uiso   1.00
H371   H     0.30198   0.97095   0.14478   0.00000  Uiso   1.00
C372   C     0.00683   0.75595   0.39323   0.00000  Uiso   1.00
C373   C     0.28974   0.78523   0.38853   0.00000  Uiso   1.00
H374   H     0.25835   0.78871   0.42680   0.00000  Uiso   1.00
H375   H     0.31171   0.82534   0.37331   0.00000  Uiso   1.00
H376   H     0.26053   0.76303   0.36217   0.00000  Uiso   1.00
H377   H     0.03251   0.74487   0.35490   0.00000  Uiso   1.00
H378   H     0.31572   0.71756   0.41176   0.00000  Uiso   1.00
C379   C     0.51512   0.93343   0.25159   0.00000  Uiso   1.00
C380   C     0.47043   0.83168   0.48864   0.00000  Uiso   1.00
C381   C     0.48313   0.84837   0.43713   0.00000  Uiso   1.00
C382   C     0.51776   0.84867   0.01799   0.00000  Uiso   1.00
C383   C     0.57410   0.88533   0.49706   0.00000  Uiso   1.00
C384   C     0.58177   0.90672   0.44907   0.00000  Uiso   1.00
C385   C     0.53652   0.88929   0.41995   0.00000  Uiso   1.00
C386   C     0.51117   0.82981   0.06729   0.00000  Uiso   1.00
C387   C     0.61413   0.88334   0.07445   0.00000  Uiso   1.00
C388   C     0.44269   0.82349   0.40393   0.00000  Uiso   1.00
C389   C     0.52365   0.98941   0.25235   0.00000  Uiso   1.00
C390   C     0.46545   0.82953   0.34746   0.00000  Uiso   1.00
C391   C     0.47629   0.67725   0.24780   0.00000  Uiso   1.00
C392   C     0.48484   0.73323   0.24852   0.00000  Uiso   1.00
C393   C     0.53469   0.83864   0.15271   0.00000  Uiso   1.00
C394   C     0.62210   0.90097   0.02454   0.00000  Uiso   1.00
C395   C     0.55620   0.84904   0.09704   0.00000  Uiso   1.00
C396   C     0.38483   0.78767   0.42499   0.00000  Uiso   1.00
C397   C     0.36880   0.77834   0.47769   0.00000  Uiso   1.00
C398   C     0.41099   0.79879   0.00876   0.00000  Uiso   1.00
Cu399  Cu    0.44043   0.82772   0.24436   0.00000  Uiso   1.00
Cu400  Cu    0.55957   0.83895   0.25565   0.00000  Uiso   1.00
H401   H     0.43069   0.98669   0.24349   0.00000  Uiso   1.00
H402   H     0.33730   0.87330   0.28894   0.00000  Uiso   1.00
H403   H     0.66271   0.79342   0.21102   0.00000  Uiso   1.00
H404   H     0.62334   0.93674   0.43364   0.00000  Uiso   1.00
H405   H     0.66540   0.92822   0.00725   0.00000  Uiso   1.00
H406   H     0.47021   0.80056   0.08438   0.00000  Uiso   1.00
H407   H     0.39512   0.78823   0.04858   0.00000  Uiso   1.00
H408   H     0.65740   0.75264   0.49470   0.00000  Uiso   1.00
H409   H     0.54409   0.90846   0.38376   0.00000  Uiso   1.00
H410   H     0.56926   0.67997   0.25665   0.00000  Uiso   1.00
N411   N     0.64908   0.84741   0.26416   0.00000  Uiso   1.00
N412   N     0.35092   0.81926   0.23584   0.00000  Uiso   1.00
O413   O     0.46131   0.90474   0.24633   0.00000  Uiso   1.00
O414   O     0.56191   0.91422   0.25587   0.00000  Uiso   1.00
O415   O     0.42515   0.82627   0.31840   0.00000  Uiso   1.00
O416   O     0.52575   0.83575   0.32793   0.00000  Uiso   1.00
O417   O     0.43809   0.75245   0.24414   0.00000  Uiso   1.00
O418   O     0.53869   0.76193   0.25367   0.00000  Uiso   1.00
O419   O     0.47425   0.83092   0.17207   0.00000  Uiso   1.00
O420   O     0.57485   0.84040   0.18161   0.00000  Uiso   1.00
S421   S     0.34320   0.90723   0.10696   0.00000  Uiso   1.00
O422   O     0.36320   0.86148   0.12448   0.00000  Uiso   1.00
O423   O     0.39950   0.94039   0.07222   0.00000  Uiso   1.00
O424   O     0.65187   0.94393   0.15844   0.00000  Uiso   1.00
H425   H     0.63532   0.97095   0.14478   0.00000  Uiso   1.00
C426   C     0.34016   0.75595   0.39323   0.00000  Uiso   1.00
C427   C     0.62307   0.78523   0.38853   0.00000  Uiso   1.00
H428   H     0.59168   0.78871   0.42680   0.00000  Uiso   1.00
H429   H     0.64505   0.82534   0.37331   0.00000  Uiso   1.00
H430   H     0.59386   0.76303   0.36217   0.00000  Uiso   1.00
H431   H     0.36584   0.74487   0.35490   0.00000  Uiso   1.00
H432   H     0.64905   0.71756   0.41176   0.00000  Uiso   1.00
C433   C     0.84845   0.93343   0.25159   0.00000  Uiso   1.00
C434   C     0.80377   0.83168   0.48864   0.00000  Uiso   1.00
C435   C     0.81646   0.84837   0.43713   0.00000  Uiso   1.00
C436   C     0.85109   0.84867   0.01799   0.00000  Uiso   1.00
C437   C     0.90744   0.88533   0.49706   0.00000  Uiso   1.00
C438   C     0.91510   0.90672   0.44907   0.00000  Uiso   1.00
C439   C     0.86985   0.88929   0.41995   0.00000  Uiso   1.00
C440   C     0.84450   0.82981   0.06729   0.00000  Uiso   1.00
C441   C     0.94746   0.88334   0.07445   0.00000  Uiso   1.00
C442   C     0.77603   0.82349   0.40393   0.00000  Uiso   1.00
C443   C     0.85698   0.98941   0.25235   0.00000  Uiso   1.00
C444   C     0.79879   0.82953   0.34746   0.00000  Uiso   1.00
C445   C     0.80963   0.67725   0.24780   0.00000  Uiso   1.00
C446   C     0.81817   0.73323   0.24852   0.00000  Uiso   1.00
C447   C     0.86802   0.83864   0.15271   0.00000  Uiso   1.00
C448   C     0.95543   0.90097   0.02454   0.00000  Uiso   1.00
C449   C     0.88954   0.84904   0.09704   0.00000  Uiso   1.00
C450   C     0.71816   0.78767   0.42499   0.00000  Uiso   1.00
C451   C     0.70213   0.77834   0.47769   0.00000  Uiso   1.00
C452   C     0.74432   0.79879   0.00876   0.00000  Uiso   1.00
Cu453  Cu    0.77377   0.82772   0.24436   0.00000  Uiso   1.00
Cu454  Cu    0.89290   0.83895   0.25565   0.00000  Uiso   1.00
H455   H     0.76403   0.98669   0.24349   0.00000  Uiso   1.00
H456   H     0.67064   0.87330   0.28894   0.00000  Uiso   1.00
H457   H     0.99604   0.79342   0.21102   0.00000  Uiso   1.00
H458   H     0.95667   0.93674   0.43364   0.00000  Uiso   1.00
H459   H     0.99873   0.92822   0.00725   0.00000  Uiso   1.00
H460   H     0.80354   0.80056   0.08438   0.00000  Uiso   1.00
H461   H     0.72846   0.78823   0.04858   0.00000  Uiso   1.00
H462   H     0.99073   0.75264   0.49470   0.00000  Uiso   1.00
H463   H     0.87742   0.90846   0.38376   0.00000  Uiso   1.00
H464   H     0.90259   0.67997   0.25665   0.00000  Uiso   1.00
N465   N     0.98241   0.84741   0.26416   0.00000  Uiso   1.00
N466   N     0.68426   0.81926   0.23584   0.00000  Uiso   1.00
O467   O     0.79464   0.90474   0.24633   0.00000  Uiso   1.00
O468   O     0.89524   0.91422   0.25587   0.00000  Uiso   1.00
O469   O     0.75848   0.82627   0.31840   0.00000  Uiso   1.00
O470   O     0.85908   0.83575   0.32793   0.00000  Uiso   1.00
O471   O     0.77142   0.75245   0.24414   0.00000  Uiso   1.00
O472   O     0.87203   0.76193   0.25367   0.00000  Uiso   1.00
O473   O     0.80758   0.83092   0.17207   0.00000  Uiso   1.00
O474   O     0.90819   0.84040   0.18161   0.00000  Uiso   1.00
S475   S     0.67654   0.90723   0.10696   0.00000  Uiso   1.00
O476   O     0.69653   0.86148   0.12448   0.00000  Uiso   1.00
O477   O     0.73283   0.94039   0.07222   0.00000  Uiso   1.00
O478   O     0.98521   0.94393   0.15844   0.00000  Uiso   1.00
H479   H     0.96865   0.97095   0.14478   0.00000  Uiso   1.00
C480   C     0.67349   0.75595   0.39323   0.00000  Uiso   1.00
C481   C     0.95641   0.78523   0.38853   0.00000  Uiso   1.00
H482   H     0.92501   0.78871   0.42680   0.00000  Uiso   1.00
H483   H     0.97838   0.82534   0.37331   0.00000  Uiso   1.00
H484   H     0.92720   0.76303   0.36217   0.00000  Uiso   1.00
H485   H     0.69917   0.74487   0.35490   0.00000  Uiso   1.00
H486   H     0.98239   0.71756   0.41176   0.00000  Uiso   1.00
C487   C     0.18179   0.26677   0.75159   0.00000  Uiso   1.00
C488   C     0.13710   0.16501   0.98864   0.00000  Uiso   1.00
C489   C     0.14980   0.18170   0.93713   0.00000  Uiso   1.00
C490   C     0.18442   0.18200   0.51799   0.00000  Uiso   1.00
C491   C     0.24077   0.21866   0.99706   0.00000  Uiso   1.00
C492   C     0.24843   0.24005   0.94907   0.00000  Uiso   1.00
C493   C     0.20319   0.22262   0.91995   0.00000  Uiso   1.00
C494   C     0.17783   0.16314   0.56729   0.00000  Uiso   1.00
C495   C     0.28079   0.21667   0.57445   0.00000  Uiso   1.00
C496   C     0.10936   0.15683   0.90393   0.00000  Uiso   1.00
C497   C     0.19031   0.32274   0.75235   0.00000  Uiso   1.00
C498   C     0.13212   0.16286   0.84746   0.00000  Uiso   1.00
C499   C     0.14296   0.01058   0.74780   0.00000  Uiso   1.00
C500   C     0.15150   0.06657   0.74852   0.00000  Uiso   1.00
C501   C     0.20136   0.17197   0.65271   0.00000  Uiso   1.00
C502   C     0.28877   0.23430   0.52454   0.00000  Uiso   1.00
C503   C     0.22287   0.18237   0.59704   0.00000  Uiso   1.00
C504   C     0.05150   0.12101   0.92499   0.00000  Uiso   1.00
C505   C     0.03547   0.11168   0.97769   0.00000  Uiso   1.00
C506   C     0.07765   0.13213   0.50876   0.00000  Uiso   1.00
Cu507  Cu    0.10710   0.16105   0.74436   0.00000  Uiso   1.00
Cu508  Cu    0.22623   0.17228   0.75565   0.00000  Uiso   1.00
H509   H     0.09736   0.32002   0.74349   0.00000  Uiso   1.00
H510   H     0.00397   0.20663   0.78894   0.00000  Uiso   1.00
H511   H     0.32937   0.12675   0.71102   0.00000  Uiso   1.00
H512   H     0.29001   0.27007   0.93364   0.00000  Uiso   1.00
H513   H     0.33207   0.26155   0.50725   0.00000  Uiso   1.00
H514   H     0.13688   0.13389   0.58438   0.00000  Uiso   1.00
H515   H     0.06179   0.12156   0.54858   0.00000  Uiso   1.00
H516   H     0.32407   0.08597   0.99470   0.00000  Uiso   1.00
H517   H     0.21076   0.24179   0.88376   0.00000  Uiso   1.00
H518   H     0.23592   0.01330   0.75665   0.00000  Uiso   1.00
N519   N     0.31574   0.18074   0.76416   0.00000  Uiso   1.00
N520   N     0.01759   0.15259   0.73584   0.00000  Uiso   1.00
O521   O     0.12797   0.23807   0.74633   0.00000  Uiso   1.00
O522   O     0.22858   0.24755   0.75587   0.00000  Uiso   1.00
O523   O     0.09181   0.15960   0.81840   0.00000  Uiso   1.00
O524   O     0.19242   0.16908   0.82793   0.00000  Uiso   1.00
O525   O     0.10476   0.08578   0.74414   0.00000  Uiso   1.00
O526   O     0.20536   0.09526   0.75367   0.00000  Uiso   1.00
O527   O     0.14092   0.16425   0.67207   0.00000  Uiso   1.00
O528   O     0.24152   0.17373   0.68161   0.00000  Uiso   1.00
S529   S     0.00987   0.24057   0.60696   0.00000  Uiso   1.00
O530   O     0.02986   0.19481   0.62448   0.00000  Uiso   1.00
O531   O     0.06617   0.27372   0.57222   0.00000  Uiso   1.00
O532   O     0.31854   0.27726   0.65844   0.00000  Uiso   1.00
H533   H     0.30198   0.30428   0.64478   0.00000  Uiso   1.00
C534   C     0.00683   0.08928   0.89323   0.00000  Uiso   1.00
C535   C     0.28974   0.11857   0.88853   0.00000  Uiso   1.00
H536   H     0.25835   0.12205   0.92680   0.00000  Uiso   1.00
H537   H     0.31171   0.15868   0.87331   0.00000  Uiso   1.00
H538   H     0.26053   0.09636   0.86217   0.00000  Uiso   1.00
H539   H     0.03251   0.07820   0.85490   0.00000  Uiso   1.00
H540   H     0.31572   0.05089   0.91176   0.00000  Uiso   1.00
C541   C     0.51512   0.26677   0.75159   0.00000  Uiso   1.00
C542   C     0.47043   0.16501   0.98864   0.00000  Uiso   1.00
C543   C     0.48313   0.18170   0.93713   0.00000  Uiso   1.00
C544   C     0.51776   0.18200   0.51799   0.00000  Uiso   1.00
C545   C     0.57410   0.21866   0.99706   0.00000  Uiso   1.00
C546   C     0.58177   0.24005   0.94907   0.00000  Uiso   1.00
C547   C     0.53652   0.22262   0.91995   0.00000  Uiso   1.00
C548   C     0.51117   0.16314   0.56729   0.00000  Uiso   1.00
C549   C     0.61413   0.21667   0.57445   0.00000  Uiso   1.00
C550   C     0.44269   0.15683   0.90393   0.00000  Uiso   1.00
C551   C     0.52365   0.32274   0.75235   0.00000  Uiso   1.00
C552   C     0.46545   0.16286   0.84746   0.00000  Uiso   1.00
C553   C     0.47629   0.01058   0.74780   0.00000  Uiso   1.00
C554   C     0.48484   0.06657   0.74852   0.00000  Uiso   1.00
C555   C     0.53469   0.17197   0.65271   0.00000  Uiso   1.00
C556   C     0.62210   0.23430   0.52454   0.00000  Uiso   1.00
C557   C     0.55620   0.18237   0.59704   0.00000  Uiso   1.00
C558   C     0.38483   0.12101   0.92499   0.00000  Uiso   1.00
C559   C     0.36880   0.11168   0.97769   0.00000  Uiso   1.00
C560   C     0.41099   0.13213   0.50876   0.00000  Uiso   1.00
Cu561  Cu    0.44043   0.16105   0.74436   0.00000  Uiso   1.00
Cu562  Cu    0.55957   0.17228   0.75565   0.00000  Uiso   1.00
H563   H     0.43069   0.32002   0.74349   0.00000  Uiso   1.00
H564   H     0.33730   0.20663   0.78894   0.00000  Uiso   1.00
H565   H     0.66271   0.12675   0.71102   0.00000  Uiso   1.00
H566   H     0.62334   0.27007   0.93364   0.00000  Uiso   1.00
H567   H     0.66540   0.26155   0.50725   0.00000  Uiso   1.00
H568   H     0.47021   0.13389   0.58438   0.00000  Uiso   1.00
H569   H     0.39512   0.12156   0.54858   0.00000  Uiso   1.00
H570   H     0.65740   0.08597   0.99470   0.00000  Uiso   1.00
H571   H     0.54409   0.24179   0.88376   0.00000  Uiso   1.00
H572   H     0.56926   0.01330   0.75665   0.00000  Uiso   1.00
N573   N     0.64908   0.18074   0.76416   0.00000  Uiso   1.00
N574   N     0.35092   0.15259   0.73584   0.00000  Uiso   1.00
O575   O     0.46131   0.23807   0.74633   0.00000  Uiso   1.00
O576   O     0.56191   0.24755   0.75587   0.00000  Uiso   1.00
O577   O     0.42515   0.15960   0.81840   0.00000  Uiso   1.00
O578   O     0.52575   0.16908   0.82793   0.00000  Uiso   1.00
O579   O     0.43809   0.08578   0.74414   0.00000  Uiso   1.00
O580   O     0.53869   0.09526   0.75367   0.00000  Uiso   1.00
O581   O     0.47425   0.16425   0.67207   0.00000  Uiso   1.00
O582   O     0.57485   0.17373   0.68161   0.00000  Uiso   1.00
S583   S     0.34320   0.24057   0.60696   0.00000  Uiso   1.00
O584   O     0.36320   0.19481   0.62448   0.00000  Uiso   1.00
O585   O     0.39950   0.27372   0.57222   0.00000  Uiso   1.00
O586   O     0.65187   0.27726   0.65844   0.00000  Uiso   1.00
H587   H     0.63532   0.30428   0.64478   0.00000  Uiso   1.00
C588   C     0.34016   0.08928   0.89323   0.00000  Uiso   1.00
C589   C     0.62307   0.11857   0.88853   0.00000  Uiso   1.00
H590   H     0.59168   0.12205   0.92680   0.00000  Uiso   1.00
H591   H     0.64505   0.15868   0.87331   0.00000  Uiso   1.00
H592   H     0.59386   0.09636   0.86217   0.00000  Uiso   1.00
H593   H     0.36584   0.07820   0.85490   0.00000  Uiso   1.00
H594   H     0.64905   0.05089   0.91176   0.00000  Uiso   1.00
C595   C     0.84845   0.26677   0.75159   0.00000  Uiso   1.00
C596   C     0.80377   0.16501   0.98864   0.00000  Uiso   1.00
C597   C     0.81646   0.18170   0.93713   0.00000  Uiso   1.00
C598   C     0.85109   0.18200   0.51799   0.00000  Uiso   1.00
C599   C     0.90744   0.21866   0.99706   0.00000  Uiso   1.00
C600   C     0.91510   0.24005   0.94907   0.00000  Uiso   1.00
C601   C     0.86985   0.22262   0.91995   0.00000  Uiso   1.00
C602   C     0.84450   0.16314   0.56729   0.00000  Uiso   1.00
C603   C     0.94746   0.21667   0.57445   0.00000  Uiso   1.00
C604   C     0.77603   0.15683   0.90393   0.00000  Uiso   1.00
C605   C     0.85698   0.32274   0.75235   0.00000  Uiso   1.00
C606   C     0.79879   0.16286   0.84746   0.00000  Uiso   1.00
C607   C     0.80963   0.01058   0.74780   0.00000  Uiso   1.00
C608   C     0.81817   0.06657   0.74852   0.00000  Uiso   1.00
C609   C     0.86802   0.17197   0.65271   0.00000  Uiso   1.00
C610   C     0.95543   0.23430   0.52454   0.00000  Uiso   1.00
C611   C     0.88954   0.18237   0.59704   0.00000  Uiso   1.00
C612   C     0.71816   0.12101   0.92499   0.00000  Uiso   1.00
C613   C     0.70213   0.11168   0.97769   0.00000  Uiso   1.00
C614   C     0.74432   0.13213   0.50876   0.00000  Uiso   1.00
Cu615  Cu    0.77377   0.16105   0.74436   0.00000  Uiso   1.00
Cu616  Cu    0.89290   0.17228   0.75565   0.00000  Uiso   1.00
H617   H     0.76403   0.32002   0.74349   0.00000  Uiso   1.00
H618   H     0.67064   0.20663   0.78894   0.00000  Uiso   1.00
H619   H     0.99604   0.12675   0.71102   0.00000  Uiso   1.00
H620   H     0.95667   0.27007   0.93364   0.00000  Uiso   1.00
H621   H     0.99873   0.26155   0.50725   0.00000  Uiso   1.00
H622   H     0.80354   0.13389   0.58438   0.00000  Uiso   1.00
H623   H     0.72846   0.12156   0.54858   0.00000  Uiso   1.00
H624   H     0.99073   0.08597   0.99470   0.00000  Uiso   1.00
H625   H     0.87742   0.24179   0.88376   0.00000  Uiso   1.00
H626   H     0.90259   0.01330   0.75665   0.00000  Uiso   1.00
N627   N     0.98241   0.18074   0.76416   0.00000  Uiso   1.00
N628   N     0.68426   0.15259   0.73584   0.00000  Uiso   1.00
O629   O     0.79464   0.23807   0.74633   0.00000  Uiso   1.00
O630   O     0.89524   0.24755   0.75587   0.00000  Uiso   1.00
O631   O     0.75848   0.15960   0.81840   0.00000  Uiso   1.00
O632   O     0.85908   0.16908   0.82793   0.00000  Uiso   1.00
O633   O     0.77142   0.08578   0.74414   0.00000  Uiso   1.00
O634   O     0.87203   0.09526   0.75367   0.00000  Uiso   1.00
O635   O     0.80758   0.16425   0.67207   0.00000  Uiso   1.00
O636   O     0.90819   0.17373   0.68161   0.00000  Uiso   1.00
S637   S     0.67654   0.24057   0.60696   0.00000  Uiso   1.00
O638   O     0.69653   0.19481   0.62448   0.00000  Uiso   1.00
O639   O     0.73283   0.27372   0.57222   0.00000  Uiso   1.00
O640   O     0.98521   0.27726   0.65844   0.00000  Uiso   1.00
H641   H     0.96865   0.30428   0.64478   0.00000  Uiso   1.00
C642   C     0.67349   0.08928   0.89323   0.00000  Uiso   1.00
C643   C     0.95641   0.11857   0.88853   0.00000  Uiso   1.00
H644   H     0.92501   0.12205   0.92680   0.00000  Uiso   1.00
H645   H     0.97838   0.15868   0.87331   0.00000  Uiso   1.00
H646   H     0.92720   0.09636   0.86217   0.00000  Uiso   1.00
H647   H     0.69917   0.07820   0.85490   0.00000  Uiso   1.00
H648   H     0.98239   0.05089   0.91176   0.00000  Uiso   1.00
C649   C     0.18179   0.60010   0.75159   0.00000  Uiso   1.00
C650   C     0.13710   0.49834   0.98864   0.00000  Uiso   1.00
C651   C     0.14980   0.51503   0.93713   0.00000  Uiso   1.00
C652   C     0.18442   0.51533   0.51799   0.00000  Uiso   1.00
C653   C     0.24077   0.55200   0.99706   0.00000  Uiso   1.00
C654   C     0.24843   0.57339   0.94907   0.00000  Uiso   1.00
C655   C     0.20319   0.55595   0.91995   0.00000  Uiso   1.00
C656   C     0.17783   0.49647   0.56729   0.00000  Uiso   1.00
C657   C     0.28079   0.55001   0.57445   0.00000  Uiso   1.00
C658   C     0.10936   0.49016   0.90393   0.00000  Uiso   1.00
C659   C     0.19031   0.65608   0.75235   0.00000  Uiso   1.00
C660   C     0.13212   0.49619   0.84746   0.00000  Uiso   1.00
C661   C     0.14296   0.34392   0.74780   0.00000  Uiso   1.00
C662   C     0.15150   0.39990   0.74852   0.00000  Uiso   1.00
C663   C     0.20136   0.50531   0.65271   0.00000  Uiso   1.00
C664   C     0.28877   0.56763   0.52454   0.00000  Uiso   1.00
C665   C     0.22287   0.51570   0.59704   0.00000  Uiso   1.00
C666   C     0.05150   0.45434   0.92499   0.00000  Uiso   1.00
C667   C     0.03547   0.44501   0.97769   0.00000  Uiso   1.00
C668   C     0.07765   0.46546   0.50876   0.00000  Uiso   1.00
Cu669  Cu    0.10710   0.49439   0.74436   0.00000  Uiso   1.00
Cu670  Cu    0.22623   0.50561   0.75565   0.00000  Uiso   1.00
H671   H     0.09736   0.65336   0.74349   0.00000  Uiso   1.00
H672   H     0.00397   0.53996   0.78894   0.00000  Uiso   1.00
H673   H     0.32937   0.46008   0.71102   0.00000  Uiso   1.00
H674   H     0.29001   0.60341   0.93364   0.00000  Uiso   1.00
H675   H     0.33207   0.59488   0.50725   0.00000  Uiso   1.00
H676   H     0.13688   0.46723   0.58438   0.00000  Uiso   1.00
H677   H     0.06179   0.45489   0.54858   0.00000  Uiso   1.00
H678   H     0.32407   0.41931   0.99470   0.00000  Uiso   1.00
H679   H     0.21076   0.57512   0.88376   0.00000  Uiso   1.00
H680   H     0.23592   0.34664   0.75665   0.00000  Uiso   1.00
N681   N     0.31574   0.51407   0.76416   0.00000  Uiso   1.00
N682   N     0.01759   0.48593   0.73584   0.00000  Uiso   1.00
O683   O     0.12797   0.57141   0.74633   0.00000  Uiso   1.00
O684   O     0.22858   0.58089   0.75587   0.00000  Uiso   1.00
O685   O     0.09181   0.49293   0.81840   0.00000  Uiso   1.00
O686   O     0.19242   0.50241   0.82793   0.00000  Uiso   1.00
O687   O     0.10476   0.41911   0.74414   0.00000  Uiso   1.00
O688   O     0.20536   0.42859   0.75367   0.00000  Uiso   1.00
O689   O     0.14092   0.49759   0.67207   0.00000  Uiso   1.00
O690   O     0.24152   0.50707   0.68161   0.00000  Uiso   1.00
S691   S     0.00987   0.57390   0.60696   0.00000  Uiso   1.00
O692   O     0.02986   0.52815   0.62448   0.00000  Uiso   1.00
O693   O     0.06617   0.60705   0.57222   0.00000  Uiso   1.00
O694   O     0.31854   0.61060   0.65844   0.00000  Uiso   1.00
H695   H     0.30198   0.63762   0.64478   0.00000  Uiso   1.00
C696   C     0.00683   0.42261   0.89323   0.00000  Uiso   1.00
C697   C     0.28974   0.45190   0.88853   0.00000  Uiso   1.00
H698   H     0.25835   0.45538   0.92680   0.00000  Uiso   1.00
H699   H     0.31171   0.49201   0.87331   0.00000  Uiso   1.00
H700   H     0.26053   0.42969   0.86217   0.00000  Uiso   1.00
H701   H     0.03251   0.41154   0.85490   0.00000  Uiso   1.00
H702   H     0.31572   0.38423   0.91176   0.00000  Uiso   1.00
C703   C     0.51512   0.60010   0.75159   0.00000  Uiso   1.00
C704   C     0.47043   0.49834   0.98864   0.00000  Uiso   1.00
C705   C     0.48313   0.51503   0.93713   0.00000  Uiso   1.00
C706   C     0.51776   0.51533   0.51799   0.00000  Uiso   1.00
C707   C     0.57410   0.55200   0.99706   0.00000  Uiso   1.00
C708   C     0.58177   0.57339   0.94907   0.00000  Uiso   1.00
C709   C     0.53652   0.55595   0.91995   0.00000  Uiso   1.00
C710   C     0.51117   0.49647   0.56729   0.00000  Uiso   1.00
C711   C     0.61413   0.55001   0.57445   0.00000  Uiso   1.00
C712   C     0.44269   0.49016   0.90393   0.00000  Uiso   1.00
C713   C     0.52365   0.65608   0.75235   0.00000  Uiso   1.00
C714   C     0.46545   0.49619   0.84746   0.00000  Uiso   1.00
C715   C     0.47629   0.34392   0.74780   0.00000  Uiso   1.00
C716   C     0.48484   0.39990   0.74852   0.00000  Uiso   1.00
C717   C     0.53469   0.50531   0.65271   0.00000  Uiso   1.00
C718   C     0.62210   0.56763   0.52454   0.00000  Uiso   1.00
C719   C     0.55620   0.51570   0.59704   0.00000  Uiso   1.00
C720   C     0.38483   0.45434   0.92499   0.00000  Uiso   1.00
C721   C     0.36880   0.44501   0.97769   0.00000  Uiso   1.00
C722   C     0.41099   0.46546   0.50876   0.00000  Uiso   1.00
Cu723  Cu    0.44043   0.49439   0.74436   0.00000  Uiso   1.00
Cu724  Cu    0.55957   0.50561   0.75565   0.00000  Uiso   1.00
H725   H     0.43069   0.65336   0.74349   0.00000  Uiso   1.00
H726   H     0.33730   0.53996   0.78894   0.00000  Uiso   1.00
H727   H     0.66271   0.46008   0.71102   0.00000  Uiso   1.00
H728   H     0.62334   0.60341   0.93364   0.00000  Uiso   1.00
H729   H     0.66540   0.59488   0.50725   0.00000  Uiso   1.00
H730   H     0.47021   0.46723   0.58438   0.00000  Uiso   1.00
H731   H     0.39512   0.45489   0.54858   0.00000  Uiso   1.00
H732   H     0.65740   0.41931   0.99470   0.00000  Uiso   1.00
H733   H     0.54409   0.57512   0.88376   0.00000  Uiso   1.00
H734   H     0.56926   0.34664   0.75665   0.00000  Uiso   1.00
N735   N     0.64908   0.51407   0.76416   0.00000  Uiso   1.00
N736   N     0.35092   0.48593   0.73584   0.00000  Uiso   1.00
O737   O     0.46131   0.57141   0.74633   0.00000  Uiso   1.00
O738   O     0.56191   0.58089   0.75587   0.00000  Uiso   1.00
O739   O     0.42515   0.49293   0.81840   0.00000  Uiso   1.00
O740   O     0.52575   0.50241   0.82793   0.00000  Uiso   1.00
O741   O     0.43809   0.41911   0.74414   0.00000  Uiso   1.00
O742   O     0.53869   0.42859   0.75367   0.00000  Uiso   1.00
O743   O     0.47425   0.49759   0.67207   0.00000  Uiso   1.00
O744   O     0.57485   0.50707   0.68161   0.00000  Uiso   1.00
S745   S     0.34320   0.57390   0.60696   0.00000  Uiso   1.00
O746   O     0.36320   0.52815   0.62448   0.00000  Uiso   1.00
O747   O     0.39950   0.60705   0.57222   0.00000  Uiso   1.00
O748   O     0.65187   0.61060   0.65844   0.00000  Uiso   1.00
H749   H     0.63532   0.63762   0.64478   0.00000  Uiso   1.00
C750   C     0.34016   0.42261   0.89323   0.00000  Uiso   1.00
C751   C     0.62307   0.45190   0.88853   0.00000  Uiso   1.00
H752   H     0.59168   0.45538   0.92680   0.00000  Uiso   1.00
H753   H     0.64505   0.49201   0.87331   0.00000  Uiso   1.00
H754   H     0.59386   0.42969   0.86217   0.00000  Uiso   1.00
H755   H     0.36584   0.41154   0.85490   0.00000  Uiso   1.00
H756   H     0.64905   0.38423   0.91176   0.00000  Uiso   1.00
C757   C     0.84845   0.60010   0.75159   0.00000  Uiso   1.00
C758   C     0.80377   0.49834   0.98864   0.00000  Uiso   1.00
C759   C     0.81646   0.51503   0.93713   0.00000  Uiso   1.00
C760   C     0.85109   0.51533   0.51799   0.00000  Uiso   1.00
C761   C     0.90744   0.55200   0.99706   0.00000  Uiso   1.00
C762   C     0.91510   0.57339   0.94907   0.00000  Uiso   1.00
C763   C     0.86985   0.55595   0.91995   0.00000  Uiso   1.00
C764   C     0.84450   0.49647   0.56729   0.00000  Uiso   1.00
C765   C     0.94746   0.55001   0.57445   0.00000  Uiso   1.00
C766   C     0.77603   0.49016   0.90393   0.00000  Uiso   1.00
C767   C     0.85698   0.65608   0.75235   0.00000  Uiso   1.00
C768   C     0.79879   0.49619   0.84746   0.00000  Uiso   1.00
C769   C     0.80963   0.34392   0.74780   0.00000  Uiso   1.00
C770   C     0.81817   0.39990   0.74852   0.00000  Uiso   1.00
C771   C     0.86802   0.50531   0.65271   0.00000  Uiso   1.00
C772   C     0.95543   0.56763   0.52454   0.00000  Uiso   1.00
C773   C     0.88954   0.51570   0.59704   0.00000  Uiso   1.00
C774   C     0.71816   0.45434   0.92499   0.00000  Uiso   1.00
C775   C     0.70213   0.44501   0.97769   0.00000  Uiso   1.00
C776   C     0.74432   0.46546   0.50876   0.00000  Uiso   1.00
Cu777  Cu    0.77377   0.49439   0.74436   0.00000  Uiso   1.00
Cu778  Cu    0.89290   0.50561   0.75565   0.00000  Uiso   1.00
H779   H     0.76403   0.65336   0.74349   0.00000  Uiso   1.00
H780   H     0.67064   0.53996   0.78894   0.00000  Uiso   1.00
H781   H     0.99604   0.46008   0.71102   0.00000  Uiso   1.00
H782   H     0.95667   0.60341   0.93364   0.00000  Uiso   1.00
H783   H     0.99873   0.59488   0.50725   0.00000  Uiso   1.00
H784   H     0.80354   0.46723   0.58438   0.00000  Uiso   1.00
H785   H     0.72846   0.45489   0.54858   0.00000  Uiso   1.00
H786   H     0.99073   0.41931   0.99470   0.00000  Uiso   1.00
H787   H     0.87742   0.57512   0.88376   0.00000  Uiso   1.00
H788   H     0.90259   0.34664   0.75665   0.00000  Uiso   1.00
N789   N     0.98241   0.51407   0.76416   0.00000  Uiso   1.00
N790   N     0.68426   0.48593   0.73584   0.00000  Uiso   1.00
O791   O     0.79464   0.57141   0.74633   0.00000  Uiso   1.00
O792   O     0.89524   0.58089   0.75587   0.00000  Uiso   1.00
O793   O     0.75848   0.49293   0.81840   0.00000  Uiso   1.00
O794   O     0.85908   0.50241   0.82793   0.00000  Uiso   1.00
O795   O     0.77142   0.41911   0.74414   0.00000  Uiso   1.00
O796   O     0.87203   0.42859   0.75367   0.00000  Uiso   1.00
O797   O     0.80758   0.49759   0.67207   0.00000  Uiso   1.00
O798   O     0.90819   0.50707   0.68161   0.00000  Uiso   1.00
S799   S     0.67654   0.57390   0.60696   0.00000  Uiso   1.00
O800   O     0.69653   0.52815   0.62448   0.00000  Uiso   1.00
O801   O     0.73283   0.60705   0.57222   0.00000  Uiso   1.00
O802   O     0.98521   0.61060   0.65844   0.00000  Uiso   1.00
H803   H     0.96865   0.63762   0.64478   0.00000  Uiso   1.00
C804   C     0.67349   0.42261   0.89323   0.00000  Uiso   1.00
C805   C     0.95641   0.45190   0.88853   0.00000  Uiso   1.00
H806   H     0.92501   0.45538   0.92680   0.00000  Uiso   1.00
H807   H     0.97838   0.49201   0.87331   0.00000  Uiso   1.00
H808   H     0.92720   0.42969   0.86217   0.00000  Uiso   1.00
H809   H     0.69917   0.41154   0.85490   0.00000  Uiso   1.00
H810   H     0.98239   0.38423   0.91176   0.00000  Uiso   1.00
C811   C     0.18179   0.93343   0.75159   0.00000  Uiso   1.00
C812   C     0.13710   0.83168   0.98864   0.00000  Uiso   1.00
C813   C     0.14980   0.84837   0.93713   0.00000  Uiso   1.00
C814   C     0.18442   0.84867   0.51799   0.00000  Uiso   1.00
C815   C     0.24077   0.88533   0.99706   0.00000  Uiso   1.00
C816   C     0.24843   0.90672   0.94907   0.00000  Uiso   1.00
C817   C     0.20319   0.88929   0.91995   0.00000  Uiso   1.00
C818   C     0.17783   0.82981   0.56729   0.00000  Uiso   1.00
C819   C     0.28079   0.88334   0.57445   0.00000  Uiso   1.00
C820   C     0.10936   0.82349   0.90393   0.00000  Uiso   1.00
C821   C     0.19031   0.98941   0.75235   0.00000  Uiso   1.00
C822   C     0.13212   0.82953   0.84746   0.00000  Uiso   1.00
C823   C     0.14296   0.67725   0.74780   0.00000  Uiso   1.00
C824   C     0.15150   0.73323   0.74852   0.00000  Uiso   1.00
C825   C     0.20136   0.83864   0.65271   0.00000  Uiso   1.00
C826   C     0.28877   0.90097   0.52454   0.00000  Uiso   1.00
C827   C     0.22287   0.84904   0.59704   0.00000  Uiso   1.00
C828   C     0.05150   0.78767   0.92499   0.00000  Uiso   1.00
C829   C     0.03547   0.77834   0.97769   0.00000  Uiso   1.00
C830   C     0.07765   0.79879   0.50876   0.00000  Uiso   1.00
Cu831  Cu    0.10710   0.82772   0.74436   0.00000  Uiso   1.00
Cu832  Cu    0.22623   0.83895   0.75565   0.00000  Uiso   1.00
H833   H     0.09736   0.98669   0.74349   0.00000  Uiso   1.00
H834   H     0.00397   0.87330   0.78894   0.00000  Uiso   1.00
H835   H     0.32937   0.79342   0.71102   0.00000  Uiso   1.00
H836   H     0.29001   0.93674   0.93364   0.00000  Uiso   1.00
H837   H     0.33207   0.92822   0.50725   0.00000  Uiso   1.00
H838   H     0.13688   0.80056   0.58438   0.00000  Uiso   1.00
H839   H     0.06179   0.78823   0.54858   0.00000  Uiso   1.00
H840   H     0.32407   0.75264   0.99470   0.00000  Uiso   1.00
H841   H     0.21076   0.90846   0.88376   0.00000  Uiso   1.00
H842   H     0.23592   0.67997   0.75665   0.00000  Uiso   1.00
N843   N     0.31574   0.84741   0.76416   0.00000  Uiso   1.00
N844   N     0.01759   0.81926   0.73584   0.00000  Uiso   1.00
O845   O     0.12797   0.90474   0.74633   0.00000  Uiso   1.00
O846   O     0.22858   0.91422   0.75587   0.00000  Uiso   1.00
O847   O     0.09181   0.82627   0.81840   0.00000  Uiso   1.00
O848   O     0.19242   0.83575   0.82793   0.00000  Uiso   1.00
O849   O     0.10476   0.75245   0.74414   0.00000  Uiso   1.00
O850   O     0.20536   0.76193   0.75367   0.00000  Uiso   1.00
O851   O     0.14092   0.83092   0.67207   0.00000  Uiso   1.00
O852   O     0.24152   0.84040   0.68161   0.00000  Uiso   1.00
S853   S     0.00987   0.90723   0.60696   0.00000  Uiso   1.00
O854   O     0.02986   0.86148   0.62448   0.00000  Uiso   1.00
O855   O     0.06617   0.94039   0.57222   0.00000  Uiso   1.00
O856   O     0.31854   0.94393   0.65844   0.00000  Uiso   1.00
H857   H     0.30198   0.97095   0.64478   0.00000  Uiso   1.00
C858   C     0.00683   0.75595   0.89323   0.00000  Uiso   1.00
C859   C     0.28974   0.78523   0.88853   0.00000  Uiso   1.00
H860   H     0.25835   0.78871   0.92680   0.00000  Uiso   1.00
H861   H     0.31171   0.82534   0.87331   0.00000  Uiso   1.00
H862   H     0.26053   0.76303   0.86217   0.00000  Uiso   1.00
H863   H     0.03251   0.74487   0.85490   0.00000  Uiso   1.00
H864   H     0.31572   0.71756   0.91176   0.00000  Uiso   1.00
C865   C     0.51512   0.93343   0.75159   0.00000  Uiso   1.00
C866   C     0.47043   0.83168   0.98864   0.00000  Uiso   1.00
C867   C     0.48313   0.84837   0.93713   0.00000  Uiso   1.00
C868   C     0.51776   0.84867   0.51799   0.00000  Uiso   1.00
C869   C     0.57410   0.88533   0.99706   0.00000  Uiso   1.00
C870   C     0.58177   0.90672   0.94907   0.00000  Uiso   1.00
C871   C     0.53652   0.88929   0.91995   0.00000  Uiso   1.00
C872   C     0.51117   0.82981   0.56729   0.00000  Uiso   1.00
C873   C     0.61413   0.88334   0.57445   0.00000  Uiso   1.00
C874   C     0.44269   0.82349   0.90393   0.00000  Uiso   1.00
C875   C     0.52365   0.98941   0.75235   0.00000  Uiso   1.00
C876   C     0.46545   0.82953   0.84746   0.00000  Uiso   1.00
C877   C     0.47629   0.67725   0.74780   0.00000  Uiso   1.00
C878   C     0.48484   0.73323   0.74852   0.00000  Uiso   1.00
C879   C     0.53469   0.83864   0.65271   0.00000  Uiso   1.00
C880   C     0.62210   0.90097   0.52454   0.00000  Uiso   1.00
C881   C     0.55620   0.84904   0.59704   0.00000  Uiso   1.00
C882   C     0.38483   0.78767   0.92499   0.00000  Uiso   1.00
C883   C     0.36880   0.77834   0.97769   0.00000  Uiso   1.00
C884   C     0.41099   0.79879   0.50876   0.00000  Uiso   1.00
Cu885  Cu    0.44043   0.82772   0.74436   0.00000  Uiso   1.00
Cu886  Cu    0.55957   0.83895   0.75565   0.00000  Uiso   1.00
H887   H     0.43069   0.98669   0.74349   0.00000  Uiso   1.00
H888   H     0.33730   0.87330   0.78894   0.00000  Uiso   1.00
H889   H     0.66271   0.79342   0.71102   0.00000  Uiso   1.00
H890   H     0.62334   0.93674   0.93364   0.00000  Uiso   1.00
H891   H     0.66540   0.92822   0.50725   0.00000  Uiso   1.00
H892   H     0.47021   0.80056   0.58438   0.00000  Uiso   1.00
H893   H     0.39512   0.78823   0.54858   0.00000  Uiso   1.00
H894   H     0.65740   0.75264   0.99470   0.00000  Uiso   1.00
H895   H     0.54409   0.90846   0.88376   0.00000  Uiso   1.00
H896   H     0.56926   0.67997   0.75665   0.00000  Uiso   1.00
N897   N     0.64908   0.84741   0.76416   0.00000  Uiso   1.00
N898   N     0.35092   0.81926   0.73584   0.00000  Uiso   1.00
O899   O     0.46131   0.90474   0.74633   0.00000  Uiso   1.00
O900   O     0.56191   0.91422   0.75587   0.00000  Uiso   1.00
O901   O     0.42515   0.82627   0.81840   0.00000  Uiso   1.00
O902   O     0.52575   0.83575   0.82793   0.00000  Uiso   1.00
O903   O     0.43809   0.75245   0.74414   0.00000  Uiso   1.00
O904   O     0.53869   0.76193   0.75367   0.00000  Uiso   1.00
O905   O     0.47425   0.83092   0.67207   0.00000  Uiso   1.00
O906   O     0.57485   0.84040   0.68161   0.00000  Uiso   1.00
S907   S     0.34320   0.90723   0.60696   0.00000  Uiso   1.00
O908   O     0.36320   0.86148   0.62448   0.00000  Uiso   1.00
O909   O     0.39950   0.94039   0.57222   0.00000  Uiso   1.00
O910   O     0.65187   0.94393   0.65844   0.00000  Uiso   1.00
H911   H     0.63532   0.97095   0.64478   0.00000  Uiso   1.00
C912   C     0.34016   0.75595   0.89323   0.00000  Uiso   1.00
C913   C     0.62307   0.78523   0.88853   0.00000  Uiso   1.00
H914   H     0.59168   0.78871   0.92680   0.00000  Uiso   1.00
H915   H     0.64505   0.82534   0.87331   0.00000  Uiso   1.00
H916   H     0.59386   0.76303   0.86217   0.00000  Uiso   1.00
H917   H     0.36584   0.74487   0.85490   0.00000  Uiso   1.00
H918   H     0.64905   0.71756   0.91176   0.00000  Uiso   1.00
C919   C     0.84845   0.93343   0.75159   0.00000  Uiso   1.00
C920   C     0.80377   0.83168   0.98864   0.00000  Uiso   1.00
C921   C     0.81646   0.84837   0.93713   0.00000  Uiso   1.00
C922   C     0.85109   0.84867   0.51799   0.00000  Uiso   1.00
C923   C     0.90744   0.88533   0.99706   0.00000  Uiso   1.00
C924   C     0.91510   0.90672   0.94907   0.00000  Uiso   1.00
C925   C     0.86985   0.88929   0.91995   0.00000  Uiso   1.00
C926   C     0.84450   0.82981   0.56729   0.00000  Uiso   1.00
C927   C     0.94746   0.88334   0.57445   0.00000  Uiso   1.00
C928   C     0.77603   0.82349   0.90393   0.00000  Uiso   1.00
C929   C     0.85698   0.98941   0.75235   0.00000  Uiso   1.00
C930   C     0.79879   0.82953   0.84746   0.00000  Uiso   1.00
C931   C     0.80963   0.67725   0.74780   0.00000  Uiso   1.00
C932   C     0.81817   0.73323   0.74852   0.00000  Uiso   1.00
C933   C     0.86802   0.83864   0.65271   0.00000  Uiso   1.00
C934   C     0.95543   0.90097   0.52454   0.00000  Uiso   1.00
C935   C     0.88954   0.84904   0.59704   0.00000  Uiso   1.00
C936   C     0.71816   0.78767   0.92499   0.00000  Uiso   1.00
C937   C     0.70213   0.77834   0.97769   0.00000  Uiso   1.00
C938   C     0.74432   0.79879   0.50876   0.00000  Uiso   1.00
Cu939  Cu    0.77377   0.82772   0.74436   0.00000  Uiso   1.00
Cu940  Cu    0.89290   0.83895   0.75565   0.00000  Uiso   1.00
H941   H     0.76403   0.98669   0.74349   0.00000  Uiso   1.00
H942   H     0.67064   0.87330   0.78894   0.00000  Uiso   1.00
H943   H     0.99604   0.79342   0.71102   0.00000  Uiso   1.00
H944   H     0.95667   0.93674   0.93364   0.00000  Uiso   1.00
H945   H     0.99873   0.92822   0.50725   0.00000  Uiso   1.00
H946   H     0.80354   0.80056   0.58438   0.00000  Uiso   1.00
H947   H     0.72846   0.78823   0.54858   0.00000  Uiso   1.00
H948   H     0.99073   0.75264   0.99470   0.00000  Uiso   1.00
H949   H     0.87742   0.90846   0.88376   0.00000  Uiso   1.00
H950   H     0.90259   0.67997   0.75665   0.00000  Uiso   1.00
N951   N     0.98241   0.84741   0.76416   0.00000  Uiso   1.00
N952   N     0.68426   0.81926   0.73584   0.00000  Uiso   1.00
O953   O     0.79464   0.90474   0.74633   0.00000  Uiso   1.00
O954   O     0.89524   0.91422   0.75587   0.00000  Uiso   1.00
O955   O     0.75848   0.82627   0.81840   0.00000  Uiso   1.00
O956   O     0.85908   0.83575   0.82793   0.00000  Uiso   1.00
O957   O     0.77142   0.75245   0.74414   0.00000  Uiso   1.00
O958   O     0.87203   0.76193   0.75367   0.00000  Uiso   1.00
O959   O     0.80758   0.83092   0.67207   0.00000  Uiso   1.00
O960   O     0.90819   0.84040   0.68161   0.00000  Uiso   1.00
S961   S     0.67654   0.90723   0.60696   0.00000  Uiso   1.00
O962   O     0.69653   0.86148   0.62448   0.00000  Uiso   1.00
O963   O     0.73283   0.94039   0.57222   0.00000  Uiso   1.00
O964   O     0.98521   0.94393   0.65844   0.00000  Uiso   1.00
H965   H     0.96865   0.97095   0.64478   0.00000  Uiso   1.00
C966   C     0.67349   0.75595   0.89323   0.00000  Uiso   1.00
C967   C     0.95641   0.78523   0.88853   0.00000  Uiso   1.00
H968   H     0.92501   0.78871   0.92680   0.00000  Uiso   1.00
H969   H     0.97838   0.82534   0.87331   0.00000  Uiso   1.00
H970   H     0.92720   0.76303   0.86217   0.00000  Uiso   1.00
H971   H     0.69917   0.74487   0.85490   0.00000  Uiso   1.00
H972   H     0.98239   0.71756   0.91176   0.00000  Uiso   1.00
loop_
_geom_bond_atom_site_label_1
_geom_bond_atom_site_label_2
_geom_bond_distance
_geom_bond_site_symmetry_2
_ccdc_geom_bond_type
C1     C11     1.427   .     S
C1     O35     1.290   .     A
C1     O36     1.284   .     A
C2     C3      1.419   .     A
C2     C490    1.427   .     S
C2     C506    1.411   .     S
C3     C10     1.426   .     A
C3     C7      1.413   .     A
C4     C8      1.403   .     A
C4     C488    1.427   1_554 S
C4     C491    1.414   1_554 S
C5     C6      1.394   .     A
C5     C490    1.414   .     S
C5     C502    1.401   .     S
C6     C7      1.387   .     A
C6     H26     1.084   .     S
C7     H31     1.081   .     S
C8     C17     1.402   .     A
C8     H28     1.077   .     S
C9     C17     1.419   .     A
C9     C16     1.401   .     A
C9     S97     1.775   .     S
C10    C12     1.486   .     S
C10    C18     1.427   .     A
C11    C175    1.328   .     S
C11    H194    1.088   .     S
C12    O38     1.300   .     A
C12    O37     1.300   .     A
C13    C14     1.427   .     S
C13    C335    1.328   1_545 S
C13    H347    1.088   1_545 S
C14    O40     1.290   .     A
C14    O39     1.284   .     A
C15    O42     1.300   .     A
C15    O41     1.299   .     A
C15    C17     1.480   .     S
C16    H27     1.083   .     S
C16    C491    1.401   1_554 S
C18    C19     1.396   .     A
C18    C48     1.518   .     S
C19    C506    1.385   .     S
C19    H138    1.084   1_455 S
C20    H29     1.076   .     S
C20    C488    1.411   1_554 S
C20    C505    1.385   1_554 S
Cu21   O35     1.954   .     S
Cu21   O39     1.950   .     S
Cu21   Cu22    2.683   .     S
Cu21   O41     1.907   .     S
Cu21   O37     1.932   .     S
Cu21   N34     2.016   .     S
Cu22   O40     1.954   .     S
Cu22   O42     1.932   .     S
Cu22   O38     1.907   .     S
Cu22   N33     2.016   .     S
Cu22   O36     1.950   .     S
H23    C175    1.088   .     S
H24    N141    1.029   1_455 S
H25    N88     1.029   .     S
H30    C73     1.084   .     S
H32    C335    1.088   1_545 S
N33    H78     1.029   .     S
N33    N88     1.281   .     S
N34    N141    1.281   1_455 S
N34    H133    1.029   1_455 S
S43    O44     1.502   .     D
S43    O45     1.504   .     D
S43    C117    1.775   1_455 S
S43    O154    1.681   1_455 S
O46    H47     0.991   .     S
O46    S97     1.681   .     S
C48    H53     1.108   .     S
C48    C157    1.526   1_455 S
C48    H162    1.113   1_455 S
C49    H52     1.111   .     S
C49    H50     1.110   .     S
C49    H51     1.109   .     S
C49    C102    1.526   .     S
H54    C102    1.113   .     S
C55    C65     1.427   .     S
C55    O89     1.290   .     A
C55    O90     1.284   .     A
C56    C57     1.419   .     A
C56    C544    1.427   .     S
C56    C560    1.411   .     S
C57    C64     1.426   .     A
C57    C61     1.413   .     A
C58    C62     1.403   .     A
C58    C542    1.427   1_554 S
C58    C545    1.414   1_554 S
C59    C60     1.394   .     A
C59    C544    1.414   .     S
C59    C556    1.401   .     S
C60    C61     1.387   .     A
C60    H80     1.084   .     S
C61    H85     1.081   .     S
C62    C71     1.402   .     A
C62    H82     1.077   .     S
C63    C71     1.419   .     A
C63    C70     1.401   .     A
C63    S151    1.775   .     S
C64    C66     1.486   .     S
C64    C72     1.427   .     A
C65    C229    1.328   .     S
C65    H248    1.088   .     S
C66    O92     1.300   .     A
C66    O91     1.300   .     A
C67    C68     1.427   .     S
C67    C389    1.328   1_545 S
C67    H401    1.088   1_545 S
C68    O94     1.290   .     A
C68    O93     1.284   .     A
C69    O96     1.300   .     A
C69    O95     1.299   .     A
C69    C71     1.480   .     S
C70    H81     1.083   .     S
C70    C545    1.401   1_554 S
C72    C73     1.396   .     A
C72    C102    1.518   .     S
C73    C560    1.385   .     S
C74    H83     1.076   .     S
C74    C542    1.411   1_554 S
C74    C559    1.385   1_554 S
Cu75   O89     1.954   .     S
Cu75   O93     1.950   .     S
Cu75   Cu76    2.683   .     S
Cu75   O95     1.907   .     S
Cu75   O91     1.932   .     S
Cu75   N88     2.016   .     S
Cu76   O94     1.954   .     S
Cu76   O96     1.932   .     S
Cu76   O92     1.907   .     S
Cu76   N87     2.016   .     S
Cu76   O90     1.950   .     S
H77    C229    1.088   .     S
H79    N142    1.029   .     S
H84    C127    1.084   .     S
H86    C389    1.088   1_545 S
N87    H132    1.029   .     S
N87    N142    1.281   .     S
S97    O98     1.502   .     D
S97    O99     1.504   .     D
O100   H101    0.991   .     S
O100   S151    1.681   .     S
C102   H107    1.108   .     S
C103   H106    1.111   .     S
C103   H104    1.110   .     S
C103   H105    1.109   .     S
C103   C156    1.526   .     S
H108   C156    1.113   .     S
C109   C119    1.427   .     S
C109   O143    1.290   .     A
C109   O144    1.284   .     A
C110   C111    1.419   .     A
C110   C598    1.427   .     S
C110   C614    1.411   .     S
C111   C118    1.426   .     A
C111   C115    1.413   .     A
C112   C116    1.403   .     A
C112   C596    1.427   1_554 S
C112   C599    1.414   1_554 S
C113   C114    1.394   .     A
C113   C598    1.414   .     S
C113   C610    1.401   .     S
C114   C115    1.387   .     A
C114   H134    1.084   .     S
C115   H139    1.081   .     S
C116   C125    1.402   .     A
C116   H136    1.077   .     S
C117   C125    1.419   .     A
C117   C124    1.401   .     A
C117   S43     1.775   1_655 S
C118   C120    1.486   .     S
C118   C126    1.427   .     A
C119   C283    1.328   .     S
C119   H302    1.088   .     S
C120   O146    1.300   .     A
C120   O145    1.300   .     A
C121   C122    1.427   .     S
C121   C443    1.328   1_545 S
C121   H455    1.088   1_545 S
C122   O148    1.290   .     A
C122   O147    1.284   .     A
C123   O150    1.300   .     A
C123   O149    1.299   .     A
C123   C125    1.480   .     S
C124   H135    1.083   .     S
C124   C599    1.401   1_554 S
C126   C127    1.396   .     A
C126   C156    1.518   .     S
C127   C614    1.385   .     S
C128   H137    1.076   .     S
C128   C596    1.411   1_554 S
C128   C613    1.385   1_554 S
Cu129  O143    1.954   .     S
Cu129  O147    1.950   .     S
Cu129  Cu130   2.683   .     S
Cu129  O149    1.907   .     S
Cu129  O145    1.932   .     S
Cu129  N142    2.016   .     S
Cu130  O148    1.954   .     S
Cu130  O150    1.932   .     S
Cu130  O146    1.907   .     S
Cu130  N141    2.016   .     S
Cu130  O144    1.950   .     S
H131   C283    1.088   .     S
H133   N34     1.029   1_655 S
H138   C19     1.084   1_655 S
H140   C443    1.088   1_545 S
N141   H24     1.029   1_655 S
N141   N34     1.281   1_655 S
S151   O152    1.502   .     D
S151   O153    1.504   .     D
O154   H155    0.991   .     S
O154   S43     1.681   1_655 S
C156   H161    1.108   .     S
C157   H160    1.111   .     S
C157   H158    1.110   .     S
C157   H159    1.109   .     S
C157   C48     1.526   1_655 S
H162   C48     1.113   1_655 S
C163   C173    1.427   .     S
C163   O197    1.290   .     A
C163   O198    1.284   .     A
C164   C165    1.419   .     A
C164   C652    1.427   .     S
C164   C668    1.411   .     S
C165   C172    1.426   .     A
C165   C169    1.413   .     A
C166   C170    1.403   .     A
C166   C650    1.427   1_554 S
C166   C653    1.414   1_554 S
C167   C168    1.394   .     A
C167   C652    1.414   .     S
C167   C664    1.401   .     S
C168   C169    1.387   .     A
C168   H188    1.084   .     S
C169   H193    1.081   .     S
C170   C179    1.402   .     A
C170   H190    1.077   .     S
C171   C179    1.419   .     A
C171   C178    1.401   .     A
C171   S259    1.775   .     S
C172   C174    1.486   .     S
C172   C180    1.427   .     A
C173   C337    1.328   .     S
C173   H356    1.088   .     S
C174   O200    1.300   .     A
C174   O199    1.300   .     A
C175   C176    1.427   .     S
C176   O202    1.290   .     A
C176   O201    1.284   .     A
C177   O204    1.300   .     A
C177   O203    1.299   .     A
C177   C179    1.480   .     S
C178   H189    1.083   .     S
C178   C653    1.401   1_554 S
C180   C181    1.396   .     A
C180   C210    1.518   .     S
C181   C668    1.385   .     S
C181   H300    1.084   1_455 S
C182   H191    1.076   .     S
C182   C650    1.411   1_554 S
C182   C667    1.385   1_554 S
Cu183  O197    1.954   .     S
Cu183  O201    1.950   .     S
Cu183  Cu184   2.683   .     S
Cu183  O203    1.907   .     S
Cu183  O199    1.932   .     S
Cu183  N196    2.016   .     S
Cu184  O202    1.954   .     S
Cu184  O204    1.932   .     S
Cu184  O200    1.907   .     S
Cu184  N195    2.016   .     S
Cu184  O198    1.950   .     S
H185   C337    1.088   .     S
H186   N303    1.029   1_455 S
H187   N250    1.029   .     S
H192   C235    1.084   .     S
N195   H240    1.029   .     S
N195   N250    1.281   .     S
N196   N303    1.281   1_455 S
N196   H295    1.029   1_455 S
S205   O206    1.502   .     D
S205   O207    1.504   .     D
S205   C279    1.775   1_455 S
S205   O316    1.681   1_455 S
O208   H209    0.991   .     S
O208   S259    1.681   .     S
C210   H215    1.108   .     S
C210   C319    1.526   1_455 S
C210   H324    1.113   1_455 S
C211   H214    1.111   .     S
C211   H212    1.110   .     S
C211   H213    1.109   .     S
C211   C264    1.526   .     S
H216   C264    1.113   .     S
C217   C227    1.427   .     S
C217   O251    1.290   .     A
C217   O252    1.284   .     A
C218   C219    1.419   .     A
C218   C706    1.427   .     S
C218   C722    1.411   .     S
C219   C226    1.426   .     A
C219   C223    1.413   .     A
C220   C224    1.403   .     A
C220   C704    1.427   1_554 S
C220   C707    1.414   1_554 S
C221   C222    1.394   .     A
C221   C706    1.414   .     S
C221   C718    1.401   .     S
C222   C223    1.387   .     A
C222   H242    1.084   .     S
C223   H247    1.081   .     S
C224   C233    1.402   .     A
C224   H244    1.077   .     S
C225   C233    1.419   .     A
C225   C232    1.401   .     A
C225   S313    1.775   .     S
C226   C228    1.486   .     S
C226   C234    1.427   .     A
C227   C391    1.328   .     S
C227   H410    1.088   .     S
C228   O254    1.300   .     A
C228   O253    1.300   .     A
C229   C230    1.427   .     S
C230   O256    1.290   .     A
C230   O255    1.284   .     A
C231   O258    1.300   .     A
C231   O257    1.299   .     A
C231   C233    1.480   .     S
C232   H243    1.083   .     S
C232   C707    1.401   1_554 S
C234   C235    1.396   .     A
C234   C264    1.518   .     S
C235   C722    1.385   .     S
C236   H245    1.076   .     S
C236   C704    1.411   1_554 S
C236   C721    1.385   1_554 S
Cu237  O251    1.954   .     S
Cu237  O255    1.950   .     S
Cu237  Cu238   2.683   .     S
Cu237  O257    1.907   .     S
Cu237  O253    1.932   .     S
Cu237  N250    2.016   .     S
Cu238  O256    1.954   .     S
Cu238  O258    1.932   .     S
Cu238  O254    1.907   .     S
Cu238  N249    2.016   .     S
Cu238  O252    1.950   .     S
H239   C391    1.088   .     S
H241   N304    1.029   .     S
H246   C289    1.084   .     S
N249   H294    1.029   .     S
N249   N304    1.281   .     S
S259   O260    1.502   .     D
S259   O261    1.504   .     D
O262   H263    0.991   .     S
O262   S313    1.681   .     S
C264   H269    1.108   .     S
C265   H268    1.111   .     S
C265   H266    1.110   .     S
C265   H267    1.109   .     S
C265   C318    1.526   .     S
H270   C318    1.113   .     S
C271   C281    1.427   .     S
C271   O305    1.290   .     A
C271   O306    1.284   .     A
C272   C273    1.419   .     A
C272   C760    1.427   .     S
C272   C776    1.411   .     S
C273   C280    1.426   .     A
C273   C277    1.413   .     A
C274   C278    1.403   .     A
C274   C758    1.427   1_554 S
C274   C761    1.414   1_554 S
C275   C276    1.394   .     A
C275   C760    1.414   .     S
C275   C772    1.401   .     S
C276   C277    1.387   .     A
C276   H296    1.084   .     S
C277   H301    1.081   .     S
C278   C287    1.402   .     A
C278   H298    1.077   .     S
C279   C287    1.419   .     A
C279   C286    1.401   .     A
C279   S205    1.775   1_655 S
C280   C282    1.486   .     S
C280   C288    1.427   .     A
C281   C445    1.328   .     S
C281   H464    1.088   .     S
C282   O308    1.300   .     A
C282   O307    1.300   .     A
C283   C284    1.427   .     S
C284   O310    1.290   .     A
C284   O309    1.284   .     A
C285   O312    1.300   .     A
C285   O311    1.299   .     A
C285   C287    1.480   .     S
C286   H297    1.083   .     S
C286   C761    1.401   1_554 S
C288   C289    1.396   .     A
C288   C318    1.518   .     S
C289   C776    1.385   .     S
C290   H299    1.076   .     S
C290   C758    1.411   1_554 S
C290   C775    1.385   1_554 S
Cu291  O305    1.954   .     S
Cu291  O309    1.950   .     S
Cu291  Cu292   2.683   .     S
Cu291  O311    1.907   .     S
Cu291  O307    1.932   .     S
Cu291  N304    2.016   .     S
Cu292  O310    1.954   .     S
Cu292  O312    1.932   .     S
Cu292  O308    1.907   .     S
Cu292  N303    2.016   .     S
Cu292  O306    1.950   .     S
H293   C445    1.088   .     S
H295   N196    1.029   1_655 S
H300   C181    1.084   1_655 S
N303   H186    1.029   1_655 S
N303   N196    1.281   1_655 S
S313   O314    1.502   .     D
S313   O315    1.504   .     D
O316   H317    0.991   .     S
O316   S205    1.681   1_655 S
C318   H323    1.108   .     S
C319   H322    1.111   .     S
C319   H320    1.110   .     S
C319   H321    1.109   .     S
C319   C210    1.526   1_655 S
H324   C210    1.113   1_655 S
C325   C335    1.427   .     S
C325   O359    1.290   .     A
C325   O360    1.284   .     A
C326   C327    1.419   .     A
C326   C814    1.427   .     S
C326   C830    1.411   .     S
C327   C334    1.426   .     A
C327   C331    1.413   .     A
C328   C332    1.403   .     A
C328   C812    1.427   1_554 S
C328   C815    1.414   1_554 S
C329   C330    1.394   .     A
C329   C814    1.414   .     S
C329   C826    1.401   .     S
C330   C331    1.387   .     A
C330   H350    1.084   .     S
C331   H355    1.081   .     S
C332   C341    1.402   .     A
C332   H352    1.077   .     S
C333   C341    1.419   .     A
C333   C340    1.401   .     A
C333   S421    1.775   .     S
C334   C336    1.486   .     S
C334   C342    1.427   .     A
C335   C13     1.328   1_565 S
C335   H32     1.088   1_565 S
C336   O362    1.300   .     A
C336   O361    1.300   .     A
C337   C338    1.427   .     S
C338   O364    1.290   .     A
C338   O363    1.284   .     A
C339   O366    1.300   .     A
C339   O365    1.299   .     A
C339   C341    1.480   .     S
C340   H351    1.083   .     S
C340   C815    1.401   1_554 S
C342   C343    1.396   .     A
C342   C372    1.518   .     S
C343   C830    1.385   .     S
C343   H462    1.084   1_455 S
C344   H353    1.076   .     S
C344   C812    1.411   1_554 S
C344   C829    1.385   1_554 S
Cu345  O359    1.954   .     S
Cu345  O363    1.950   .     S
Cu345  Cu346   2.683   .     S
Cu345  O365    1.907   .     S
Cu345  O361    1.932   .     S
Cu345  N358    2.016   .     S
Cu346  O364    1.954   .     S
Cu346  O366    1.932   .     S
Cu346  O362    1.907   .     S
Cu346  N357    2.016   .     S
Cu346  O360    1.950   .     S
H347   C13     1.088   1_565 S
H348   N465    1.029   1_455 S
H349   N412    1.029   .     S
H354   C397    1.084   .     S
N357   H402    1.029   .     S
N357   N412    1.281   .     S
N358   N465    1.281   1_455 S
N358   H457    1.029   1_455 S
S367   O368    1.502   .     D
S367   O369    1.504   .     D
S367   C441    1.775   1_455 S
S367   O478    1.681   1_455 S
O370   H371    0.991   .     S
O370   S421    1.681   .     S
C372   H377    1.108   .     S
C372   C481    1.526   1_455 S
C372   H486    1.113   1_455 S
C373   H376    1.111   .     S
C373   H374    1.110   .     S
C373   H375    1.109   .     S
C373   C426    1.526   .     S
H378   C426    1.113   .     S
C379   C389    1.427   .     S
C379   O413    1.290   .     A
C379   O414    1.284   .     A
C380   C381    1.419   .     A
C380   C868    1.427   .     S
C380   C884    1.411   .     S
C381   C388    1.426   .     A
C381   C385    1.413   .     A
C382   C386    1.403   .     A
C382   C866    1.427   1_554 S
C382   C869    1.414   1_554 S
C383   C384    1.394   .     A
C383   C868    1.414   .     S
C383   C880    1.401   .     S
C384   C385    1.387   .     A
C384   H404    1.084   .     S
C385   H409    1.081   .     S
C386   C395    1.402   .     A
C386   H406    1.077   .     S
C387   C395    1.419   .     A
C387   C394    1.401   .     A
C387   S475    1.775   .     S
C388   C390    1.486   .     S
C388   C396    1.427   .     A
C389   C67     1.328   1_565 S
C389   H86     1.088   1_565 S
C390   O416    1.300   .     A
C390   O415    1.300   .     A
C391   C392    1.427   .     S
C392   O418    1.290   .     A
C392   O417    1.284   .     A
C393   O420    1.300   .     A
C393   O419    1.299   .     A
C393   C395    1.480   .     S
C394   H405    1.083   .     S
C394   C869    1.401   1_554 S
C396   C397    1.396   .     A
C396   C426    1.518   .     S
C397   C884    1.385   .     S
C398   H407    1.076   .     S
C398   C866    1.411   1_554 S
C398   C883    1.385   1_554 S
Cu399  O413    1.954   .     S
Cu399  O417    1.950   .     S
Cu399  Cu400   2.683   .     S
Cu399  O419    1.907   .     S
Cu399  O415    1.932   .     S
Cu399  N412    2.016   .     S
Cu400  O418    1.954   .     S
Cu400  O420    1.932   .     S
Cu400  O416    1.907   .     S
Cu400  N411    2.016   .     S
Cu400  O414    1.950   .     S
H401   C67     1.088   1_565 S
H403   N466    1.029   .     S
H408   C451    1.084   .     S
N411   H456    1.029   .     S
N411   N466    1.281   .     S
S421   O422    1.502   .     D
S421   O423    1.504   .     D
O424   H425    0.991   .     S
O424   S475    1.681   .     S
C426   H431    1.108   .     S
C427   H430    1.111   .     S
C427   H428    1.110   .     S
C427   H429    1.109   .     S
C427   C480    1.526   .     S
H432   C480    1.113   .     S
C433   C443    1.427   .     S
C433   O467    1.290   .     A
C433   O468    1.284   .     A
C434   C435    1.419   .     A
C434   C922    1.427   .     S
C434   C938    1.411   .     S
C435   C442    1.426   .     A
C435   C439    1.413   .     A
C436   C440    1.403   .     A
C436   C920    1.427   1_554 S
C436   C923    1.414   1_554 S
C437   C438    1.394   .     A
C437   C922    1.414   .     S
C437   C934    1.401   .     S
C438   C439    1.387   .     A
C438   H458    1.084   .     S
C439   H463    1.081   .     S
C440   C449    1.402   .     A
C440   H460    1.077   .     S
C441   C449    1.419   .     A
C441   C448    1.401   .     A
C441   S367    1.775   1_655 S
C442   C444    1.486   .     S
C442   C450    1.427   .     A
C443   C121    1.328   1_565 S
C443   H140    1.088   1_565 S
C444   O470    1.300   .     A
C444   O469    1.300   .     A
C445   C446    1.427   .     S
C446   O472    1.290   .     A
C446   O471    1.284   .     A
C447   O474    1.300   .     A
C447   O473    1.299   .     A
C447   C449    1.480   .     S
C448   H459    1.083   .     S
C448   C923    1.401   1_554 S
C450   C451    1.396   .     A
C450   C480    1.518   .     S
C451   C938    1.385   .     S
C452   H461    1.076   .     S
C452   C920    1.411   1_554 S
C452   C937    1.385   1_554 S
Cu453  O467    1.954   .     S
Cu453  O471    1.950   .     S
Cu453  Cu454   2.683   .     S
Cu453  O473    1.907   .     S
Cu453  O469    1.932   .     S
Cu453  N466    2.016   .     S
Cu454  O472    1.954   .     S
Cu454  O474    1.932   .     S
Cu454  O470    1.907   .     S
Cu454  N465    2.016   .     S
Cu454  O468    1.950   .     S
H455   C121    1.088   1_565 S
H457   N358    1.029   1_655 S
H462   C343    1.084   1_655 S
N465   H348    1.029   1_655 S
N465   N358    1.281   1_655 S
S475   O476    1.502   .     D
S475   O477    1.504   .     D
O478   H479    0.991   .     S
O478   S367    1.681   1_655 S
C480   H485    1.108   .     S
C481   H484    1.111   .     S
C481   H482    1.110   .     S
C481   H483    1.109   .     S
C481   C372    1.526   1_655 S
H486   C372    1.113   1_655 S
C487   C497    1.427   .     S
C487   O521    1.290   .     A
C487   O522    1.284   .     A
C488   C489    1.419   .     A
C488   C4      1.427   1_556 S
C488   C20     1.411   1_556 S
C489   C496    1.426   .     A
C489   C493    1.413   .     A
C490   C494    1.403   .     A
C491   C492    1.394   .     A
C491   C4      1.414   1_556 S
C491   C16     1.401   1_556 S
C492   C493    1.387   .     A
C492   H512    1.084   .     S
C493   H517    1.081   .     S
C494   C503    1.402   .     A
C494   H514    1.077   .     S
C495   C503    1.419   .     A
C495   C502    1.401   .     A
C495   S583    1.775   .     S
C496   C498    1.486   .     S
C496   C504    1.427   .     A
C497   C661    1.328   .     S
C497   H680    1.088   .     S
C498   O524    1.300   .     A
C498   O523    1.300   .     A
C499   C500    1.427   .     S
C499   C821    1.328   1_545 S
C499   H833    1.088   1_545 S
C500   O526    1.290   .     A
C500   O525    1.284   .     A
C501   O528    1.300   .     A
C501   O527    1.299   .     A
C501   C503    1.480   .     S
C502   H513    1.083   .     S
C504   C505    1.396   .     A
C504   C534    1.518   .     S
C505   C20     1.385   1_556 S
C505   H624    1.084   1_455 S
C506   H515    1.076   .     S
Cu507  O521    1.954   .     S
Cu507  O525    1.950   .     S
Cu507  Cu508   2.683   .     S
Cu507  O527    1.907   .     S
Cu507  O523    1.932   .     S
Cu507  N520    2.016   .     S
Cu508  O526    1.954   .     S
Cu508  O528    1.932   .     S
Cu508  O524    1.907   .     S
Cu508  N519    2.016   .     S
Cu508  O522    1.950   .     S
H509   C661    1.088   .     S
H510   N627    1.029   1_455 S
H511   N574    1.029   .     S
H516   C559    1.084   .     S
H518   C821    1.088   1_545 S
N519   H564    1.029   .     S
N519   N574    1.281   .     S
N520   N627    1.281   1_455 S
N520   H619    1.029   1_455 S
S529   O530    1.502   .     D
S529   O531    1.504   .     D
S529   C603    1.775   1_455 S
S529   O640    1.681   1_455 S
O532   H533    0.991   .     S
O532   S583    1.681   .     S
C534   H539    1.108   .     S
C534   C643    1.526   1_455 S
C534   H648    1.113   1_455 S
C535   H538    1.111   .     S
C535   H536    1.110   .     S
C535   H537    1.109   .     S
C535   C588    1.526   .     S
H540   C588    1.113   .     S
C541   C551    1.427   .     S
C541   O575    1.290   .     A
C541   O576    1.284   .     A
C542   C543    1.419   .     A
C542   C58     1.427   1_556 S
C542   C74     1.411   1_556 S
C543   C550    1.426   .     A
C543   C547    1.413   .     A
C544   C548    1.403   .     A
C545   C546    1.394   .     A
C545   C58     1.414   1_556 S
C545   C70     1.401   1_556 S
C546   C547    1.387   .     A
C546   H566    1.084   .     S
C547   H571    1.081   .     S
C548   C557    1.402   .     A
C548   H568    1.077   .     S
C549   C557    1.419   .     A
C549   C556    1.401   .     A
C549   S637    1.775   .     S
C550   C552    1.486   .     S
C550   C558    1.427   .     A
C551   C715    1.328   .     S
C551   H734    1.088   .     S
C552   O578    1.300   .     A
C552   O577    1.300   .     A
C553   C554    1.427   .     S
C553   C875    1.328   1_545 S
C553   H887    1.088   1_545 S
C554   O580    1.290   .     A
C554   O579    1.284   .     A
C555   O582    1.300   .     A
C555   O581    1.299   .     A
C555   C557    1.480   .     S
C556   H567    1.083   .     S
C558   C559    1.396   .     A
C558   C588    1.518   .     S
C559   C74     1.385   1_556 S
C560   H569    1.076   .     S
Cu561  O575    1.954   .     S
Cu561  O579    1.950   .     S
Cu561  Cu562   2.683   .     S
Cu561  O581    1.907   .     S
Cu561  O577    1.932   .     S
Cu561  N574    2.016   .     S
Cu562  O580    1.954   .     S
Cu562  O582    1.932   .     S
Cu562  O578    1.907   .     S
Cu562  N573    2.016   .     S
Cu562  O576    1.950   .     S
H563   C715    1.088   .     S
H565   N628    1.029   .     S
H570   C613    1.084   .     S
H572   C875    1.088   1_545 S
N573   H618    1.029   .     S
N573   N628    1.281   .     S
S583   O584    1.502   .     D
S583   O585    1.504   .     D
O586   H587    0.991   .     S
O586   S637    1.681   .     S
C588   H593    1.108   .     S
C589   H592    1.111   .     S
C589   H590    1.110   .     S
C589   H591    1.109   .     S
C589   C642    1.526   .     S
H594   C642    1.113   .     S
C595   C605    1.427   .     S
C595   O629    1.290   .     A
C595   O630    1.284   .     A
C596   C597    1.419   .     A
C596   C112    1.427   1_556 S
C596   C128    1.411   1_556 S
C597   C604    1.426   .     A
C597   C601    1.413   .     A
C598   C602    1.403   .     A
C599   C600    1.394   .     A
C599   C112    1.414   1_556 S
C599   C124    1.401   1_556 S
C600   C601    1.387   .     A
C600   H620    1.084   .     S
C601   H625    1.081   .     S
C602   C611    1.402   .     A
C602   H622    1.077   .     S
C603   C611    1.419   .     A
C603   C610    1.401   .     A
C603   S529    1.775   1_655 S
C604   C606    1.486   .     S
C604   C612    1.427   .     A
C605   C769    1.328   .     S
C605   H788    1.088   .     S
C606   O632    1.300   .     A
C606   O631    1.300   .     A
C607   C608    1.427   .     S
C607   C929    1.328   1_545 S
C607   H941    1.088   1_545 S
C608   O634    1.290   .     A
C608   O633    1.284   .     A
C609   O636    1.300   .     A
C609   O635    1.299   .     A
C609   C611    1.480   .     S
C610   H621    1.083   .     S
C612   C613    1.396   .     A
C612   C642    1.518   .     S
C613   C128    1.385   1_556 S
C614   H623    1.076   .     S
Cu615  O629    1.954   .     S
Cu615  O633    1.950   .     S
Cu615  Cu616   2.683   .     S
Cu615  O635    1.907   .     S
Cu615  O631    1.932   .     S
Cu615  N628    2.016   .     S
Cu616  O634    1.954   .     S
Cu616  O636    1.932   .     S
Cu616  O632    1.907   .     S
Cu616  N627    2.016   .     S
Cu616  O630    1.950   .     S
H617   C769    1.088   .     S
H619   N520    1.029   1_655 S
H624   C505    1.084   1_655 S
H626   C929    1.088   1_545 S
N627   H510    1.029   1_655 S
N627   N520    1.281   1_655 S
S637   O638    1.502   .     D
S637   O639    1.504   .     D
O640   H641    0.991   .     S
O640   S529    1.681   1_655 S
C642   H647    1.108   .     S
C643   H646    1.111   .     S
C643   H644    1.110   .     S
C643   H645    1.109   .     S
C643   C534    1.526   1_655 S
H648   C534    1.113   1_655 S
C649   C659    1.427   .     S
C649   O683    1.290   .     A
C649   O684    1.284   .     A
C650   C651    1.419   .     A
C650   C166    1.427   1_556 S
C650   C182    1.411   1_556 S
C651   C658    1.426   .     A
C651   C655    1.413   .     A
C652   C656    1.403   .     A
C653   C654    1.394   .     A
C653   C166    1.414   1_556 S
C653   C178    1.401   1_556 S
C654   C655    1.387   .     A
C654   H674    1.084   .     S
C655   H679    1.081   .     S
C656   C665    1.402   .     A
C656   H676    1.077   .     S
C657   C665    1.419   .     A
C657   C664    1.401   .     A
C657   S745    1.775   .     S
C658   C660    1.486   .     S
C658   C666    1.427   .     A
C659   C823    1.328   .     S
C659   H842    1.088   .     S
C660   O686    1.300   .     A
C660   O685    1.300   .     A
C661   C662    1.427   .     S
C662   O688    1.290   .     A
C662   O687    1.284   .     A
C663   O690    1.300   .     A
C663   O689    1.299   .     A
C663   C665    1.480   .     S
C664   H675    1.083   .     S
C666   C667    1.396   .     A
C666   C696    1.518   .     S
C667   C182    1.385   1_556 S
C667   H786    1.084   1_455 S
C668   H677    1.076   .     S
Cu669  O683    1.954   .     S
Cu669  O687    1.950   .     S
Cu669  Cu670   2.683   .     S
Cu669  O689    1.907   .     S
Cu669  O685    1.932   .     S
Cu669  N682    2.016   .     S
Cu670  O688    1.954   .     S
Cu670  O690    1.932   .     S
Cu670  O686    1.907   .     S
Cu670  N681    2.016   .     S
Cu670  O684    1.950   .     S
H671   C823    1.088   .     S
H672   N789    1.029   1_455 S
H673   N736    1.029   .     S
H678   C721    1.084   .     S
N681   H726    1.029   .     S
N681   N736    1.281   .     S
N682   N789    1.281   1_455 S
N682   H781    1.029   1_455 S
S691   O692    1.502   .     D
S691   O693    1.504   .     D
S691   C765    1.775   1_455 S
S691   O802    1.681   1_455 S
O694   H695    0.991   .     S
O694   S745    1.681   .     S
C696   H701    1.108   .     S
C696   C805    1.526   1_455 S
C696   H810    1.113   1_455 S
C697   H700    1.111   .     S
C697   H698    1.110   .     S
C697   H699    1.109   .     S
C697   C750    1.526   .     S
H702   C750    1.113   .     S
C703   C713    1.427   .     S
C703   O737    1.290   .     A
C703   O738    1.284   .     A
C704   C705    1.419   .     A
C704   C220    1.427   1_556 S
C704   C236    1.411   1_556 S
C705   C712    1.426   .     A
C705   C709    1.413   .     A
C706   C710    1.403   .     A
C707   C708    1.394   .     A
C707   C220    1.414   1_556 S
C707   C232    1.401   1_556 S
C708   C709    1.387   .     A
C708   H728    1.084   .     S
C709   H733    1.081   .     S
C710   C719    1.402   .     A
C710   H730    1.077   .     S
C711   C719    1.419   .     A
C711   C718    1.401   .     A
C711   S799    1.775   .     S
C712   C714    1.486   .     S
C712   C720    1.427   .     A
C713   C877    1.328   .     S
C713   H896    1.088   .     S
C714   O740    1.300   .     A
C714   O739    1.300   .     A
C715   C716    1.427   .     S
C716   O742    1.290   .     A
C716   O741    1.284   .     A
C717   O744    1.300   .     A
C717   O743    1.299   .     A
C717   C719    1.480   .     S
C718   H729    1.083   .     S
C720   C721    1.396   .     A
C720   C750    1.518   .     S
C721   C236    1.385   1_556 S
C722   H731    1.076   .     S
Cu723  O737    1.954   .     S
Cu723  O741    1.950   .     S
Cu723  Cu724   2.683   .     S
Cu723  O743    1.907   .     S
Cu723  O739    1.932   .     S
Cu723  N736    2.016   .     S
Cu724  O742    1.954   .     S
Cu724  O744    1.932   .     S
Cu724  O740    1.907   .     S
Cu724  N735    2.016   .     S
Cu724  O738    1.950   .     S
H725   C877    1.088   .     S
H727   N790    1.029   .     S
H732   C775    1.084   .     S
N735   H780    1.029   .     S
N735   N790    1.281   .     S
S745   O746    1.502   .     D
S745   O747    1.504   .     D
O748   H749    0.991   .     S
O748   S799    1.681   .     S
C750   H755    1.108   .     S
C751   H754    1.111   .     S
C751   H752    1.110   .     S
C751   H753    1.109   .     S
C751   C804    1.526   .     S
H756   C804    1.113   .     S
C757   C767    1.427   .     S
C757   O791    1.290   .     A
C757   O792    1.284   .     A
C758   C759    1.419   .     A
C758   C274    1.427   1_556 S
C758   C290    1.411   1_556 S
C759   C766    1.426   .     A
C759   C763    1.413   .     A
C760   C764    1.403   .     A
C761   C762    1.394   .     A
C761   C274    1.414   1_556 S
C761   C286    1.401   1_556 S
C762   C763    1.387   .     A
C762   H782    1.084   .     S
C763   H787    1.081   .     S
C764   C773    1.402   .     A
C764   H784    1.077   .     S
C765   C773    1.419   .     A
C765   C772    1.401   .     A
C765   S691    1.775   1_655 S
C766   C768    1.486   .     S
C766   C774    1.427   .     A
C767   C931    1.328   .     S
C767   H950    1.088   .     S
C768   O794    1.300   .     A
C768   O793    1.300   .     A
C769   C770    1.427   .     S
C770   O796    1.290   .     A
C770   O795    1.284   .     A
C771   O798    1.300   .     A
C771   O797    1.299   .     A
C771   C773    1.480   .     S
C772   H783    1.083   .     S
C774   C775    1.396   .     A
C774   C804    1.518   .     S
C775   C290    1.385   1_556 S
C776   H785    1.076   .     S
Cu777  O791    1.954   .     S
Cu777  O795    1.950   .     S
Cu777  Cu778   2.683   .     S
Cu777  O797    1.907   .     S
Cu777  O793    1.932   .     S
Cu777  N790    2.016   .     S
Cu778  O796    1.954   .     S
Cu778  O798    1.932   .     S
Cu778  O794    1.907   .     S
Cu778  N789    2.016   .     S
Cu778  O792    1.950   .     S
H779   C931    1.088   .     S
H781   N682    1.029   1_655 S
H786   C667    1.084   1_655 S
N789   H672    1.029   1_655 S
N789   N682    1.281   1_655 S
S799   O800    1.502   .     D
S799   O801    1.504   .     D
O802   H803    0.991   .     S
O802   S691    1.681   1_655 S
C804   H809    1.108   .     S
C805   H808    1.111   .     S
C805   H806    1.110   .     S
C805   H807    1.109   .     S
C805   C696    1.526   1_655 S
H810   C696    1.113   1_655 S
C811   C821    1.427   .     S
C811   O845    1.290   .     A
C811   O846    1.284   .     A
C812   C813    1.419   .     A
C812   C328    1.427   1_556 S
C812   C344    1.411   1_556 S
C813   C820    1.426   .     A
C813   C817    1.413   .     A
C814   C818    1.403   .     A
C815   C816    1.394   .     A
C815   C328    1.414   1_556 S
C815   C340    1.401   1_556 S
C816   C817    1.387   .     A
C816   H836    1.084   .     S
C817   H841    1.081   .     S
C818   C827    1.402   .     A
C818   H838    1.077   .     S
C819   C827    1.419   .     A
C819   C826    1.401   .     A
C819   S907    1.775   .     S
C820   C822    1.486   .     S
C820   C828    1.427   .     A
C821   C499    1.328   1_565 S
C821   H518    1.088   1_565 S
C822   O848    1.300   .     A
C822   O847    1.300   .     A
C823   C824    1.427   .     S
C824   O850    1.290   .     A
C824   O849    1.284   .     A
C825   O852    1.300   .     A
C825   O851    1.299   .     A
C825   C827    1.480   .     S
C826   H837    1.083   .     S
C828   C829    1.396   .     A
C828   C858    1.518   .     S
C829   C344    1.385   1_556 S
C829   H948    1.084   1_455 S
C830   H839    1.076   .     S
Cu831  O845    1.954   .     S
Cu831  O849    1.950   .     S
Cu831  Cu832   2.683   .     S
Cu831  O851    1.907   .     S
Cu831  O847    1.932   .     S
Cu831  N844    2.016   .     S
Cu832  O850    1.954   .     S
Cu832  O852    1.932   .     S
Cu832  O848    1.907   .     S
Cu832  N843    2.016   .     S
Cu832  O846    1.950   .     S
H833   C499    1.088   1_565 S
H834   N951    1.029   1_455 S
H835   N898    1.029   .     S
H840   C883    1.084   .     S
N843   H888    1.029   .     S
N843   N898    1.281   .     S
N844   N951    1.281   1_455 S
N844   H943    1.029   1_455 S
S853   O854    1.502   .     D
S853   O855    1.504   .     D
S853   C927    1.775   1_455 S
S853   O964    1.681   1_455 S
O856   H857    0.991   .     S
O856   S907    1.681   .     S
C858   H863    1.108   .     S
C858   C967    1.526   1_455 S
C858   H972    1.113   1_455 S
C859   H862    1.111   .     S
C859   H860    1.110   .     S
C859   H861    1.109   .     S
C859   C912    1.526   .     S
H864   C912    1.113   .     S
C865   C875    1.427   .     S
C865   O899    1.290   .     A
C865   O900    1.284   .     A
C866   C867    1.419   .     A
C866   C382    1.427   1_556 S
C866   C398    1.411   1_556 S
C867   C874    1.426   .     A
C867   C871    1.413   .     A
C868   C872    1.403   .     A
C869   C870    1.394   .     A
C869   C382    1.414   1_556 S
C869   C394    1.401   1_556 S
C870   C871    1.387   .     A
C870   H890    1.084   .     S
C871   H895    1.081   .     S
C872   C881    1.402   .     A
C872   H892    1.077   .     S
C873   C881    1.419   .     A
C873   C880    1.401   .     A
C873   S961    1.775   .     S
C874   C876    1.486   .     S
C874   C882    1.427   .     A
C875   C553    1.328   1_565 S
C875   H572    1.088   1_565 S
C876   O902    1.300   .     A
C876   O901    1.300   .     A
C877   C878    1.427   .     S
C878   O904    1.290   .     A
C878   O903    1.284   .     A
C879   O906    1.300   .     A
C879   O905    1.299   .     A
C879   C881    1.480   .     S
C880   H891    1.083   .     S
C882   C883    1.396   .     A
C882   C912    1.518   .     S
C883   C398    1.385   1_556 S
C884   H893    1.076   .     S
Cu885  O899    1.954   .     S
Cu885  O903    1.950   .     S
Cu885  Cu886   2.683   .     S
Cu885  O905    1.907   .     S
Cu885  O901    1.932   .     S
Cu885  N898    2.016   .     S
Cu886  O904    1.954   .     S
Cu886  O906    1.932   .     S
Cu886  O902    1.907   .     S
Cu886  N897    2.016   .     S
Cu886  O900    1.950   .     S
H887   C553    1.088   1_565 S
H889   N952    1.029   .     S
H894   C937    1.084   .     S
N897   H942    1.029   .     S
N897   N952    1.281   .     S
S907   O908    1.502   .     D
S907   O909    1.504   .     D
O910   H911    0.991   .     S
O910   S961    1.681   .     S
C912   H917    1.108   .     S
C913   H916    1.111   .     S
C913   H914    1.110   .     S
C913   H915    1.109   .     S
C913   C966    1.526   .     S
H918   C966    1.113   .     S
C919   C929    1.427   .     S
C919   O953    1.290   .     A
C919   O954    1.284   .     A
C920   C921    1.419   .     A
C920   C436    1.427   1_556 S
C920   C452    1.411   1_556 S
C921   C928    1.426   .     A
C921   C925    1.413   .     A
C922   C926    1.403   .     A
C923   C924    1.394   .     A
C923   C436    1.414   1_556 S
C923   C448    1.401   1_556 S
C924   C925    1.387   .     A
C924   H944    1.084   .     S
C925   H949    1.081   .     S
C926   C935    1.402   .     A
C926   H946    1.077   .     S
C927   C935    1.419   .     A
C927   C934    1.401   .     A
C927   S853    1.775   1_655 S
C928   C930    1.486   .     S
C928   C936    1.427   .     A
C929   C607    1.328   1_565 S
C929   H626    1.088   1_565 S
C930   O956    1.300   .     A
C930   O955    1.300   .     A
C931   C932    1.427   .     S
C932   O958    1.290   .     A
C932   O957    1.284   .     A
C933   O960    1.300   .     A
C933   O959    1.299   .     A
C933   C935    1.480   .     S
C934   H945    1.083   .     S
C936   C937    1.396   .     A
C936   C966    1.518   .     S
C937   C452    1.385   1_556 S
C938   H947    1.076   .     S
Cu939  O953    1.954   .     S
Cu939  O957    1.950   .     S
Cu939  Cu940   2.683   .     S
Cu939  O959    1.907   .     S
Cu939  O955    1.932   .     S
Cu939  N952    2.016   .     S
Cu940  O958    1.954   .     S
Cu940  O960    1.932   .     S
Cu940  O956    1.907   .     S
Cu940  N951    2.016   .     S
Cu940  O954    1.950   .     S
H941   C607    1.088   1_565 S
H943   N844    1.029   1_655 S
H948   C829    1.084   1_655 S
N951   H834    1.029   1_655 S
N951   N844    1.281   1_655 S
S961   O962    1.502   .     D
S961   O963    1.504   .     D
O964   H965    0.991   .     S
O964   S853    1.681   1_655 S
C966   H971    1.108   .     S
C967   H970    1.111   .     S
C967   H968    1.110   .     S
C967   H969    1.109   .     S
C967   C858    1.526   1_655 S
H972   C858    1.113   1_655 S
