data_str_m2_o1_o10_pcu_sym.36
_audit_creation_date              2020-01-03
_audit_creation_method            'Materials Studio'
_symmetry_space_group_name_H-M    'P1'
_symmetry_Int_Tables_number       1
_symmetry_cell_setting            triclinic
loop_
_symmetry_equiv_pos_as_xyz
  x,y,z
_cell_length_a                    26.1565
_cell_length_b                    32.7657
_cell_length_c                    28.7323
_cell_angle_alpha                 89.7795
_cell_angle_beta                  96.9114
_cell_angle_gamma                 91.7442
loop_
_atom_site_label
_atom_site_type_symbol
_atom_site_fract_x
_atom_site_fract_y
_atom_site_fract_z
_atom_site_U_iso_or_equiv
_atom_site_adp_type
_atom_site_occupancy
O1     O     0.16666   0.10655   0.20625   0.00000  Uiso   1.00
O2     O     0.16667   0.22678   0.12709   0.00000  Uiso   1.00
O3     O     0.16666   0.10654   0.12706   0.00000  Uiso   1.00
O4     O     0.16667   0.22679   0.20628   0.00000  Uiso   1.00
C5     C     0.16911   0.08749   0.16682   0.00000  Uiso   1.00
C6     C     0.16425   0.24585   0.16652   0.00000  Uiso   1.00
O7     O     0.09161   0.16667   0.19712   0.00000  Uiso   1.00
O8     O     0.24172   0.16666   0.13621   0.00000  Uiso   1.00
O9     O     0.09161   0.16666   0.11793   0.00000  Uiso   1.00
O10    O     0.24172   0.16667   0.21540   0.00000  Uiso   1.00
C11    C     0.06808   0.16604   0.15486   0.00000  Uiso   1.00
C12    C     0.26525   0.16731   0.17847   0.00000  Uiso   1.00
Cu13   Cu    0.16667   0.16667   0.21355   0.00000  Uiso   1.00
Cu14   Cu    0.16667   0.16666   0.11978   0.00000  Uiso   1.00
N15    N     0.16668   0.16668   0.28403   0.00000  Uiso   1.00
N16    N     0.16665   0.16666   0.04931   0.00000  Uiso   1.00
C17    C     0.01296   0.16371   0.14853   0.00000  Uiso   1.00
C18    C     0.32037   0.16966   0.18479   0.00000  Uiso   1.00
H19    H     0.32696   0.15625   0.11394   0.00000  Uiso   1.00
H20    H     0.00637   0.17713   0.21937   0.00000  Uiso   1.00
C21    C     0.16199   0.02107   0.12351   0.00000  Uiso   1.00
C22    C     0.17143   0.31227   0.20983   0.00000  Uiso   1.00
C23    C     0.15443   0.31205   0.12398   0.00000  Uiso   1.00
C24    C     0.17899   0.02130   0.20936   0.00000  Uiso   1.00
C25    C     0.16188   0.29062   0.16683   0.00000  Uiso   1.00
C26    C     0.17152   0.04272   0.16650   0.00000  Uiso   1.00
C27    C     0.12751   0.14823   0.02114   0.00000  Uiso   1.00
C28    C     0.20582   0.18510   0.31219   0.00000  Uiso   1.00
H29    H     0.09651   0.13309   0.03689   0.00000  Uiso   1.00
H30    H     0.23682   0.20024   0.29644   0.00000  Uiso   1.00
C31    C     0.12697   0.14803   0.30512   0.00000  Uiso   1.00
C32    C     0.20637   0.18530   0.02821   0.00000  Uiso   1.00
N33    N     0.15963   0.04195   0.07962   0.00000  Uiso   1.00
H34    H     0.13206   0.03121   0.05352   0.00000  Uiso   1.00
C35    C     0.20932   0.05069   0.06366   0.00000  Uiso   1.00
H36    H     0.22529   0.02244   0.05076   0.00000  Uiso   1.00
H37    H     0.23711   0.06388   0.09238   0.00000  Uiso   1.00
H38    H     0.20488   0.07339   0.03482   0.00000  Uiso   1.00
N39    N     0.17383   0.29138   0.25371   0.00000  Uiso   1.00
H40    H     0.20144   0.30212   0.27979   0.00000  Uiso   1.00
C41    C     0.12417   0.28266   0.26973   0.00000  Uiso   1.00
H42    H     0.10825   0.31091   0.28270   0.00000  Uiso   1.00
H43    H     0.12863   0.25993   0.29854   0.00000  Uiso   1.00
H44    H     0.09632   0.26951   0.24102   0.00000  Uiso   1.00
N45    N     0.13681   0.29122   0.08086   0.00000  Uiso   1.00
O46    O     0.09172   0.27278   0.07545   0.00000  Uiso   1.00
O47    O     0.16516   0.29132   0.04667   0.00000  Uiso   1.00
N48    N     0.19667   0.04212   0.25247   0.00000  Uiso   1.00
O49    O     0.24173   0.06060   0.25781   0.00000  Uiso   1.00
O50    O     0.16839   0.04198   0.28671   0.00000  Uiso   1.00
N51    N     0.08328   0.12857   0.27835   0.00000  Uiso   1.00
O52    O     0.08942   0.09678   0.25301   0.00000  Uiso   1.00
O53    O     0.03754   0.13468   0.28997   0.00000  Uiso   1.00
N54    N     0.25011   0.20472   0.05497   0.00000  Uiso   1.00
O55    O     0.24400   0.23638   0.08053   0.00000  Uiso   1.00
O56    O     0.29581   0.19872   0.04320   0.00000  Uiso   1.00
O57    O     0.50000   0.10655   0.20625   0.00000  Uiso   1.00
O58    O     0.50000   0.22678   0.12709   0.00000  Uiso   1.00
O59    O     0.50000   0.10654   0.12706   0.00000  Uiso   1.00
O60    O     0.50000   0.22679   0.20628   0.00000  Uiso   1.00
C61    C     0.50244   0.08749   0.16682   0.00000  Uiso   1.00
C62    C     0.49758   0.24585   0.16652   0.00000  Uiso   1.00
O63    O     0.42495   0.16667   0.19712   0.00000  Uiso   1.00
O64    O     0.57505   0.16666   0.13621   0.00000  Uiso   1.00
O65    O     0.42494   0.16666   0.11793   0.00000  Uiso   1.00
O66    O     0.57506   0.16667   0.21540   0.00000  Uiso   1.00
C67    C     0.40141   0.16604   0.15486   0.00000  Uiso   1.00
C68    C     0.59859   0.16731   0.17847   0.00000  Uiso   1.00
Cu69   Cu    0.50000   0.16667   0.21355   0.00000  Uiso   1.00
Cu70   Cu    0.50000   0.16666   0.11978   0.00000  Uiso   1.00
N71    N     0.50001   0.16668   0.28403   0.00000  Uiso   1.00
N72    N     0.49999   0.16666   0.04931   0.00000  Uiso   1.00
C73    C     0.34630   0.16371   0.14853   0.00000  Uiso   1.00
C74    C     0.65370   0.16966   0.18479   0.00000  Uiso   1.00
H75    H     0.66029   0.15625   0.11394   0.00000  Uiso   1.00
H76    H     0.33971   0.17713   0.21937   0.00000  Uiso   1.00
C77    C     0.49533   0.02107   0.12351   0.00000  Uiso   1.00
C78    C     0.50476   0.31227   0.20983   0.00000  Uiso   1.00
C79    C     0.48776   0.31205   0.12398   0.00000  Uiso   1.00
C80    C     0.51233   0.02130   0.20936   0.00000  Uiso   1.00
C81    C     0.49521   0.29062   0.16683   0.00000  Uiso   1.00
C82    C     0.50485   0.04272   0.16650   0.00000  Uiso   1.00
C83    C     0.46084   0.14823   0.02114   0.00000  Uiso   1.00
C84    C     0.53916   0.18510   0.31219   0.00000  Uiso   1.00
H85    H     0.42985   0.13309   0.03689   0.00000  Uiso   1.00
H86    H     0.57015   0.20024   0.29644   0.00000  Uiso   1.00
C87    C     0.46031   0.14803   0.30512   0.00000  Uiso   1.00
C88    C     0.53971   0.18530   0.02821   0.00000  Uiso   1.00
N89    N     0.49297   0.04195   0.07962   0.00000  Uiso   1.00
H90    H     0.46540   0.03121   0.05352   0.00000  Uiso   1.00
C91    C     0.54266   0.05069   0.06366   0.00000  Uiso   1.00
H92    H     0.55863   0.02244   0.05076   0.00000  Uiso   1.00
H93    H     0.57045   0.06388   0.09238   0.00000  Uiso   1.00
H94    H     0.53821   0.07339   0.03482   0.00000  Uiso   1.00
N95    N     0.50717   0.29138   0.25371   0.00000  Uiso   1.00
H96    H     0.53478   0.30212   0.27979   0.00000  Uiso   1.00
C97    C     0.45750   0.28266   0.26973   0.00000  Uiso   1.00
H98    H     0.44158   0.31091   0.28270   0.00000  Uiso   1.00
H99    H     0.46197   0.25993   0.29854   0.00000  Uiso   1.00
H100   H     0.42965   0.26951   0.24102   0.00000  Uiso   1.00
N101   N     0.47014   0.29122   0.08086   0.00000  Uiso   1.00
O102   O     0.42505   0.27278   0.07545   0.00000  Uiso   1.00
O103   O     0.49850   0.29132   0.04667   0.00000  Uiso   1.00
N104   N     0.53000   0.04212   0.25247   0.00000  Uiso   1.00
O105   O     0.57506   0.06060   0.25781   0.00000  Uiso   1.00
O106   O     0.50172   0.04198   0.28671   0.00000  Uiso   1.00
N107   N     0.41661   0.12857   0.27835   0.00000  Uiso   1.00
O108   O     0.42276   0.09678   0.25301   0.00000  Uiso   1.00
O109   O     0.37088   0.13468   0.28997   0.00000  Uiso   1.00
N110   N     0.58344   0.20472   0.05497   0.00000  Uiso   1.00
O111   O     0.57733   0.23638   0.08053   0.00000  Uiso   1.00
O112   O     0.62915   0.19872   0.04320   0.00000  Uiso   1.00
O113   O     0.83333   0.10655   0.20625   0.00000  Uiso   1.00
O114   O     0.83334   0.22678   0.12709   0.00000  Uiso   1.00
O115   O     0.83333   0.10654   0.12706   0.00000  Uiso   1.00
O116   O     0.83334   0.22679   0.20628   0.00000  Uiso   1.00
C117   C     0.83577   0.08749   0.16682   0.00000  Uiso   1.00
C118   C     0.83091   0.24585   0.16652   0.00000  Uiso   1.00
O119   O     0.75828   0.16667   0.19712   0.00000  Uiso   1.00
O120   O     0.90839   0.16666   0.13621   0.00000  Uiso   1.00
O121   O     0.75828   0.16666   0.11793   0.00000  Uiso   1.00
O122   O     0.90839   0.16667   0.21540   0.00000  Uiso   1.00
C123   C     0.73475   0.16604   0.15486   0.00000  Uiso   1.00
C124   C     0.93192   0.16731   0.17847   0.00000  Uiso   1.00
Cu125  Cu    0.83333   0.16667   0.21355   0.00000  Uiso   1.00
Cu126  Cu    0.83333   0.16666   0.11978   0.00000  Uiso   1.00
N127   N     0.83335   0.16668   0.28403   0.00000  Uiso   1.00
N128   N     0.83332   0.16666   0.04931   0.00000  Uiso   1.00
C129   C     0.67963   0.16371   0.14853   0.00000  Uiso   1.00
C130   C     0.98703   0.16966   0.18479   0.00000  Uiso   1.00
H131   H     0.99362   0.15625   0.11394   0.00000  Uiso   1.00
H132   H     0.67304   0.17713   0.21937   0.00000  Uiso   1.00
C133   C     0.82866   0.02107   0.12351   0.00000  Uiso   1.00
C134   C     0.83809   0.31227   0.20983   0.00000  Uiso   1.00
C135   C     0.82110   0.31205   0.12398   0.00000  Uiso   1.00
C136   C     0.84566   0.02130   0.20936   0.00000  Uiso   1.00
C137   C     0.82854   0.29062   0.16683   0.00000  Uiso   1.00
C138   C     0.83819   0.04272   0.16650   0.00000  Uiso   1.00
C139   C     0.79418   0.14823   0.02114   0.00000  Uiso   1.00
C140   C     0.87249   0.18510   0.31219   0.00000  Uiso   1.00
H141   H     0.76318   0.13309   0.03689   0.00000  Uiso   1.00
H142   H     0.90348   0.20024   0.29644   0.00000  Uiso   1.00
C143   C     0.79364   0.14803   0.30512   0.00000  Uiso   1.00
C144   C     0.87304   0.18530   0.02821   0.00000  Uiso   1.00
N145   N     0.82630   0.04195   0.07962   0.00000  Uiso   1.00
H146   H     0.79873   0.03121   0.05352   0.00000  Uiso   1.00
C147   C     0.87599   0.05069   0.06366   0.00000  Uiso   1.00
H148   H     0.89196   0.02244   0.05076   0.00000  Uiso   1.00
H149   H     0.90378   0.06388   0.09238   0.00000  Uiso   1.00
H150   H     0.87155   0.07339   0.03482   0.00000  Uiso   1.00
N151   N     0.84050   0.29138   0.25371   0.00000  Uiso   1.00
H152   H     0.86811   0.30212   0.27979   0.00000  Uiso   1.00
C153   C     0.79083   0.28266   0.26973   0.00000  Uiso   1.00
H154   H     0.77491   0.31091   0.28270   0.00000  Uiso   1.00
H155   H     0.79530   0.25993   0.29854   0.00000  Uiso   1.00
H156   H     0.76299   0.26951   0.24102   0.00000  Uiso   1.00
N157   N     0.80347   0.29122   0.08086   0.00000  Uiso   1.00
O158   O     0.75838   0.27278   0.07545   0.00000  Uiso   1.00
O159   O     0.83183   0.29132   0.04667   0.00000  Uiso   1.00
N160   N     0.86333   0.04212   0.25247   0.00000  Uiso   1.00
O161   O     0.90840   0.06060   0.25781   0.00000  Uiso   1.00
O162   O     0.83505   0.04198   0.28671   0.00000  Uiso   1.00
N163   N     0.74995   0.12857   0.27835   0.00000  Uiso   1.00
O164   O     0.75609   0.09678   0.25301   0.00000  Uiso   1.00
O165   O     0.70421   0.13468   0.28997   0.00000  Uiso   1.00
N166   N     0.91677   0.20472   0.05497   0.00000  Uiso   1.00
O167   O     0.91066   0.23638   0.08053   0.00000  Uiso   1.00
O168   O     0.96248   0.19872   0.04320   0.00000  Uiso   1.00
O169   O     0.16666   0.43989   0.20625   0.00000  Uiso   1.00
O170   O     0.16667   0.56011   0.12709   0.00000  Uiso   1.00
O171   O     0.16666   0.43988   0.12706   0.00000  Uiso   1.00
O172   O     0.16667   0.56012   0.20628   0.00000  Uiso   1.00
C173   C     0.16911   0.42082   0.16682   0.00000  Uiso   1.00
C174   C     0.16425   0.57918   0.16652   0.00000  Uiso   1.00
O175   O     0.09161   0.50000   0.19712   0.00000  Uiso   1.00
O176   O     0.24172   0.50000   0.13621   0.00000  Uiso   1.00
O177   O     0.09161   0.49999   0.11793   0.00000  Uiso   1.00
O178   O     0.24172   0.50001   0.21540   0.00000  Uiso   1.00
C179   C     0.06808   0.49937   0.15486   0.00000  Uiso   1.00
C180   C     0.26525   0.50064   0.17847   0.00000  Uiso   1.00
Cu181  Cu    0.16667   0.50001   0.21355   0.00000  Uiso   1.00
Cu182  Cu    0.16667   0.49999   0.11978   0.00000  Uiso   1.00
N183   N     0.16668   0.50001   0.28403   0.00000  Uiso   1.00
N184   N     0.16665   0.49999   0.04931   0.00000  Uiso   1.00
C185   C     0.01296   0.49704   0.14853   0.00000  Uiso   1.00
C186   C     0.32037   0.50299   0.18479   0.00000  Uiso   1.00
H187   H     0.32696   0.48959   0.11394   0.00000  Uiso   1.00
H188   H     0.00637   0.51046   0.21937   0.00000  Uiso   1.00
C189   C     0.16199   0.35440   0.12351   0.00000  Uiso   1.00
C190   C     0.17143   0.64561   0.20983   0.00000  Uiso   1.00
C191   C     0.15443   0.64538   0.12398   0.00000  Uiso   1.00
C192   C     0.17899   0.35463   0.20936   0.00000  Uiso   1.00
C193   C     0.16188   0.62395   0.16683   0.00000  Uiso   1.00
C194   C     0.17152   0.37605   0.16650   0.00000  Uiso   1.00
C195   C     0.12751   0.48156   0.02114   0.00000  Uiso   1.00
C196   C     0.20582   0.51844   0.31219   0.00000  Uiso   1.00
H197   H     0.09651   0.46642   0.03689   0.00000  Uiso   1.00
H198   H     0.23682   0.53357   0.29644   0.00000  Uiso   1.00
C199   C     0.12697   0.48136   0.30512   0.00000  Uiso   1.00
C200   C     0.20637   0.51863   0.02821   0.00000  Uiso   1.00
N201   N     0.15963   0.37529   0.07962   0.00000  Uiso   1.00
H202   H     0.13206   0.36454   0.05352   0.00000  Uiso   1.00
C203   C     0.20932   0.38402   0.06366   0.00000  Uiso   1.00
H204   H     0.22529   0.35578   0.05076   0.00000  Uiso   1.00
H205   H     0.23711   0.39722   0.09238   0.00000  Uiso   1.00
H206   H     0.20488   0.40672   0.03482   0.00000  Uiso   1.00
N207   N     0.17383   0.62472   0.25371   0.00000  Uiso   1.00
H208   H     0.20144   0.63545   0.27979   0.00000  Uiso   1.00
C209   C     0.12417   0.61600   0.26973   0.00000  Uiso   1.00
H210   H     0.10825   0.64424   0.28270   0.00000  Uiso   1.00
H211   H     0.12863   0.59327   0.29854   0.00000  Uiso   1.00
H212   H     0.09632   0.60284   0.24102   0.00000  Uiso   1.00
N213   N     0.13681   0.62456   0.08086   0.00000  Uiso   1.00
O214   O     0.09172   0.60612   0.07545   0.00000  Uiso   1.00
O215   O     0.16516   0.62465   0.04667   0.00000  Uiso   1.00
N216   N     0.19667   0.37545   0.25247   0.00000  Uiso   1.00
O217   O     0.24173   0.39393   0.25781   0.00000  Uiso   1.00
O218   O     0.16839   0.37531   0.28671   0.00000  Uiso   1.00
N219   N     0.08328   0.46190   0.27835   0.00000  Uiso   1.00
O220   O     0.08942   0.43011   0.25301   0.00000  Uiso   1.00
O221   O     0.03754   0.46801   0.28997   0.00000  Uiso   1.00
N222   N     0.25011   0.53805   0.05497   0.00000  Uiso   1.00
O223   O     0.24400   0.56972   0.08053   0.00000  Uiso   1.00
O224   O     0.29581   0.53205   0.04320   0.00000  Uiso   1.00
O225   O     0.50000   0.43989   0.20625   0.00000  Uiso   1.00
O226   O     0.50000   0.56011   0.12709   0.00000  Uiso   1.00
O227   O     0.50000   0.43988   0.12706   0.00000  Uiso   1.00
O228   O     0.50000   0.56012   0.20628   0.00000  Uiso   1.00
C229   C     0.50244   0.42082   0.16682   0.00000  Uiso   1.00
C230   C     0.49758   0.57918   0.16652   0.00000  Uiso   1.00
O231   O     0.42495   0.50000   0.19712   0.00000  Uiso   1.00
O232   O     0.57505   0.50000   0.13621   0.00000  Uiso   1.00
O233   O     0.42494   0.49999   0.11793   0.00000  Uiso   1.00
O234   O     0.57506   0.50001   0.21540   0.00000  Uiso   1.00
C235   C     0.40141   0.49937   0.15486   0.00000  Uiso   1.00
C236   C     0.59859   0.50064   0.17847   0.00000  Uiso   1.00
Cu237  Cu    0.50000   0.50001   0.21355   0.00000  Uiso   1.00
Cu238  Cu    0.50000   0.49999   0.11978   0.00000  Uiso   1.00
N239   N     0.50001   0.50001   0.28403   0.00000  Uiso   1.00
N240   N     0.49999   0.49999   0.04931   0.00000  Uiso   1.00
C241   C     0.34630   0.49704   0.14853   0.00000  Uiso   1.00
C242   C     0.65370   0.50299   0.18479   0.00000  Uiso   1.00
H243   H     0.66029   0.48959   0.11394   0.00000  Uiso   1.00
H244   H     0.33971   0.51046   0.21937   0.00000  Uiso   1.00
C245   C     0.49533   0.35440   0.12351   0.00000  Uiso   1.00
C246   C     0.50476   0.64561   0.20983   0.00000  Uiso   1.00
C247   C     0.48776   0.64538   0.12398   0.00000  Uiso   1.00
C248   C     0.51233   0.35463   0.20936   0.00000  Uiso   1.00
C249   C     0.49521   0.62395   0.16683   0.00000  Uiso   1.00
C250   C     0.50485   0.37605   0.16650   0.00000  Uiso   1.00
C251   C     0.46084   0.48156   0.02114   0.00000  Uiso   1.00
C252   C     0.53916   0.51844   0.31219   0.00000  Uiso   1.00
H253   H     0.42985   0.46642   0.03689   0.00000  Uiso   1.00
H254   H     0.57015   0.53357   0.29644   0.00000  Uiso   1.00
C255   C     0.46031   0.48136   0.30512   0.00000  Uiso   1.00
C256   C     0.53971   0.51863   0.02821   0.00000  Uiso   1.00
N257   N     0.49297   0.37529   0.07962   0.00000  Uiso   1.00
H258   H     0.46540   0.36454   0.05352   0.00000  Uiso   1.00
C259   C     0.54266   0.38402   0.06366   0.00000  Uiso   1.00
H260   H     0.55863   0.35578   0.05076   0.00000  Uiso   1.00
H261   H     0.57045   0.39722   0.09238   0.00000  Uiso   1.00
H262   H     0.53821   0.40672   0.03482   0.00000  Uiso   1.00
N263   N     0.50717   0.62472   0.25371   0.00000  Uiso   1.00
H264   H     0.53478   0.63545   0.27979   0.00000  Uiso   1.00
C265   C     0.45750   0.61600   0.26973   0.00000  Uiso   1.00
H266   H     0.44158   0.64424   0.28270   0.00000  Uiso   1.00
H267   H     0.46197   0.59327   0.29854   0.00000  Uiso   1.00
H268   H     0.42965   0.60284   0.24102   0.00000  Uiso   1.00
N269   N     0.47014   0.62456   0.08086   0.00000  Uiso   1.00
O270   O     0.42505   0.60612   0.07545   0.00000  Uiso   1.00
O271   O     0.49850   0.62465   0.04667   0.00000  Uiso   1.00
N272   N     0.53000   0.37545   0.25247   0.00000  Uiso   1.00
O273   O     0.57506   0.39393   0.25781   0.00000  Uiso   1.00
O274   O     0.50172   0.37531   0.28671   0.00000  Uiso   1.00
N275   N     0.41661   0.46190   0.27835   0.00000  Uiso   1.00
O276   O     0.42276   0.43011   0.25301   0.00000  Uiso   1.00
O277   O     0.37088   0.46801   0.28997   0.00000  Uiso   1.00
N278   N     0.58344   0.53805   0.05497   0.00000  Uiso   1.00
O279   O     0.57733   0.56972   0.08053   0.00000  Uiso   1.00
O280   O     0.62915   0.53205   0.04320   0.00000  Uiso   1.00
O281   O     0.83333   0.43989   0.20625   0.00000  Uiso   1.00
O282   O     0.83334   0.56011   0.12709   0.00000  Uiso   1.00
O283   O     0.83333   0.43988   0.12706   0.00000  Uiso   1.00
O284   O     0.83334   0.56012   0.20628   0.00000  Uiso   1.00
C285   C     0.83577   0.42082   0.16682   0.00000  Uiso   1.00
C286   C     0.83091   0.57918   0.16652   0.00000  Uiso   1.00
O287   O     0.75828   0.50000   0.19712   0.00000  Uiso   1.00
O288   O     0.90839   0.50000   0.13621   0.00000  Uiso   1.00
O289   O     0.75828   0.49999   0.11793   0.00000  Uiso   1.00
O290   O     0.90839   0.50001   0.21540   0.00000  Uiso   1.00
C291   C     0.73475   0.49937   0.15486   0.00000  Uiso   1.00
C292   C     0.93192   0.50064   0.17847   0.00000  Uiso   1.00
Cu293  Cu    0.83333   0.50001   0.21355   0.00000  Uiso   1.00
Cu294  Cu    0.83333   0.49999   0.11978   0.00000  Uiso   1.00
N295   N     0.83335   0.50001   0.28403   0.00000  Uiso   1.00
N296   N     0.83332   0.49999   0.04931   0.00000  Uiso   1.00
C297   C     0.67963   0.49704   0.14853   0.00000  Uiso   1.00
C298   C     0.98703   0.50299   0.18479   0.00000  Uiso   1.00
H299   H     0.99362   0.48959   0.11394   0.00000  Uiso   1.00
H300   H     0.67304   0.51046   0.21937   0.00000  Uiso   1.00
C301   C     0.82866   0.35440   0.12351   0.00000  Uiso   1.00
C302   C     0.83809   0.64561   0.20983   0.00000  Uiso   1.00
C303   C     0.82110   0.64538   0.12398   0.00000  Uiso   1.00
C304   C     0.84566   0.35463   0.20936   0.00000  Uiso   1.00
C305   C     0.82854   0.62395   0.16683   0.00000  Uiso   1.00
C306   C     0.83819   0.37605   0.16650   0.00000  Uiso   1.00
C307   C     0.79418   0.48156   0.02114   0.00000  Uiso   1.00
C308   C     0.87249   0.51844   0.31219   0.00000  Uiso   1.00
H309   H     0.76318   0.46642   0.03689   0.00000  Uiso   1.00
H310   H     0.90348   0.53357   0.29644   0.00000  Uiso   1.00
C311   C     0.79364   0.48136   0.30512   0.00000  Uiso   1.00
C312   C     0.87304   0.51863   0.02821   0.00000  Uiso   1.00
N313   N     0.82630   0.37529   0.07962   0.00000  Uiso   1.00
H314   H     0.79873   0.36454   0.05352   0.00000  Uiso   1.00
C315   C     0.87599   0.38402   0.06366   0.00000  Uiso   1.00
H316   H     0.89196   0.35578   0.05076   0.00000  Uiso   1.00
H317   H     0.90378   0.39722   0.09238   0.00000  Uiso   1.00
H318   H     0.87155   0.40672   0.03482   0.00000  Uiso   1.00
N319   N     0.84050   0.62472   0.25371   0.00000  Uiso   1.00
H320   H     0.86811   0.63545   0.27979   0.00000  Uiso   1.00
C321   C     0.79083   0.61600   0.26973   0.00000  Uiso   1.00
H322   H     0.77491   0.64424   0.28270   0.00000  Uiso   1.00
H323   H     0.79530   0.59327   0.29854   0.00000  Uiso   1.00
H324   H     0.76299   0.60284   0.24102   0.00000  Uiso   1.00
N325   N     0.80347   0.62456   0.08086   0.00000  Uiso   1.00
O326   O     0.75838   0.60612   0.07545   0.00000  Uiso   1.00
O327   O     0.83183   0.62465   0.04667   0.00000  Uiso   1.00
N328   N     0.86333   0.37545   0.25247   0.00000  Uiso   1.00
O329   O     0.90840   0.39393   0.25781   0.00000  Uiso   1.00
O330   O     0.83505   0.37531   0.28671   0.00000  Uiso   1.00
N331   N     0.74995   0.46190   0.27835   0.00000  Uiso   1.00
O332   O     0.75609   0.43011   0.25301   0.00000  Uiso   1.00
O333   O     0.70421   0.46801   0.28997   0.00000  Uiso   1.00
N334   N     0.91677   0.53805   0.05497   0.00000  Uiso   1.00
O335   O     0.91066   0.56972   0.08053   0.00000  Uiso   1.00
O336   O     0.96248   0.53205   0.04320   0.00000  Uiso   1.00
O337   O     0.16666   0.77322   0.20625   0.00000  Uiso   1.00
O338   O     0.16667   0.89345   0.12709   0.00000  Uiso   1.00
O339   O     0.16666   0.77321   0.12706   0.00000  Uiso   1.00
O340   O     0.16667   0.89346   0.20628   0.00000  Uiso   1.00
C341   C     0.16911   0.75416   0.16682   0.00000  Uiso   1.00
C342   C     0.16425   0.91251   0.16652   0.00000  Uiso   1.00
O343   O     0.09161   0.83334   0.19712   0.00000  Uiso   1.00
O344   O     0.24172   0.83333   0.13621   0.00000  Uiso   1.00
O345   O     0.09161   0.83333   0.11793   0.00000  Uiso   1.00
O346   O     0.24172   0.83334   0.21540   0.00000  Uiso   1.00
C347   C     0.06808   0.83270   0.15486   0.00000  Uiso   1.00
C348   C     0.26525   0.83398   0.17847   0.00000  Uiso   1.00
Cu349  Cu    0.16667   0.83334   0.21355   0.00000  Uiso   1.00
Cu350  Cu    0.16667   0.83333   0.11978   0.00000  Uiso   1.00
N351   N     0.16668   0.83334   0.28403   0.00000  Uiso   1.00
N352   N     0.16665   0.83332   0.04931   0.00000  Uiso   1.00
C353   C     0.01296   0.83038   0.14853   0.00000  Uiso   1.00
C354   C     0.32037   0.83632   0.18479   0.00000  Uiso   1.00
H355   H     0.32696   0.82292   0.11394   0.00000  Uiso   1.00
H356   H     0.00637   0.84380   0.21937   0.00000  Uiso   1.00
C357   C     0.16199   0.68773   0.12351   0.00000  Uiso   1.00
C358   C     0.17143   0.97894   0.20983   0.00000  Uiso   1.00
C359   C     0.15443   0.97871   0.12398   0.00000  Uiso   1.00
C360   C     0.17899   0.68796   0.20936   0.00000  Uiso   1.00
C361   C     0.16188   0.95729   0.16683   0.00000  Uiso   1.00
C362   C     0.17152   0.70939   0.16650   0.00000  Uiso   1.00
C363   C     0.12751   0.81490   0.02114   0.00000  Uiso   1.00
C364   C     0.20582   0.85177   0.31219   0.00000  Uiso   1.00
H365   H     0.09651   0.79976   0.03689   0.00000  Uiso   1.00
H366   H     0.23682   0.86691   0.29644   0.00000  Uiso   1.00
C367   C     0.12697   0.81469   0.30512   0.00000  Uiso   1.00
C368   C     0.20637   0.85196   0.02821   0.00000  Uiso   1.00
N369   N     0.15963   0.70862   0.07962   0.00000  Uiso   1.00
H370   H     0.13206   0.69787   0.05352   0.00000  Uiso   1.00
C371   C     0.20932   0.71735   0.06366   0.00000  Uiso   1.00
H372   H     0.22529   0.68911   0.05076   0.00000  Uiso   1.00
H373   H     0.23711   0.73055   0.09238   0.00000  Uiso   1.00
H374   H     0.20488   0.74005   0.03482   0.00000  Uiso   1.00
N375   N     0.17383   0.95805   0.25371   0.00000  Uiso   1.00
H376   H     0.20144   0.96878   0.27979   0.00000  Uiso   1.00
C377   C     0.12417   0.94933   0.26973   0.00000  Uiso   1.00
H378   H     0.10825   0.97757   0.28270   0.00000  Uiso   1.00
H379   H     0.12863   0.92660   0.29854   0.00000  Uiso   1.00
H380   H     0.09632   0.93617   0.24102   0.00000  Uiso   1.00
N381   N     0.13681   0.95789   0.08086   0.00000  Uiso   1.00
O382   O     0.09172   0.93945   0.07545   0.00000  Uiso   1.00
O383   O     0.16516   0.95798   0.04667   0.00000  Uiso   1.00
N384   N     0.19667   0.70879   0.25247   0.00000  Uiso   1.00
O385   O     0.24173   0.72727   0.25781   0.00000  Uiso   1.00
O386   O     0.16839   0.70864   0.28671   0.00000  Uiso   1.00
N387   N     0.08328   0.79523   0.27835   0.00000  Uiso   1.00
O388   O     0.08942   0.76344   0.25301   0.00000  Uiso   1.00
O389   O     0.03754   0.80135   0.28997   0.00000  Uiso   1.00
N390   N     0.25011   0.87139   0.05497   0.00000  Uiso   1.00
O391   O     0.24400   0.90305   0.08053   0.00000  Uiso   1.00
O392   O     0.29581   0.86538   0.04320   0.00000  Uiso   1.00
O393   O     0.50000   0.77322   0.20625   0.00000  Uiso   1.00
O394   O     0.50000   0.89345   0.12709   0.00000  Uiso   1.00
O395   O     0.50000   0.77321   0.12706   0.00000  Uiso   1.00
O396   O     0.50000   0.89346   0.20628   0.00000  Uiso   1.00
C397   C     0.50244   0.75416   0.16682   0.00000  Uiso   1.00
C398   C     0.49758   0.91251   0.16652   0.00000  Uiso   1.00
O399   O     0.42495   0.83334   0.19712   0.00000  Uiso   1.00
O400   O     0.57505   0.83333   0.13621   0.00000  Uiso   1.00
O401   O     0.42494   0.83333   0.11793   0.00000  Uiso   1.00
O402   O     0.57506   0.83334   0.21540   0.00000  Uiso   1.00
C403   C     0.40141   0.83270   0.15486   0.00000  Uiso   1.00
C404   C     0.59859   0.83398   0.17847   0.00000  Uiso   1.00
Cu405  Cu    0.50000   0.83334   0.21355   0.00000  Uiso   1.00
Cu406  Cu    0.50000   0.83333   0.11978   0.00000  Uiso   1.00
N407   N     0.50001   0.83334   0.28403   0.00000  Uiso   1.00
N408   N     0.49999   0.83332   0.04931   0.00000  Uiso   1.00
C409   C     0.34630   0.83038   0.14853   0.00000  Uiso   1.00
C410   C     0.65370   0.83632   0.18479   0.00000  Uiso   1.00
H411   H     0.66029   0.82292   0.11394   0.00000  Uiso   1.00
H412   H     0.33971   0.84380   0.21937   0.00000  Uiso   1.00
C413   C     0.49533   0.68773   0.12351   0.00000  Uiso   1.00
C414   C     0.50476   0.97894   0.20983   0.00000  Uiso   1.00
C415   C     0.48776   0.97871   0.12398   0.00000  Uiso   1.00
C416   C     0.51233   0.68796   0.20936   0.00000  Uiso   1.00
C417   C     0.49521   0.95729   0.16683   0.00000  Uiso   1.00
C418   C     0.50485   0.70939   0.16650   0.00000  Uiso   1.00
C419   C     0.46084   0.81490   0.02114   0.00000  Uiso   1.00
C420   C     0.53916   0.85177   0.31219   0.00000  Uiso   1.00
H421   H     0.42985   0.79976   0.03689   0.00000  Uiso   1.00
H422   H     0.57015   0.86691   0.29644   0.00000  Uiso   1.00
C423   C     0.46031   0.81469   0.30512   0.00000  Uiso   1.00
C424   C     0.53971   0.85196   0.02821   0.00000  Uiso   1.00
N425   N     0.49297   0.70862   0.07962   0.00000  Uiso   1.00
H426   H     0.46540   0.69787   0.05352   0.00000  Uiso   1.00
C427   C     0.54266   0.71735   0.06366   0.00000  Uiso   1.00
H428   H     0.55863   0.68911   0.05076   0.00000  Uiso   1.00
H429   H     0.57045   0.73055   0.09238   0.00000  Uiso   1.00
H430   H     0.53821   0.74005   0.03482   0.00000  Uiso   1.00
N431   N     0.50717   0.95805   0.25371   0.00000  Uiso   1.00
H432   H     0.53478   0.96878   0.27979   0.00000  Uiso   1.00
C433   C     0.45750   0.94933   0.26973   0.00000  Uiso   1.00
H434   H     0.44158   0.97757   0.28270   0.00000  Uiso   1.00
H435   H     0.46197   0.92660   0.29854   0.00000  Uiso   1.00
H436   H     0.42965   0.93617   0.24102   0.00000  Uiso   1.00
N437   N     0.47014   0.95789   0.08086   0.00000  Uiso   1.00
O438   O     0.42505   0.93945   0.07545   0.00000  Uiso   1.00
O439   O     0.49850   0.95798   0.04667   0.00000  Uiso   1.00
N440   N     0.53000   0.70879   0.25247   0.00000  Uiso   1.00
O441   O     0.57506   0.72727   0.25781   0.00000  Uiso   1.00
O442   O     0.50172   0.70864   0.28671   0.00000  Uiso   1.00
N443   N     0.41661   0.79523   0.27835   0.00000  Uiso   1.00
O444   O     0.42276   0.76344   0.25301   0.00000  Uiso   1.00
O445   O     0.37088   0.80135   0.28997   0.00000  Uiso   1.00
N446   N     0.58344   0.87139   0.05497   0.00000  Uiso   1.00
O447   O     0.57733   0.90305   0.08053   0.00000  Uiso   1.00
O448   O     0.62915   0.86538   0.04320   0.00000  Uiso   1.00
O449   O     0.83333   0.77322   0.20625   0.00000  Uiso   1.00
O450   O     0.83334   0.89345   0.12709   0.00000  Uiso   1.00
O451   O     0.83333   0.77321   0.12706   0.00000  Uiso   1.00
O452   O     0.83334   0.89346   0.20628   0.00000  Uiso   1.00
C453   C     0.83577   0.75416   0.16682   0.00000  Uiso   1.00
C454   C     0.83091   0.91251   0.16652   0.00000  Uiso   1.00
O455   O     0.75828   0.83334   0.19712   0.00000  Uiso   1.00
O456   O     0.90839   0.83333   0.13621   0.00000  Uiso   1.00
O457   O     0.75828   0.83333   0.11793   0.00000  Uiso   1.00
O458   O     0.90839   0.83334   0.21540   0.00000  Uiso   1.00
C459   C     0.73475   0.83270   0.15486   0.00000  Uiso   1.00
C460   C     0.93192   0.83398   0.17847   0.00000  Uiso   1.00
Cu461  Cu    0.83333   0.83334   0.21355   0.00000  Uiso   1.00
Cu462  Cu    0.83333   0.83333   0.11978   0.00000  Uiso   1.00
N463   N     0.83335   0.83334   0.28403   0.00000  Uiso   1.00
N464   N     0.83332   0.83332   0.04931   0.00000  Uiso   1.00
C465   C     0.67963   0.83038   0.14853   0.00000  Uiso   1.00
C466   C     0.98703   0.83632   0.18479   0.00000  Uiso   1.00
H467   H     0.99362   0.82292   0.11394   0.00000  Uiso   1.00
H468   H     0.67304   0.84380   0.21937   0.00000  Uiso   1.00
C469   C     0.82866   0.68773   0.12351   0.00000  Uiso   1.00
C470   C     0.83809   0.97894   0.20983   0.00000  Uiso   1.00
C471   C     0.82110   0.97871   0.12398   0.00000  Uiso   1.00
C472   C     0.84566   0.68796   0.20936   0.00000  Uiso   1.00
C473   C     0.82854   0.95729   0.16683   0.00000  Uiso   1.00
C474   C     0.83819   0.70939   0.16650   0.00000  Uiso   1.00
C475   C     0.79418   0.81490   0.02114   0.00000  Uiso   1.00
C476   C     0.87249   0.85177   0.31219   0.00000  Uiso   1.00
H477   H     0.76318   0.79976   0.03689   0.00000  Uiso   1.00
H478   H     0.90348   0.86691   0.29644   0.00000  Uiso   1.00
C479   C     0.79364   0.81469   0.30512   0.00000  Uiso   1.00
C480   C     0.87304   0.85196   0.02821   0.00000  Uiso   1.00
N481   N     0.82630   0.70862   0.07962   0.00000  Uiso   1.00
H482   H     0.79873   0.69787   0.05352   0.00000  Uiso   1.00
C483   C     0.87599   0.71735   0.06366   0.00000  Uiso   1.00
H484   H     0.89196   0.68911   0.05076   0.00000  Uiso   1.00
H485   H     0.90378   0.73055   0.09238   0.00000  Uiso   1.00
H486   H     0.87155   0.74005   0.03482   0.00000  Uiso   1.00
N487   N     0.84050   0.95805   0.25371   0.00000  Uiso   1.00
H488   H     0.86811   0.96878   0.27979   0.00000  Uiso   1.00
C489   C     0.79083   0.94933   0.26973   0.00000  Uiso   1.00
H490   H     0.77491   0.97757   0.28270   0.00000  Uiso   1.00
H491   H     0.79530   0.92660   0.29854   0.00000  Uiso   1.00
H492   H     0.76299   0.93617   0.24102   0.00000  Uiso   1.00
N493   N     0.80347   0.95789   0.08086   0.00000  Uiso   1.00
O494   O     0.75838   0.93945   0.07545   0.00000  Uiso   1.00
O495   O     0.83183   0.95798   0.04667   0.00000  Uiso   1.00
N496   N     0.86333   0.70879   0.25247   0.00000  Uiso   1.00
O497   O     0.90840   0.72727   0.25781   0.00000  Uiso   1.00
O498   O     0.83505   0.70864   0.28671   0.00000  Uiso   1.00
N499   N     0.74995   0.79523   0.27835   0.00000  Uiso   1.00
O500   O     0.75609   0.76344   0.25301   0.00000  Uiso   1.00
O501   O     0.70421   0.80135   0.28997   0.00000  Uiso   1.00
N502   N     0.91677   0.87139   0.05497   0.00000  Uiso   1.00
O503   O     0.91066   0.90305   0.08053   0.00000  Uiso   1.00
O504   O     0.96248   0.86538   0.04320   0.00000  Uiso   1.00
O505   O     0.16666   0.10655   0.53958   0.00000  Uiso   1.00
O506   O     0.16667   0.22678   0.46042   0.00000  Uiso   1.00
O507   O     0.16666   0.10654   0.46039   0.00000  Uiso   1.00
O508   O     0.16667   0.22679   0.53961   0.00000  Uiso   1.00
C509   C     0.16911   0.08749   0.50015   0.00000  Uiso   1.00
C510   C     0.16425   0.24585   0.49985   0.00000  Uiso   1.00
O511   O     0.09161   0.16667   0.53046   0.00000  Uiso   1.00
O512   O     0.24172   0.16666   0.46954   0.00000  Uiso   1.00
O513   O     0.09161   0.16666   0.45127   0.00000  Uiso   1.00
O514   O     0.24172   0.16667   0.54873   0.00000  Uiso   1.00
C515   C     0.06808   0.16604   0.48820   0.00000  Uiso   1.00
C516   C     0.26525   0.16731   0.51180   0.00000  Uiso   1.00
Cu517  Cu    0.16667   0.16667   0.54689   0.00000  Uiso   1.00
Cu518  Cu    0.16667   0.16666   0.45311   0.00000  Uiso   1.00
N519   N     0.16668   0.16668   0.61736   0.00000  Uiso   1.00
N520   N     0.16665   0.16666   0.38264   0.00000  Uiso   1.00
C521   C     0.01296   0.16371   0.48186   0.00000  Uiso   1.00
C522   C     0.32037   0.16966   0.51813   0.00000  Uiso   1.00
H523   H     0.32696   0.15625   0.44728   0.00000  Uiso   1.00
H524   H     0.00637   0.17713   0.55271   0.00000  Uiso   1.00
C525   C     0.16199   0.02107   0.45684   0.00000  Uiso   1.00
C526   C     0.17143   0.31227   0.54316   0.00000  Uiso   1.00
C527   C     0.15443   0.31205   0.45731   0.00000  Uiso   1.00
C528   C     0.17899   0.02130   0.54269   0.00000  Uiso   1.00
C529   C     0.16188   0.29062   0.50017   0.00000  Uiso   1.00
C530   C     0.17152   0.04272   0.49983   0.00000  Uiso   1.00
C531   C     0.12751   0.14823   0.35447   0.00000  Uiso   1.00
C532   C     0.20582   0.18510   0.64552   0.00000  Uiso   1.00
H533   H     0.09651   0.13309   0.37022   0.00000  Uiso   1.00
H534   H     0.23682   0.20024   0.62977   0.00000  Uiso   1.00
C535   C     0.12697   0.14803   0.63846   0.00000  Uiso   1.00
C536   C     0.20637   0.18530   0.36154   0.00000  Uiso   1.00
N537   N     0.15963   0.04195   0.41296   0.00000  Uiso   1.00
H538   H     0.13206   0.03121   0.38686   0.00000  Uiso   1.00
C539   C     0.20932   0.05069   0.39699   0.00000  Uiso   1.00
H540   H     0.22529   0.02244   0.38409   0.00000  Uiso   1.00
H541   H     0.23711   0.06388   0.42571   0.00000  Uiso   1.00
H542   H     0.20488   0.07339   0.36815   0.00000  Uiso   1.00
N543   N     0.17383   0.29138   0.58704   0.00000  Uiso   1.00
H544   H     0.20144   0.30212   0.61312   0.00000  Uiso   1.00
C545   C     0.12417   0.28266   0.60306   0.00000  Uiso   1.00
H546   H     0.10825   0.31091   0.61603   0.00000  Uiso   1.00
H547   H     0.12863   0.25993   0.63188   0.00000  Uiso   1.00
H548   H     0.09632   0.26951   0.57436   0.00000  Uiso   1.00
N549   N     0.13681   0.29122   0.41419   0.00000  Uiso   1.00
O550   O     0.09172   0.27278   0.40878   0.00000  Uiso   1.00
O551   O     0.16516   0.29132   0.38000   0.00000  Uiso   1.00
N552   N     0.19667   0.04212   0.58580   0.00000  Uiso   1.00
O553   O     0.24173   0.06060   0.59115   0.00000  Uiso   1.00
O554   O     0.16839   0.04198   0.62004   0.00000  Uiso   1.00
N555   N     0.08328   0.12857   0.61168   0.00000  Uiso   1.00
O556   O     0.08942   0.09678   0.58635   0.00000  Uiso   1.00
O557   O     0.03754   0.13468   0.62330   0.00000  Uiso   1.00
N558   N     0.25011   0.20472   0.38831   0.00000  Uiso   1.00
O559   O     0.24400   0.23638   0.41386   0.00000  Uiso   1.00
O560   O     0.29581   0.19872   0.37654   0.00000  Uiso   1.00
O561   O     0.50000   0.10655   0.53958   0.00000  Uiso   1.00
O562   O     0.50000   0.22678   0.46042   0.00000  Uiso   1.00
O563   O     0.50000   0.10654   0.46039   0.00000  Uiso   1.00
O564   O     0.50000   0.22679   0.53961   0.00000  Uiso   1.00
C565   C     0.50244   0.08749   0.50015   0.00000  Uiso   1.00
C566   C     0.49758   0.24585   0.49985   0.00000  Uiso   1.00
O567   O     0.42495   0.16667   0.53046   0.00000  Uiso   1.00
O568   O     0.57505   0.16666   0.46954   0.00000  Uiso   1.00
O569   O     0.42494   0.16666   0.45127   0.00000  Uiso   1.00
O570   O     0.57506   0.16667   0.54873   0.00000  Uiso   1.00
C571   C     0.40141   0.16604   0.48820   0.00000  Uiso   1.00
C572   C     0.59859   0.16731   0.51180   0.00000  Uiso   1.00
Cu573  Cu    0.50000   0.16667   0.54689   0.00000  Uiso   1.00
Cu574  Cu    0.50000   0.16666   0.45311   0.00000  Uiso   1.00
N575   N     0.50001   0.16668   0.61736   0.00000  Uiso   1.00
N576   N     0.49999   0.16666   0.38264   0.00000  Uiso   1.00
C577   C     0.34630   0.16371   0.48186   0.00000  Uiso   1.00
C578   C     0.65370   0.16966   0.51813   0.00000  Uiso   1.00
H579   H     0.66029   0.15625   0.44728   0.00000  Uiso   1.00
H580   H     0.33971   0.17713   0.55271   0.00000  Uiso   1.00
C581   C     0.49533   0.02107   0.45684   0.00000  Uiso   1.00
C582   C     0.50476   0.31227   0.54316   0.00000  Uiso   1.00
C583   C     0.48776   0.31205   0.45731   0.00000  Uiso   1.00
C584   C     0.51233   0.02130   0.54269   0.00000  Uiso   1.00
C585   C     0.49521   0.29062   0.50017   0.00000  Uiso   1.00
C586   C     0.50485   0.04272   0.49983   0.00000  Uiso   1.00
C587   C     0.46084   0.14823   0.35447   0.00000  Uiso   1.00
C588   C     0.53916   0.18510   0.64552   0.00000  Uiso   1.00
H589   H     0.42985   0.13309   0.37022   0.00000  Uiso   1.00
H590   H     0.57015   0.20024   0.62977   0.00000  Uiso   1.00
C591   C     0.46031   0.14803   0.63846   0.00000  Uiso   1.00
C592   C     0.53971   0.18530   0.36154   0.00000  Uiso   1.00
N593   N     0.49297   0.04195   0.41296   0.00000  Uiso   1.00
H594   H     0.46540   0.03121   0.38686   0.00000  Uiso   1.00
C595   C     0.54266   0.05069   0.39699   0.00000  Uiso   1.00
H596   H     0.55863   0.02244   0.38409   0.00000  Uiso   1.00
H597   H     0.57045   0.06388   0.42571   0.00000  Uiso   1.00
H598   H     0.53821   0.07339   0.36815   0.00000  Uiso   1.00
N599   N     0.50717   0.29138   0.58704   0.00000  Uiso   1.00
H600   H     0.53478   0.30212   0.61312   0.00000  Uiso   1.00
C601   C     0.45750   0.28266   0.60306   0.00000  Uiso   1.00
H602   H     0.44158   0.31091   0.61603   0.00000  Uiso   1.00
H603   H     0.46197   0.25993   0.63188   0.00000  Uiso   1.00
H604   H     0.42965   0.26951   0.57436   0.00000  Uiso   1.00
N605   N     0.47014   0.29122   0.41419   0.00000  Uiso   1.00
O606   O     0.42505   0.27278   0.40878   0.00000  Uiso   1.00
O607   O     0.49850   0.29132   0.38000   0.00000  Uiso   1.00
N608   N     0.53000   0.04212   0.58580   0.00000  Uiso   1.00
O609   O     0.57506   0.06060   0.59115   0.00000  Uiso   1.00
O610   O     0.50172   0.04198   0.62004   0.00000  Uiso   1.00
N611   N     0.41661   0.12857   0.61168   0.00000  Uiso   1.00
O612   O     0.42276   0.09678   0.58635   0.00000  Uiso   1.00
O613   O     0.37088   0.13468   0.62330   0.00000  Uiso   1.00
N614   N     0.58344   0.20472   0.38831   0.00000  Uiso   1.00
O615   O     0.57733   0.23638   0.41386   0.00000  Uiso   1.00
O616   O     0.62915   0.19872   0.37654   0.00000  Uiso   1.00
O617   O     0.83333   0.10655   0.53958   0.00000  Uiso   1.00
O618   O     0.83334   0.22678   0.46042   0.00000  Uiso   1.00
O619   O     0.83333   0.10654   0.46039   0.00000  Uiso   1.00
O620   O     0.83334   0.22679   0.53961   0.00000  Uiso   1.00
C621   C     0.83577   0.08749   0.50015   0.00000  Uiso   1.00
C622   C     0.83091   0.24585   0.49985   0.00000  Uiso   1.00
O623   O     0.75828   0.16667   0.53046   0.00000  Uiso   1.00
O624   O     0.90839   0.16666   0.46954   0.00000  Uiso   1.00
O625   O     0.75828   0.16666   0.45127   0.00000  Uiso   1.00
O626   O     0.90839   0.16667   0.54873   0.00000  Uiso   1.00
C627   C     0.73475   0.16604   0.48820   0.00000  Uiso   1.00
C628   C     0.93192   0.16731   0.51180   0.00000  Uiso   1.00
Cu629  Cu    0.83333   0.16667   0.54689   0.00000  Uiso   1.00
Cu630  Cu    0.83333   0.16666   0.45311   0.00000  Uiso   1.00
N631   N     0.83335   0.16668   0.61736   0.00000  Uiso   1.00
N632   N     0.83332   0.16666   0.38264   0.00000  Uiso   1.00
C633   C     0.67963   0.16371   0.48186   0.00000  Uiso   1.00
C634   C     0.98703   0.16966   0.51813   0.00000  Uiso   1.00
H635   H     0.99362   0.15625   0.44728   0.00000  Uiso   1.00
H636   H     0.67304   0.17713   0.55271   0.00000  Uiso   1.00
C637   C     0.82866   0.02107   0.45684   0.00000  Uiso   1.00
C638   C     0.83809   0.31227   0.54316   0.00000  Uiso   1.00
C639   C     0.82110   0.31205   0.45731   0.00000  Uiso   1.00
C640   C     0.84566   0.02130   0.54269   0.00000  Uiso   1.00
C641   C     0.82854   0.29062   0.50017   0.00000  Uiso   1.00
C642   C     0.83819   0.04272   0.49983   0.00000  Uiso   1.00
C643   C     0.79418   0.14823   0.35447   0.00000  Uiso   1.00
C644   C     0.87249   0.18510   0.64552   0.00000  Uiso   1.00
H645   H     0.76318   0.13309   0.37022   0.00000  Uiso   1.00
H646   H     0.90348   0.20024   0.62977   0.00000  Uiso   1.00
C647   C     0.79364   0.14803   0.63846   0.00000  Uiso   1.00
C648   C     0.87304   0.18530   0.36154   0.00000  Uiso   1.00
N649   N     0.82630   0.04195   0.41296   0.00000  Uiso   1.00
H650   H     0.79873   0.03121   0.38686   0.00000  Uiso   1.00
C651   C     0.87599   0.05069   0.39699   0.00000  Uiso   1.00
H652   H     0.89196   0.02244   0.38409   0.00000  Uiso   1.00
H653   H     0.90378   0.06388   0.42571   0.00000  Uiso   1.00
H654   H     0.87155   0.07339   0.36815   0.00000  Uiso   1.00
N655   N     0.84050   0.29138   0.58704   0.00000  Uiso   1.00
H656   H     0.86811   0.30212   0.61312   0.00000  Uiso   1.00
C657   C     0.79083   0.28266   0.60306   0.00000  Uiso   1.00
H658   H     0.77491   0.31091   0.61603   0.00000  Uiso   1.00
H659   H     0.79530   0.25993   0.63188   0.00000  Uiso   1.00
H660   H     0.76299   0.26951   0.57436   0.00000  Uiso   1.00
N661   N     0.80347   0.29122   0.41419   0.00000  Uiso   1.00
O662   O     0.75838   0.27278   0.40878   0.00000  Uiso   1.00
O663   O     0.83183   0.29132   0.38000   0.00000  Uiso   1.00
N664   N     0.86333   0.04212   0.58580   0.00000  Uiso   1.00
O665   O     0.90840   0.06060   0.59115   0.00000  Uiso   1.00
O666   O     0.83505   0.04198   0.62004   0.00000  Uiso   1.00
N667   N     0.74995   0.12857   0.61168   0.00000  Uiso   1.00
O668   O     0.75609   0.09678   0.58635   0.00000  Uiso   1.00
O669   O     0.70421   0.13468   0.62330   0.00000  Uiso   1.00
N670   N     0.91677   0.20472   0.38831   0.00000  Uiso   1.00
O671   O     0.91066   0.23638   0.41386   0.00000  Uiso   1.00
O672   O     0.96248   0.19872   0.37654   0.00000  Uiso   1.00
O673   O     0.16666   0.43989   0.53958   0.00000  Uiso   1.00
O674   O     0.16667   0.56011   0.46042   0.00000  Uiso   1.00
O675   O     0.16666   0.43988   0.46039   0.00000  Uiso   1.00
O676   O     0.16667   0.56012   0.53961   0.00000  Uiso   1.00
C677   C     0.16911   0.42082   0.50015   0.00000  Uiso   1.00
C678   C     0.16425   0.57918   0.49985   0.00000  Uiso   1.00
O679   O     0.09161   0.50000   0.53046   0.00000  Uiso   1.00
O680   O     0.24172   0.50000   0.46954   0.00000  Uiso   1.00
O681   O     0.09161   0.49999   0.45127   0.00000  Uiso   1.00
O682   O     0.24172   0.50001   0.54873   0.00000  Uiso   1.00
C683   C     0.06808   0.49937   0.48820   0.00000  Uiso   1.00
C684   C     0.26525   0.50064   0.51180   0.00000  Uiso   1.00
Cu685  Cu    0.16667   0.50001   0.54689   0.00000  Uiso   1.00
Cu686  Cu    0.16667   0.49999   0.45311   0.00000  Uiso   1.00
N687   N     0.16668   0.50001   0.61736   0.00000  Uiso   1.00
N688   N     0.16665   0.49999   0.38264   0.00000  Uiso   1.00
C689   C     0.01296   0.49704   0.48186   0.00000  Uiso   1.00
C690   C     0.32037   0.50299   0.51813   0.00000  Uiso   1.00
H691   H     0.32696   0.48959   0.44728   0.00000  Uiso   1.00
H692   H     0.00637   0.51046   0.55271   0.00000  Uiso   1.00
C693   C     0.16199   0.35440   0.45684   0.00000  Uiso   1.00
C694   C     0.17143   0.64561   0.54316   0.00000  Uiso   1.00
C695   C     0.15443   0.64538   0.45731   0.00000  Uiso   1.00
C696   C     0.17899   0.35463   0.54269   0.00000  Uiso   1.00
C697   C     0.16188   0.62395   0.50017   0.00000  Uiso   1.00
C698   C     0.17152   0.37605   0.49983   0.00000  Uiso   1.00
C699   C     0.12751   0.48156   0.35447   0.00000  Uiso   1.00
C700   C     0.20582   0.51844   0.64552   0.00000  Uiso   1.00
H701   H     0.09651   0.46642   0.37022   0.00000  Uiso   1.00
H702   H     0.23682   0.53357   0.62977   0.00000  Uiso   1.00
C703   C     0.12697   0.48136   0.63846   0.00000  Uiso   1.00
C704   C     0.20637   0.51863   0.36154   0.00000  Uiso   1.00
N705   N     0.15963   0.37529   0.41296   0.00000  Uiso   1.00
H706   H     0.13206   0.36454   0.38686   0.00000  Uiso   1.00
C707   C     0.20932   0.38402   0.39699   0.00000  Uiso   1.00
H708   H     0.22529   0.35578   0.38409   0.00000  Uiso   1.00
H709   H     0.23711   0.39722   0.42571   0.00000  Uiso   1.00
H710   H     0.20488   0.40672   0.36815   0.00000  Uiso   1.00
N711   N     0.17383   0.62472   0.58704   0.00000  Uiso   1.00
H712   H     0.20144   0.63545   0.61312   0.00000  Uiso   1.00
C713   C     0.12417   0.61600   0.60306   0.00000  Uiso   1.00
H714   H     0.10825   0.64424   0.61603   0.00000  Uiso   1.00
H715   H     0.12863   0.59327   0.63188   0.00000  Uiso   1.00
H716   H     0.09632   0.60284   0.57436   0.00000  Uiso   1.00
N717   N     0.13681   0.62456   0.41419   0.00000  Uiso   1.00
O718   O     0.09172   0.60612   0.40878   0.00000  Uiso   1.00
O719   O     0.16516   0.62465   0.38000   0.00000  Uiso   1.00
N720   N     0.19667   0.37545   0.58580   0.00000  Uiso   1.00
O721   O     0.24173   0.39393   0.59115   0.00000  Uiso   1.00
O722   O     0.16839   0.37531   0.62004   0.00000  Uiso   1.00
N723   N     0.08328   0.46190   0.61168   0.00000  Uiso   1.00
O724   O     0.08942   0.43011   0.58635   0.00000  Uiso   1.00
O725   O     0.03754   0.46801   0.62330   0.00000  Uiso   1.00
N726   N     0.25011   0.53805   0.38831   0.00000  Uiso   1.00
O727   O     0.24400   0.56972   0.41386   0.00000  Uiso   1.00
O728   O     0.29581   0.53205   0.37654   0.00000  Uiso   1.00
O729   O     0.50000   0.43989   0.53958   0.00000  Uiso   1.00
O730   O     0.50000   0.56011   0.46042   0.00000  Uiso   1.00
O731   O     0.50000   0.43988   0.46039   0.00000  Uiso   1.00
O732   O     0.50000   0.56012   0.53961   0.00000  Uiso   1.00
C733   C     0.50244   0.42082   0.50015   0.00000  Uiso   1.00
C734   C     0.49758   0.57918   0.49985   0.00000  Uiso   1.00
O735   O     0.42495   0.50000   0.53046   0.00000  Uiso   1.00
O736   O     0.57505   0.50000   0.46954   0.00000  Uiso   1.00
O737   O     0.42494   0.49999   0.45127   0.00000  Uiso   1.00
O738   O     0.57506   0.50001   0.54873   0.00000  Uiso   1.00
C739   C     0.40141   0.49937   0.48820   0.00000  Uiso   1.00
C740   C     0.59859   0.50064   0.51180   0.00000  Uiso   1.00
Cu741  Cu    0.50000   0.50001   0.54689   0.00000  Uiso   1.00
Cu742  Cu    0.50000   0.49999   0.45311   0.00000  Uiso   1.00
N743   N     0.50001   0.50001   0.61736   0.00000  Uiso   1.00
N744   N     0.49999   0.49999   0.38264   0.00000  Uiso   1.00
C745   C     0.34630   0.49704   0.48186   0.00000  Uiso   1.00
C746   C     0.65370   0.50299   0.51813   0.00000  Uiso   1.00
H747   H     0.66029   0.48959   0.44728   0.00000  Uiso   1.00
H748   H     0.33971   0.51046   0.55271   0.00000  Uiso   1.00
C749   C     0.49533   0.35440   0.45684   0.00000  Uiso   1.00
C750   C     0.50476   0.64561   0.54316   0.00000  Uiso   1.00
C751   C     0.48776   0.64538   0.45731   0.00000  Uiso   1.00
C752   C     0.51233   0.35463   0.54269   0.00000  Uiso   1.00
C753   C     0.49521   0.62395   0.50017   0.00000  Uiso   1.00
C754   C     0.50485   0.37605   0.49983   0.00000  Uiso   1.00
C755   C     0.46084   0.48156   0.35447   0.00000  Uiso   1.00
C756   C     0.53916   0.51844   0.64552   0.00000  Uiso   1.00
H757   H     0.42985   0.46642   0.37022   0.00000  Uiso   1.00
H758   H     0.57015   0.53357   0.62977   0.00000  Uiso   1.00
C759   C     0.46031   0.48136   0.63846   0.00000  Uiso   1.00
C760   C     0.53971   0.51863   0.36154   0.00000  Uiso   1.00
N761   N     0.49297   0.37529   0.41296   0.00000  Uiso   1.00
H762   H     0.46540   0.36454   0.38686   0.00000  Uiso   1.00
C763   C     0.54266   0.38402   0.39699   0.00000  Uiso   1.00
H764   H     0.55863   0.35578   0.38409   0.00000  Uiso   1.00
H765   H     0.57045   0.39722   0.42571   0.00000  Uiso   1.00
H766   H     0.53821   0.40672   0.36815   0.00000  Uiso   1.00
N767   N     0.50717   0.62472   0.58704   0.00000  Uiso   1.00
H768   H     0.53478   0.63545   0.61312   0.00000  Uiso   1.00
C769   C     0.45750   0.61600   0.60306   0.00000  Uiso   1.00
H770   H     0.44158   0.64424   0.61603   0.00000  Uiso   1.00
H771   H     0.46197   0.59327   0.63188   0.00000  Uiso   1.00
H772   H     0.42965   0.60284   0.57436   0.00000  Uiso   1.00
N773   N     0.47014   0.62456   0.41419   0.00000  Uiso   1.00
O774   O     0.42505   0.60612   0.40878   0.00000  Uiso   1.00
O775   O     0.49850   0.62465   0.38000   0.00000  Uiso   1.00
N776   N     0.53000   0.37545   0.58580   0.00000  Uiso   1.00
O777   O     0.57506   0.39393   0.59115   0.00000  Uiso   1.00
O778   O     0.50172   0.37531   0.62004   0.00000  Uiso   1.00
N779   N     0.41661   0.46190   0.61168   0.00000  Uiso   1.00
O780   O     0.42276   0.43011   0.58635   0.00000  Uiso   1.00
O781   O     0.37088   0.46801   0.62330   0.00000  Uiso   1.00
N782   N     0.58344   0.53805   0.38831   0.00000  Uiso   1.00
O783   O     0.57733   0.56972   0.41386   0.00000  Uiso   1.00
O784   O     0.62915   0.53205   0.37654   0.00000  Uiso   1.00
O785   O     0.83333   0.43989   0.53958   0.00000  Uiso   1.00
O786   O     0.83334   0.56011   0.46042   0.00000  Uiso   1.00
O787   O     0.83333   0.43988   0.46039   0.00000  Uiso   1.00
O788   O     0.83334   0.56012   0.53961   0.00000  Uiso   1.00
C789   C     0.83577   0.42082   0.50015   0.00000  Uiso   1.00
C790   C     0.83091   0.57918   0.49985   0.00000  Uiso   1.00
O791   O     0.75828   0.50000   0.53046   0.00000  Uiso   1.00
O792   O     0.90839   0.50000   0.46954   0.00000  Uiso   1.00
O793   O     0.75828   0.49999   0.45127   0.00000  Uiso   1.00
O794   O     0.90839   0.50001   0.54873   0.00000  Uiso   1.00
C795   C     0.73475   0.49937   0.48820   0.00000  Uiso   1.00
C796   C     0.93192   0.50064   0.51180   0.00000  Uiso   1.00
Cu797  Cu    0.83333   0.50001   0.54689   0.00000  Uiso   1.00
Cu798  Cu    0.83333   0.49999   0.45311   0.00000  Uiso   1.00
N799   N     0.83335   0.50001   0.61736   0.00000  Uiso   1.00
N800   N     0.83332   0.49999   0.38264   0.00000  Uiso   1.00
C801   C     0.67963   0.49704   0.48186   0.00000  Uiso   1.00
C802   C     0.98703   0.50299   0.51813   0.00000  Uiso   1.00
H803   H     0.99362   0.48959   0.44728   0.00000  Uiso   1.00
H804   H     0.67304   0.51046   0.55271   0.00000  Uiso   1.00
C805   C     0.82866   0.35440   0.45684   0.00000  Uiso   1.00
C806   C     0.83809   0.64561   0.54316   0.00000  Uiso   1.00
C807   C     0.82110   0.64538   0.45731   0.00000  Uiso   1.00
C808   C     0.84566   0.35463   0.54269   0.00000  Uiso   1.00
C809   C     0.82854   0.62395   0.50017   0.00000  Uiso   1.00
C810   C     0.83819   0.37605   0.49983   0.00000  Uiso   1.00
C811   C     0.79418   0.48156   0.35447   0.00000  Uiso   1.00
C812   C     0.87249   0.51844   0.64552   0.00000  Uiso   1.00
H813   H     0.76318   0.46642   0.37022   0.00000  Uiso   1.00
H814   H     0.90348   0.53357   0.62977   0.00000  Uiso   1.00
C815   C     0.79364   0.48136   0.63846   0.00000  Uiso   1.00
C816   C     0.87304   0.51863   0.36154   0.00000  Uiso   1.00
N817   N     0.82630   0.37529   0.41296   0.00000  Uiso   1.00
H818   H     0.79873   0.36454   0.38686   0.00000  Uiso   1.00
C819   C     0.87599   0.38402   0.39699   0.00000  Uiso   1.00
H820   H     0.89196   0.35578   0.38409   0.00000  Uiso   1.00
H821   H     0.90378   0.39722   0.42571   0.00000  Uiso   1.00
H822   H     0.87155   0.40672   0.36815   0.00000  Uiso   1.00
N823   N     0.84050   0.62472   0.58704   0.00000  Uiso   1.00
H824   H     0.86811   0.63545   0.61312   0.00000  Uiso   1.00
C825   C     0.79083   0.61600   0.60306   0.00000  Uiso   1.00
H826   H     0.77491   0.64424   0.61603   0.00000  Uiso   1.00
H827   H     0.79530   0.59327   0.63188   0.00000  Uiso   1.00
H828   H     0.76299   0.60284   0.57436   0.00000  Uiso   1.00
N829   N     0.80347   0.62456   0.41419   0.00000  Uiso   1.00
O830   O     0.75838   0.60612   0.40878   0.00000  Uiso   1.00
O831   O     0.83183   0.62465   0.38000   0.00000  Uiso   1.00
N832   N     0.86333   0.37545   0.58580   0.00000  Uiso   1.00
O833   O     0.90840   0.39393   0.59115   0.00000  Uiso   1.00
O834   O     0.83505   0.37531   0.62004   0.00000  Uiso   1.00
N835   N     0.74995   0.46190   0.61168   0.00000  Uiso   1.00
O836   O     0.75609   0.43011   0.58635   0.00000  Uiso   1.00
O837   O     0.70421   0.46801   0.62330   0.00000  Uiso   1.00
N838   N     0.91677   0.53805   0.38831   0.00000  Uiso   1.00
O839   O     0.91066   0.56972   0.41386   0.00000  Uiso   1.00
O840   O     0.96248   0.53205   0.37654   0.00000  Uiso   1.00
O841   O     0.16666   0.77322   0.53958   0.00000  Uiso   1.00
O842   O     0.16667   0.89345   0.46042   0.00000  Uiso   1.00
O843   O     0.16666   0.77321   0.46039   0.00000  Uiso   1.00
O844   O     0.16667   0.89346   0.53961   0.00000  Uiso   1.00
C845   C     0.16911   0.75416   0.50015   0.00000  Uiso   1.00
C846   C     0.16425   0.91251   0.49985   0.00000  Uiso   1.00
O847   O     0.09161   0.83334   0.53046   0.00000  Uiso   1.00
O848   O     0.24172   0.83333   0.46954   0.00000  Uiso   1.00
O849   O     0.09161   0.83333   0.45127   0.00000  Uiso   1.00
O850   O     0.24172   0.83334   0.54873   0.00000  Uiso   1.00
C851   C     0.06808   0.83270   0.48820   0.00000  Uiso   1.00
C852   C     0.26525   0.83398   0.51180   0.00000  Uiso   1.00
Cu853  Cu    0.16667   0.83334   0.54689   0.00000  Uiso   1.00
Cu854  Cu    0.16667   0.83333   0.45311   0.00000  Uiso   1.00
N855   N     0.16668   0.83334   0.61736   0.00000  Uiso   1.00
N856   N     0.16665   0.83332   0.38264   0.00000  Uiso   1.00
C857   C     0.01296   0.83038   0.48186   0.00000  Uiso   1.00
C858   C     0.32037   0.83632   0.51813   0.00000  Uiso   1.00
H859   H     0.32696   0.82292   0.44728   0.00000  Uiso   1.00
H860   H     0.00637   0.84380   0.55271   0.00000  Uiso   1.00
C861   C     0.16199   0.68773   0.45684   0.00000  Uiso   1.00
C862   C     0.17143   0.97894   0.54316   0.00000  Uiso   1.00
C863   C     0.15443   0.97871   0.45731   0.00000  Uiso   1.00
C864   C     0.17899   0.68796   0.54269   0.00000  Uiso   1.00
C865   C     0.16188   0.95729   0.50017   0.00000  Uiso   1.00
C866   C     0.17152   0.70939   0.49983   0.00000  Uiso   1.00
C867   C     0.12751   0.81490   0.35447   0.00000  Uiso   1.00
C868   C     0.20582   0.85177   0.64552   0.00000  Uiso   1.00
H869   H     0.09651   0.79976   0.37022   0.00000  Uiso   1.00
H870   H     0.23682   0.86691   0.62977   0.00000  Uiso   1.00
C871   C     0.12697   0.81469   0.63846   0.00000  Uiso   1.00
C872   C     0.20637   0.85196   0.36154   0.00000  Uiso   1.00
N873   N     0.15963   0.70862   0.41296   0.00000  Uiso   1.00
H874   H     0.13206   0.69787   0.38686   0.00000  Uiso   1.00
C875   C     0.20932   0.71735   0.39699   0.00000  Uiso   1.00
H876   H     0.22529   0.68911   0.38409   0.00000  Uiso   1.00
H877   H     0.23711   0.73055   0.42571   0.00000  Uiso   1.00
H878   H     0.20488   0.74005   0.36815   0.00000  Uiso   1.00
N879   N     0.17383   0.95805   0.58704   0.00000  Uiso   1.00
H880   H     0.20144   0.96878   0.61312   0.00000  Uiso   1.00
C881   C     0.12417   0.94933   0.60306   0.00000  Uiso   1.00
H882   H     0.10825   0.97757   0.61603   0.00000  Uiso   1.00
H883   H     0.12863   0.92660   0.63188   0.00000  Uiso   1.00
H884   H     0.09632   0.93617   0.57436   0.00000  Uiso   1.00
N885   N     0.13681   0.95789   0.41419   0.00000  Uiso   1.00
O886   O     0.09172   0.93945   0.40878   0.00000  Uiso   1.00
O887   O     0.16516   0.95798   0.38000   0.00000  Uiso   1.00
N888   N     0.19667   0.70879   0.58580   0.00000  Uiso   1.00
O889   O     0.24173   0.72727   0.59115   0.00000  Uiso   1.00
O890   O     0.16839   0.70864   0.62004   0.00000  Uiso   1.00
N891   N     0.08328   0.79523   0.61168   0.00000  Uiso   1.00
O892   O     0.08942   0.76344   0.58635   0.00000  Uiso   1.00
O893   O     0.03754   0.80135   0.62330   0.00000  Uiso   1.00
N894   N     0.25011   0.87139   0.38831   0.00000  Uiso   1.00
O895   O     0.24400   0.90305   0.41386   0.00000  Uiso   1.00
O896   O     0.29581   0.86538   0.37654   0.00000  Uiso   1.00
O897   O     0.50000   0.77322   0.53958   0.00000  Uiso   1.00
O898   O     0.50000   0.89345   0.46042   0.00000  Uiso   1.00
O899   O     0.50000   0.77321   0.46039   0.00000  Uiso   1.00
O900   O     0.50000   0.89346   0.53961   0.00000  Uiso   1.00
C901   C     0.50244   0.75416   0.50015   0.00000  Uiso   1.00
C902   C     0.49758   0.91251   0.49985   0.00000  Uiso   1.00
O903   O     0.42495   0.83334   0.53046   0.00000  Uiso   1.00
O904   O     0.57505   0.83333   0.46954   0.00000  Uiso   1.00
O905   O     0.42494   0.83333   0.45127   0.00000  Uiso   1.00
O906   O     0.57506   0.83334   0.54873   0.00000  Uiso   1.00
C907   C     0.40141   0.83270   0.48820   0.00000  Uiso   1.00
C908   C     0.59859   0.83398   0.51180   0.00000  Uiso   1.00
Cu909  Cu    0.50000   0.83334   0.54689   0.00000  Uiso   1.00
Cu910  Cu    0.50000   0.83333   0.45311   0.00000  Uiso   1.00
N911   N     0.50001   0.83334   0.61736   0.00000  Uiso   1.00
N912   N     0.49999   0.83332   0.38264   0.00000  Uiso   1.00
C913   C     0.34630   0.83038   0.48186   0.00000  Uiso   1.00
C914   C     0.65370   0.83632   0.51813   0.00000  Uiso   1.00
H915   H     0.66029   0.82292   0.44728   0.00000  Uiso   1.00
H916   H     0.33971   0.84380   0.55271   0.00000  Uiso   1.00
C917   C     0.49533   0.68773   0.45684   0.00000  Uiso   1.00
C918   C     0.50476   0.97894   0.54316   0.00000  Uiso   1.00
C919   C     0.48776   0.97871   0.45731   0.00000  Uiso   1.00
C920   C     0.51233   0.68796   0.54269   0.00000  Uiso   1.00
C921   C     0.49521   0.95729   0.50017   0.00000  Uiso   1.00
C922   C     0.50485   0.70939   0.49983   0.00000  Uiso   1.00
C923   C     0.46084   0.81490   0.35447   0.00000  Uiso   1.00
C924   C     0.53916   0.85177   0.64552   0.00000  Uiso   1.00
H925   H     0.42985   0.79976   0.37022   0.00000  Uiso   1.00
H926   H     0.57015   0.86691   0.62977   0.00000  Uiso   1.00
C927   C     0.46031   0.81469   0.63846   0.00000  Uiso   1.00
C928   C     0.53971   0.85196   0.36154   0.00000  Uiso   1.00
N929   N     0.49297   0.70862   0.41296   0.00000  Uiso   1.00
H930   H     0.46540   0.69787   0.38686   0.00000  Uiso   1.00
C931   C     0.54266   0.71735   0.39699   0.00000  Uiso   1.00
H932   H     0.55863   0.68911   0.38409   0.00000  Uiso   1.00
H933   H     0.57045   0.73055   0.42571   0.00000  Uiso   1.00
H934   H     0.53821   0.74005   0.36815   0.00000  Uiso   1.00
N935   N     0.50717   0.95805   0.58704   0.00000  Uiso   1.00
H936   H     0.53478   0.96878   0.61312   0.00000  Uiso   1.00
C937   C     0.45750   0.94933   0.60306   0.00000  Uiso   1.00
H938   H     0.44158   0.97757   0.61603   0.00000  Uiso   1.00
H939   H     0.46197   0.92660   0.63188   0.00000  Uiso   1.00
H940   H     0.42965   0.93617   0.57436   0.00000  Uiso   1.00
N941   N     0.47014   0.95789   0.41419   0.00000  Uiso   1.00
O942   O     0.42505   0.93945   0.40878   0.00000  Uiso   1.00
O943   O     0.49850   0.95798   0.38000   0.00000  Uiso   1.00
N944   N     0.53000   0.70879   0.58580   0.00000  Uiso   1.00
O945   O     0.57506   0.72727   0.59115   0.00000  Uiso   1.00
O946   O     0.50172   0.70864   0.62004   0.00000  Uiso   1.00
N947   N     0.41661   0.79523   0.61168   0.00000  Uiso   1.00
O948   O     0.42276   0.76344   0.58635   0.00000  Uiso   1.00
O949   O     0.37088   0.80135   0.62330   0.00000  Uiso   1.00
N950   N     0.58344   0.87139   0.38831   0.00000  Uiso   1.00
O951   O     0.57733   0.90305   0.41386   0.00000  Uiso   1.00
O952   O     0.62915   0.86538   0.37654   0.00000  Uiso   1.00
O953   O     0.83333   0.77322   0.53958   0.00000  Uiso   1.00
O954   O     0.83334   0.89345   0.46042   0.00000  Uiso   1.00
O955   O     0.83333   0.77321   0.46039   0.00000  Uiso   1.00
O956   O     0.83334   0.89346   0.53961   0.00000  Uiso   1.00
C957   C     0.83577   0.75416   0.50015   0.00000  Uiso   1.00
C958   C     0.83091   0.91251   0.49985   0.00000  Uiso   1.00
O959   O     0.75828   0.83334   0.53046   0.00000  Uiso   1.00
O960   O     0.90839   0.83333   0.46954   0.00000  Uiso   1.00
O961   O     0.75828   0.83333   0.45127   0.00000  Uiso   1.00
O962   O     0.90839   0.83334   0.54873   0.00000  Uiso   1.00
C963   C     0.73475   0.83270   0.48820   0.00000  Uiso   1.00
C964   C     0.93192   0.83398   0.51180   0.00000  Uiso   1.00
Cu965  Cu    0.83333   0.83334   0.54689   0.00000  Uiso   1.00
Cu966  Cu    0.83333   0.83333   0.45311   0.00000  Uiso   1.00
N967   N     0.83335   0.83334   0.61736   0.00000  Uiso   1.00
N968   N     0.83332   0.83332   0.38264   0.00000  Uiso   1.00
C969   C     0.67963   0.83038   0.48186   0.00000  Uiso   1.00
C970   C     0.98703   0.83632   0.51813   0.00000  Uiso   1.00
H971   H     0.99362   0.82292   0.44728   0.00000  Uiso   1.00
H972   H     0.67304   0.84380   0.55271   0.00000  Uiso   1.00
C973   C     0.82866   0.68773   0.45684   0.00000  Uiso   1.00
C974   C     0.83809   0.97894   0.54316   0.00000  Uiso   1.00
C975   C     0.82110   0.97871   0.45731   0.00000  Uiso   1.00
C976   C     0.84566   0.68796   0.54269   0.00000  Uiso   1.00
C977   C     0.82854   0.95729   0.50017   0.00000  Uiso   1.00
C978   C     0.83819   0.70939   0.49983   0.00000  Uiso   1.00
C979   C     0.79418   0.81490   0.35447   0.00000  Uiso   1.00
C980   C     0.87249   0.85177   0.64552   0.00000  Uiso   1.00
H981   H     0.76318   0.79976   0.37022   0.00000  Uiso   1.00
H982   H     0.90348   0.86691   0.62977   0.00000  Uiso   1.00
C983   C     0.79364   0.81469   0.63846   0.00000  Uiso   1.00
C984   C     0.87304   0.85196   0.36154   0.00000  Uiso   1.00
N985   N     0.82630   0.70862   0.41296   0.00000  Uiso   1.00
H986   H     0.79873   0.69787   0.38686   0.00000  Uiso   1.00
C987   C     0.87599   0.71735   0.39699   0.00000  Uiso   1.00
H988   H     0.89196   0.68911   0.38409   0.00000  Uiso   1.00
H989   H     0.90378   0.73055   0.42571   0.00000  Uiso   1.00
H990   H     0.87155   0.74005   0.36815   0.00000  Uiso   1.00
N991   N     0.84050   0.95805   0.58704   0.00000  Uiso   1.00
H992   H     0.86811   0.96878   0.61312   0.00000  Uiso   1.00
C993   C     0.79083   0.94933   0.60306   0.00000  Uiso   1.00
H994   H     0.77491   0.97757   0.61603   0.00000  Uiso   1.00
H995   H     0.79530   0.92660   0.63188   0.00000  Uiso   1.00
H996   H     0.76299   0.93617   0.57436   0.00000  Uiso   1.00
N997   N     0.80347   0.95789   0.41419   0.00000  Uiso   1.00
O998   O     0.75838   0.93945   0.40878   0.00000  Uiso   1.00
O999   O     0.83183   0.95798   0.38000   0.00000  Uiso   1.00
N1000  N     0.86333   0.70879   0.58580   0.00000  Uiso   1.00
O1001  O     0.90840   0.72727   0.59115   0.00000  Uiso   1.00
O1002  O     0.83505   0.70864   0.62004   0.00000  Uiso   1.00
N1003  N     0.74995   0.79523   0.61168   0.00000  Uiso   1.00
O1004  O     0.75609   0.76344   0.58635   0.00000  Uiso   1.00
O1005  O     0.70421   0.80135   0.62330   0.00000  Uiso   1.00
N1006  N     0.91677   0.87139   0.38831   0.00000  Uiso   1.00
O1007  O     0.91066   0.90305   0.41386   0.00000  Uiso   1.00
O1008  O     0.96248   0.86538   0.37654   0.00000  Uiso   1.00
O1009  O     0.16666   0.10655   0.87291   0.00000  Uiso   1.00
O1010  O     0.16667   0.22678   0.79375   0.00000  Uiso   1.00
O1011  O     0.16666   0.10654   0.79372   0.00000  Uiso   1.00
O1012  O     0.16667   0.22679   0.87294   0.00000  Uiso   1.00
C1013  C     0.16911   0.08749   0.83349   0.00000  Uiso   1.00
C1014  C     0.16425   0.24585   0.83318   0.00000  Uiso   1.00
O1015  O     0.09161   0.16667   0.86379   0.00000  Uiso   1.00
O1016  O     0.24172   0.16666   0.80288   0.00000  Uiso   1.00
O1017  O     0.09161   0.16666   0.78460   0.00000  Uiso   1.00
O1018  O     0.24172   0.16667   0.88207   0.00000  Uiso   1.00
C1019  C     0.06808   0.16604   0.82153   0.00000  Uiso   1.00
C1020  C     0.26525   0.16731   0.84514   0.00000  Uiso   1.00
Cu1021 Cu    0.16667   0.16667   0.88022   0.00000  Uiso   1.00
Cu1022 Cu    0.16667   0.16666   0.78645   0.00000  Uiso   1.00
N1023  N     0.16668   0.16668   0.95069   0.00000  Uiso   1.00
N1024  N     0.16665   0.16666   0.71597   0.00000  Uiso   1.00
C1025  C     0.01296   0.16371   0.81520   0.00000  Uiso   1.00
C1026  C     0.32037   0.16966   0.85146   0.00000  Uiso   1.00
H1027  H     0.32696   0.15625   0.78061   0.00000  Uiso   1.00
H1028  H     0.00637   0.17713   0.88604   0.00000  Uiso   1.00
C1029  C     0.16199   0.02107   0.79017   0.00000  Uiso   1.00
C1030  C     0.17143   0.31227   0.87650   0.00000  Uiso   1.00
C1031  C     0.15443   0.31205   0.79064   0.00000  Uiso   1.00
C1032  C     0.17899   0.02130   0.87602   0.00000  Uiso   1.00
C1033  C     0.16188   0.29062   0.83350   0.00000  Uiso   1.00
C1034  C     0.17152   0.04272   0.83317   0.00000  Uiso   1.00
C1035  C     0.12751   0.14823   0.68781   0.00000  Uiso   1.00
C1036  C     0.20582   0.18510   0.97886   0.00000  Uiso   1.00
H1037  H     0.09651   0.13309   0.70355   0.00000  Uiso   1.00
H1038  H     0.23682   0.20024   0.96310   0.00000  Uiso   1.00
C1039  C     0.12697   0.14803   0.97179   0.00000  Uiso   1.00
C1040  C     0.20637   0.18530   0.69488   0.00000  Uiso   1.00
N1041  N     0.15963   0.04195   0.74629   0.00000  Uiso   1.00
H1042  H     0.13206   0.03121   0.72019   0.00000  Uiso   1.00
C1043  C     0.20932   0.05069   0.73033   0.00000  Uiso   1.00
H1044  H     0.22529   0.02244   0.71742   0.00000  Uiso   1.00
H1045  H     0.23711   0.06388   0.75905   0.00000  Uiso   1.00
H1046  H     0.20488   0.07339   0.70148   0.00000  Uiso   1.00
N1047  N     0.17383   0.29138   0.92038   0.00000  Uiso   1.00
H1048  H     0.20144   0.30212   0.94645   0.00000  Uiso   1.00
C1049  C     0.12417   0.28266   0.93640   0.00000  Uiso   1.00
H1050  H     0.10825   0.31091   0.94936   0.00000  Uiso   1.00
H1051  H     0.12863   0.25993   0.96521   0.00000  Uiso   1.00
H1052  H     0.09632   0.26951   0.90769   0.00000  Uiso   1.00
N1053  N     0.13681   0.29122   0.74752   0.00000  Uiso   1.00
O1054  O     0.09172   0.27278   0.74211   0.00000  Uiso   1.00
O1055  O     0.16516   0.29132   0.71334   0.00000  Uiso   1.00
N1056  N     0.19667   0.04212   0.91913   0.00000  Uiso   1.00
O1057  O     0.24173   0.06060   0.92448   0.00000  Uiso   1.00
O1058  O     0.16839   0.04198   0.95338   0.00000  Uiso   1.00
N1059  N     0.08328   0.12857   0.94501   0.00000  Uiso   1.00
O1060  O     0.08942   0.09678   0.91968   0.00000  Uiso   1.00
O1061  O     0.03754   0.13468   0.95663   0.00000  Uiso   1.00
N1062  N     0.25011   0.20472   0.72164   0.00000  Uiso   1.00
O1063  O     0.24400   0.23638   0.74720   0.00000  Uiso   1.00
O1064  O     0.29581   0.19872   0.70987   0.00000  Uiso   1.00
O1065  O     0.50000   0.10655   0.87291   0.00000  Uiso   1.00
O1066  O     0.50000   0.22678   0.79375   0.00000  Uiso   1.00
O1067  O     0.50000   0.10654   0.79372   0.00000  Uiso   1.00
O1068  O     0.50000   0.22679   0.87294   0.00000  Uiso   1.00
C1069  C     0.50244   0.08749   0.83349   0.00000  Uiso   1.00
C1070  C     0.49758   0.24585   0.83318   0.00000  Uiso   1.00
O1071  O     0.42495   0.16667   0.86379   0.00000  Uiso   1.00
O1072  O     0.57505   0.16666   0.80288   0.00000  Uiso   1.00
O1073  O     0.42494   0.16666   0.78460   0.00000  Uiso   1.00
O1074  O     0.57506   0.16667   0.88207   0.00000  Uiso   1.00
C1075  C     0.40141   0.16604   0.82153   0.00000  Uiso   1.00
C1076  C     0.59859   0.16731   0.84514   0.00000  Uiso   1.00
Cu1077 Cu    0.50000   0.16667   0.88022   0.00000  Uiso   1.00
Cu1078 Cu    0.50000   0.16666   0.78645   0.00000  Uiso   1.00
N1079  N     0.50001   0.16668   0.95069   0.00000  Uiso   1.00
N1080  N     0.49999   0.16666   0.71597   0.00000  Uiso   1.00
C1081  C     0.34630   0.16371   0.81520   0.00000  Uiso   1.00
C1082  C     0.65370   0.16966   0.85146   0.00000  Uiso   1.00
H1083  H     0.66029   0.15625   0.78061   0.00000  Uiso   1.00
H1084  H     0.33971   0.17713   0.88604   0.00000  Uiso   1.00
C1085  C     0.49533   0.02107   0.79017   0.00000  Uiso   1.00
C1086  C     0.50476   0.31227   0.87650   0.00000  Uiso   1.00
C1087  C     0.48776   0.31205   0.79064   0.00000  Uiso   1.00
C1088  C     0.51233   0.02130   0.87602   0.00000  Uiso   1.00
C1089  C     0.49521   0.29062   0.83350   0.00000  Uiso   1.00
C1090  C     0.50485   0.04272   0.83317   0.00000  Uiso   1.00
C1091  C     0.46084   0.14823   0.68781   0.00000  Uiso   1.00
C1092  C     0.53916   0.18510   0.97886   0.00000  Uiso   1.00
H1093  H     0.42985   0.13309   0.70355   0.00000  Uiso   1.00
H1094  H     0.57015   0.20024   0.96310   0.00000  Uiso   1.00
C1095  C     0.46031   0.14803   0.97179   0.00000  Uiso   1.00
C1096  C     0.53971   0.18530   0.69488   0.00000  Uiso   1.00
N1097  N     0.49297   0.04195   0.74629   0.00000  Uiso   1.00
H1098  H     0.46540   0.03121   0.72019   0.00000  Uiso   1.00
C1099  C     0.54266   0.05069   0.73033   0.00000  Uiso   1.00
H1100  H     0.55863   0.02244   0.71742   0.00000  Uiso   1.00
H1101  H     0.57045   0.06388   0.75905   0.00000  Uiso   1.00
H1102  H     0.53821   0.07339   0.70148   0.00000  Uiso   1.00
N1103  N     0.50717   0.29138   0.92038   0.00000  Uiso   1.00
H1104  H     0.53478   0.30212   0.94645   0.00000  Uiso   1.00
C1105  C     0.45750   0.28266   0.93640   0.00000  Uiso   1.00
H1106  H     0.44158   0.31091   0.94936   0.00000  Uiso   1.00
H1107  H     0.46197   0.25993   0.96521   0.00000  Uiso   1.00
H1108  H     0.42965   0.26951   0.90769   0.00000  Uiso   1.00
N1109  N     0.47014   0.29122   0.74752   0.00000  Uiso   1.00
O1110  O     0.42505   0.27278   0.74211   0.00000  Uiso   1.00
O1111  O     0.49850   0.29132   0.71334   0.00000  Uiso   1.00
N1112  N     0.53000   0.04212   0.91913   0.00000  Uiso   1.00
O1113  O     0.57506   0.06060   0.92448   0.00000  Uiso   1.00
O1114  O     0.50172   0.04198   0.95338   0.00000  Uiso   1.00
N1115  N     0.41661   0.12857   0.94501   0.00000  Uiso   1.00
O1116  O     0.42276   0.09678   0.91968   0.00000  Uiso   1.00
O1117  O     0.37088   0.13468   0.95663   0.00000  Uiso   1.00
N1118  N     0.58344   0.20472   0.72164   0.00000  Uiso   1.00
O1119  O     0.57733   0.23638   0.74720   0.00000  Uiso   1.00
O1120  O     0.62915   0.19872   0.70987   0.00000  Uiso   1.00
O1121  O     0.83333   0.10655   0.87291   0.00000  Uiso   1.00
O1122  O     0.83334   0.22678   0.79375   0.00000  Uiso   1.00
O1123  O     0.83333   0.10654   0.79372   0.00000  Uiso   1.00
O1124  O     0.83334   0.22679   0.87294   0.00000  Uiso   1.00
C1125  C     0.83577   0.08749   0.83349   0.00000  Uiso   1.00
C1126  C     0.83091   0.24585   0.83318   0.00000  Uiso   1.00
O1127  O     0.75828   0.16667   0.86379   0.00000  Uiso   1.00
O1128  O     0.90839   0.16666   0.80288   0.00000  Uiso   1.00
O1129  O     0.75828   0.16666   0.78460   0.00000  Uiso   1.00
O1130  O     0.90839   0.16667   0.88207   0.00000  Uiso   1.00
C1131  C     0.73475   0.16604   0.82153   0.00000  Uiso   1.00
C1132  C     0.93192   0.16731   0.84514   0.00000  Uiso   1.00
Cu1133 Cu    0.83333   0.16667   0.88022   0.00000  Uiso   1.00
Cu1134 Cu    0.83333   0.16666   0.78645   0.00000  Uiso   1.00
N1135  N     0.83335   0.16668   0.95069   0.00000  Uiso   1.00
N1136  N     0.83332   0.16666   0.71597   0.00000  Uiso   1.00
C1137  C     0.67963   0.16371   0.81520   0.00000  Uiso   1.00
C1138  C     0.98703   0.16966   0.85146   0.00000  Uiso   1.00
H1139  H     0.99362   0.15625   0.78061   0.00000  Uiso   1.00
H1140  H     0.67304   0.17713   0.88604   0.00000  Uiso   1.00
C1141  C     0.82866   0.02107   0.79017   0.00000  Uiso   1.00
C1142  C     0.83809   0.31227   0.87650   0.00000  Uiso   1.00
C1143  C     0.82110   0.31205   0.79064   0.00000  Uiso   1.00
C1144  C     0.84566   0.02130   0.87602   0.00000  Uiso   1.00
C1145  C     0.82854   0.29062   0.83350   0.00000  Uiso   1.00
C1146  C     0.83819   0.04272   0.83317   0.00000  Uiso   1.00
C1147  C     0.79418   0.14823   0.68781   0.00000  Uiso   1.00
C1148  C     0.87249   0.18510   0.97886   0.00000  Uiso   1.00
H1149  H     0.76318   0.13309   0.70355   0.00000  Uiso   1.00
H1150  H     0.90348   0.20024   0.96310   0.00000  Uiso   1.00
C1151  C     0.79364   0.14803   0.97179   0.00000  Uiso   1.00
C1152  C     0.87304   0.18530   0.69488   0.00000  Uiso   1.00
N1153  N     0.82630   0.04195   0.74629   0.00000  Uiso   1.00
H1154  H     0.79873   0.03121   0.72019   0.00000  Uiso   1.00
C1155  C     0.87599   0.05069   0.73033   0.00000  Uiso   1.00
H1156  H     0.89196   0.02244   0.71742   0.00000  Uiso   1.00
H1157  H     0.90378   0.06388   0.75905   0.00000  Uiso   1.00
H1158  H     0.87155   0.07339   0.70148   0.00000  Uiso   1.00
N1159  N     0.84050   0.29138   0.92038   0.00000  Uiso   1.00
H1160  H     0.86811   0.30212   0.94645   0.00000  Uiso   1.00
C1161  C     0.79083   0.28266   0.93640   0.00000  Uiso   1.00
H1162  H     0.77491   0.31091   0.94936   0.00000  Uiso   1.00
H1163  H     0.79530   0.25993   0.96521   0.00000  Uiso   1.00
H1164  H     0.76299   0.26951   0.90769   0.00000  Uiso   1.00
N1165  N     0.80347   0.29122   0.74752   0.00000  Uiso   1.00
O1166  O     0.75838   0.27278   0.74211   0.00000  Uiso   1.00
O1167  O     0.83183   0.29132   0.71334   0.00000  Uiso   1.00
N1168  N     0.86333   0.04212   0.91913   0.00000  Uiso   1.00
O1169  O     0.90840   0.06060   0.92448   0.00000  Uiso   1.00
O1170  O     0.83505   0.04198   0.95338   0.00000  Uiso   1.00
N1171  N     0.74995   0.12857   0.94501   0.00000  Uiso   1.00
O1172  O     0.75609   0.09678   0.91968   0.00000  Uiso   1.00
O1173  O     0.70421   0.13468   0.95663   0.00000  Uiso   1.00
N1174  N     0.91677   0.20472   0.72164   0.00000  Uiso   1.00
O1175  O     0.91066   0.23638   0.74720   0.00000  Uiso   1.00
O1176  O     0.96248   0.19872   0.70987   0.00000  Uiso   1.00
O1177  O     0.16666   0.43989   0.87291   0.00000  Uiso   1.00
O1178  O     0.16667   0.56011   0.79375   0.00000  Uiso   1.00
O1179  O     0.16666   0.43988   0.79372   0.00000  Uiso   1.00
O1180  O     0.16667   0.56012   0.87294   0.00000  Uiso   1.00
C1181  C     0.16911   0.42082   0.83349   0.00000  Uiso   1.00
C1182  C     0.16425   0.57918   0.83318   0.00000  Uiso   1.00
O1183  O     0.09161   0.50000   0.86379   0.00000  Uiso   1.00
O1184  O     0.24172   0.50000   0.80288   0.00000  Uiso   1.00
O1185  O     0.09161   0.49999   0.78460   0.00000  Uiso   1.00
O1186  O     0.24172   0.50001   0.88207   0.00000  Uiso   1.00
C1187  C     0.06808   0.49937   0.82153   0.00000  Uiso   1.00
C1188  C     0.26525   0.50064   0.84514   0.00000  Uiso   1.00
Cu1189 Cu    0.16667   0.50001   0.88022   0.00000  Uiso   1.00
Cu1190 Cu    0.16667   0.49999   0.78645   0.00000  Uiso   1.00
N1191  N     0.16668   0.50001   0.95069   0.00000  Uiso   1.00
N1192  N     0.16665   0.49999   0.71597   0.00000  Uiso   1.00
C1193  C     0.01296   0.49704   0.81520   0.00000  Uiso   1.00
C1194  C     0.32037   0.50299   0.85146   0.00000  Uiso   1.00
H1195  H     0.32696   0.48959   0.78061   0.00000  Uiso   1.00
H1196  H     0.00637   0.51046   0.88604   0.00000  Uiso   1.00
C1197  C     0.16199   0.35440   0.79017   0.00000  Uiso   1.00
C1198  C     0.17143   0.64561   0.87650   0.00000  Uiso   1.00
C1199  C     0.15443   0.64538   0.79064   0.00000  Uiso   1.00
C1200  C     0.17899   0.35463   0.87602   0.00000  Uiso   1.00
C1201  C     0.16188   0.62395   0.83350   0.00000  Uiso   1.00
C1202  C     0.17152   0.37605   0.83317   0.00000  Uiso   1.00
C1203  C     0.12751   0.48156   0.68781   0.00000  Uiso   1.00
C1204  C     0.20582   0.51844   0.97886   0.00000  Uiso   1.00
H1205  H     0.09651   0.46642   0.70355   0.00000  Uiso   1.00
H1206  H     0.23682   0.53357   0.96310   0.00000  Uiso   1.00
C1207  C     0.12697   0.48136   0.97179   0.00000  Uiso   1.00
C1208  C     0.20637   0.51863   0.69488   0.00000  Uiso   1.00
N1209  N     0.15963   0.37529   0.74629   0.00000  Uiso   1.00
H1210  H     0.13206   0.36454   0.72019   0.00000  Uiso   1.00
C1211  C     0.20932   0.38402   0.73033   0.00000  Uiso   1.00
H1212  H     0.22529   0.35578   0.71742   0.00000  Uiso   1.00
H1213  H     0.23711   0.39722   0.75905   0.00000  Uiso   1.00
H1214  H     0.20488   0.40672   0.70148   0.00000  Uiso   1.00
N1215  N     0.17383   0.62472   0.92038   0.00000  Uiso   1.00
H1216  H     0.20144   0.63545   0.94645   0.00000  Uiso   1.00
C1217  C     0.12417   0.61600   0.93640   0.00000  Uiso   1.00
H1218  H     0.10825   0.64424   0.94936   0.00000  Uiso   1.00
H1219  H     0.12863   0.59327   0.96521   0.00000  Uiso   1.00
H1220  H     0.09632   0.60284   0.90769   0.00000  Uiso   1.00
N1221  N     0.13681   0.62456   0.74752   0.00000  Uiso   1.00
O1222  O     0.09172   0.60612   0.74211   0.00000  Uiso   1.00
O1223  O     0.16516   0.62465   0.71334   0.00000  Uiso   1.00
N1224  N     0.19667   0.37545   0.91913   0.00000  Uiso   1.00
O1225  O     0.24173   0.39393   0.92448   0.00000  Uiso   1.00
O1226  O     0.16839   0.37531   0.95338   0.00000  Uiso   1.00
N1227  N     0.08328   0.46190   0.94501   0.00000  Uiso   1.00
O1228  O     0.08942   0.43011   0.91968   0.00000  Uiso   1.00
O1229  O     0.03754   0.46801   0.95663   0.00000  Uiso   1.00
N1230  N     0.25011   0.53805   0.72164   0.00000  Uiso   1.00
O1231  O     0.24400   0.56972   0.74720   0.00000  Uiso   1.00
O1232  O     0.29581   0.53205   0.70987   0.00000  Uiso   1.00
O1233  O     0.50000   0.43989   0.87291   0.00000  Uiso   1.00
O1234  O     0.50000   0.56011   0.79375   0.00000  Uiso   1.00
O1235  O     0.50000   0.43988   0.79372   0.00000  Uiso   1.00
O1236  O     0.50000   0.56012   0.87294   0.00000  Uiso   1.00
C1237  C     0.50244   0.42082   0.83349   0.00000  Uiso   1.00
C1238  C     0.49758   0.57918   0.83318   0.00000  Uiso   1.00
O1239  O     0.42495   0.50000   0.86379   0.00000  Uiso   1.00
O1240  O     0.57505   0.50000   0.80288   0.00000  Uiso   1.00
O1241  O     0.42494   0.49999   0.78460   0.00000  Uiso   1.00
O1242  O     0.57506   0.50001   0.88207   0.00000  Uiso   1.00
C1243  C     0.40141   0.49937   0.82153   0.00000  Uiso   1.00
C1244  C     0.59859   0.50064   0.84514   0.00000  Uiso   1.00
Cu1245 Cu    0.50000   0.50001   0.88022   0.00000  Uiso   1.00
Cu1246 Cu    0.50000   0.49999   0.78645   0.00000  Uiso   1.00
N1247  N     0.50001   0.50001   0.95069   0.00000  Uiso   1.00
N1248  N     0.49999   0.49999   0.71597   0.00000  Uiso   1.00
C1249  C     0.34630   0.49704   0.81520   0.00000  Uiso   1.00
C1250  C     0.65370   0.50299   0.85146   0.00000  Uiso   1.00
H1251  H     0.66029   0.48959   0.78061   0.00000  Uiso   1.00
H1252  H     0.33971   0.51046   0.88604   0.00000  Uiso   1.00
C1253  C     0.49533   0.35440   0.79017   0.00000  Uiso   1.00
C1254  C     0.50476   0.64561   0.87650   0.00000  Uiso   1.00
C1255  C     0.48776   0.64538   0.79064   0.00000  Uiso   1.00
C1256  C     0.51233   0.35463   0.87602   0.00000  Uiso   1.00
C1257  C     0.49521   0.62395   0.83350   0.00000  Uiso   1.00
C1258  C     0.50485   0.37605   0.83317   0.00000  Uiso   1.00
C1259  C     0.46084   0.48156   0.68781   0.00000  Uiso   1.00
C1260  C     0.53916   0.51844   0.97886   0.00000  Uiso   1.00
H1261  H     0.42985   0.46642   0.70355   0.00000  Uiso   1.00
H1262  H     0.57015   0.53357   0.96310   0.00000  Uiso   1.00
C1263  C     0.46031   0.48136   0.97179   0.00000  Uiso   1.00
C1264  C     0.53971   0.51863   0.69488   0.00000  Uiso   1.00
N1265  N     0.49297   0.37529   0.74629   0.00000  Uiso   1.00
H1266  H     0.46540   0.36454   0.72019   0.00000  Uiso   1.00
C1267  C     0.54266   0.38402   0.73033   0.00000  Uiso   1.00
H1268  H     0.55863   0.35578   0.71742   0.00000  Uiso   1.00
H1269  H     0.57045   0.39722   0.75905   0.00000  Uiso   1.00
H1270  H     0.53821   0.40672   0.70148   0.00000  Uiso   1.00
N1271  N     0.50717   0.62472   0.92038   0.00000  Uiso   1.00
H1272  H     0.53478   0.63545   0.94645   0.00000  Uiso   1.00
C1273  C     0.45750   0.61600   0.93640   0.00000  Uiso   1.00
H1274  H     0.44158   0.64424   0.94936   0.00000  Uiso   1.00
H1275  H     0.46197   0.59327   0.96521   0.00000  Uiso   1.00
H1276  H     0.42965   0.60284   0.90769   0.00000  Uiso   1.00
N1277  N     0.47014   0.62456   0.74752   0.00000  Uiso   1.00
O1278  O     0.42505   0.60612   0.74211   0.00000  Uiso   1.00
O1279  O     0.49850   0.62465   0.71334   0.00000  Uiso   1.00
N1280  N     0.53000   0.37545   0.91913   0.00000  Uiso   1.00
O1281  O     0.57506   0.39393   0.92448   0.00000  Uiso   1.00
O1282  O     0.50172   0.37531   0.95338   0.00000  Uiso   1.00
N1283  N     0.41661   0.46190   0.94501   0.00000  Uiso   1.00
O1284  O     0.42276   0.43011   0.91968   0.00000  Uiso   1.00
O1285  O     0.37088   0.46801   0.95663   0.00000  Uiso   1.00
N1286  N     0.58344   0.53805   0.72164   0.00000  Uiso   1.00
O1287  O     0.57733   0.56972   0.74720   0.00000  Uiso   1.00
O1288  O     0.62915   0.53205   0.70987   0.00000  Uiso   1.00
O1289  O     0.83333   0.43989   0.87291   0.00000  Uiso   1.00
O1290  O     0.83334   0.56011   0.79375   0.00000  Uiso   1.00
O1291  O     0.83333   0.43988   0.79372   0.00000  Uiso   1.00
O1292  O     0.83334   0.56012   0.87294   0.00000  Uiso   1.00
C1293  C     0.83577   0.42082   0.83349   0.00000  Uiso   1.00
C1294  C     0.83091   0.57918   0.83318   0.00000  Uiso   1.00
O1295  O     0.75828   0.50000   0.86379   0.00000  Uiso   1.00
O1296  O     0.90839   0.50000   0.80288   0.00000  Uiso   1.00
O1297  O     0.75828   0.49999   0.78460   0.00000  Uiso   1.00
O1298  O     0.90839   0.50001   0.88207   0.00000  Uiso   1.00
C1299  C     0.73475   0.49937   0.82153   0.00000  Uiso   1.00
C1300  C     0.93192   0.50064   0.84514   0.00000  Uiso   1.00
Cu1301 Cu    0.83333   0.50001   0.88022   0.00000  Uiso   1.00
Cu1302 Cu    0.83333   0.49999   0.78645   0.00000  Uiso   1.00
N1303  N     0.83335   0.50001   0.95069   0.00000  Uiso   1.00
N1304  N     0.83332   0.49999   0.71597   0.00000  Uiso   1.00
C1305  C     0.67963   0.49704   0.81520   0.00000  Uiso   1.00
C1306  C     0.98703   0.50299   0.85146   0.00000  Uiso   1.00
H1307  H     0.99362   0.48959   0.78061   0.00000  Uiso   1.00
H1308  H     0.67304   0.51046   0.88604   0.00000  Uiso   1.00
C1309  C     0.82866   0.35440   0.79017   0.00000  Uiso   1.00
C1310  C     0.83809   0.64561   0.87650   0.00000  Uiso   1.00
C1311  C     0.82110   0.64538   0.79064   0.00000  Uiso   1.00
C1312  C     0.84566   0.35463   0.87602   0.00000  Uiso   1.00
C1313  C     0.82854   0.62395   0.83350   0.00000  Uiso   1.00
C1314  C     0.83819   0.37605   0.83317   0.00000  Uiso   1.00
C1315  C     0.79418   0.48156   0.68781   0.00000  Uiso   1.00
C1316  C     0.87249   0.51844   0.97886   0.00000  Uiso   1.00
H1317  H     0.76318   0.46642   0.70355   0.00000  Uiso   1.00
H1318  H     0.90348   0.53357   0.96310   0.00000  Uiso   1.00
C1319  C     0.79364   0.48136   0.97179   0.00000  Uiso   1.00
C1320  C     0.87304   0.51863   0.69488   0.00000  Uiso   1.00
N1321  N     0.82630   0.37529   0.74629   0.00000  Uiso   1.00
H1322  H     0.79873   0.36454   0.72019   0.00000  Uiso   1.00
C1323  C     0.87599   0.38402   0.73033   0.00000  Uiso   1.00
H1324  H     0.89196   0.35578   0.71742   0.00000  Uiso   1.00
H1325  H     0.90378   0.39722   0.75905   0.00000  Uiso   1.00
H1326  H     0.87155   0.40672   0.70148   0.00000  Uiso   1.00
N1327  N     0.84050   0.62472   0.92038   0.00000  Uiso   1.00
H1328  H     0.86811   0.63545   0.94645   0.00000  Uiso   1.00
C1329  C     0.79083   0.61600   0.93640   0.00000  Uiso   1.00
H1330  H     0.77491   0.64424   0.94936   0.00000  Uiso   1.00
H1331  H     0.79530   0.59327   0.96521   0.00000  Uiso   1.00
H1332  H     0.76299   0.60284   0.90769   0.00000  Uiso   1.00
N1333  N     0.80347   0.62456   0.74752   0.00000  Uiso   1.00
O1334  O     0.75838   0.60612   0.74211   0.00000  Uiso   1.00
O1335  O     0.83183   0.62465   0.71334   0.00000  Uiso   1.00
N1336  N     0.86333   0.37545   0.91913   0.00000  Uiso   1.00
O1337  O     0.90840   0.39393   0.92448   0.00000  Uiso   1.00
O1338  O     0.83505   0.37531   0.95338   0.00000  Uiso   1.00
N1339  N     0.74995   0.46190   0.94501   0.00000  Uiso   1.00
O1340  O     0.75609   0.43011   0.91968   0.00000  Uiso   1.00
O1341  O     0.70421   0.46801   0.95663   0.00000  Uiso   1.00
N1342  N     0.91677   0.53805   0.72164   0.00000  Uiso   1.00
O1343  O     0.91066   0.56972   0.74720   0.00000  Uiso   1.00
O1344  O     0.96248   0.53205   0.70987   0.00000  Uiso   1.00
O1345  O     0.16666   0.77322   0.87291   0.00000  Uiso   1.00
O1346  O     0.16667   0.89345   0.79375   0.00000  Uiso   1.00
O1347  O     0.16666   0.77321   0.79372   0.00000  Uiso   1.00
O1348  O     0.16667   0.89346   0.87294   0.00000  Uiso   1.00
C1349  C     0.16911   0.75416   0.83349   0.00000  Uiso   1.00
C1350  C     0.16425   0.91251   0.83318   0.00000  Uiso   1.00
O1351  O     0.09161   0.83334   0.86379   0.00000  Uiso   1.00
O1352  O     0.24172   0.83333   0.80288   0.00000  Uiso   1.00
O1353  O     0.09161   0.83333   0.78460   0.00000  Uiso   1.00
O1354  O     0.24172   0.83334   0.88207   0.00000  Uiso   1.00
C1355  C     0.06808   0.83270   0.82153   0.00000  Uiso   1.00
C1356  C     0.26525   0.83398   0.84514   0.00000  Uiso   1.00
Cu1357 Cu    0.16667   0.83334   0.88022   0.00000  Uiso   1.00
Cu1358 Cu    0.16667   0.83333   0.78645   0.00000  Uiso   1.00
N1359  N     0.16668   0.83334   0.95069   0.00000  Uiso   1.00
N1360  N     0.16665   0.83332   0.71597   0.00000  Uiso   1.00
C1361  C     0.01296   0.83038   0.81520   0.00000  Uiso   1.00
C1362  C     0.32037   0.83632   0.85146   0.00000  Uiso   1.00
H1363  H     0.32696   0.82292   0.78061   0.00000  Uiso   1.00
H1364  H     0.00637   0.84380   0.88604   0.00000  Uiso   1.00
C1365  C     0.16199   0.68773   0.79017   0.00000  Uiso   1.00
C1366  C     0.17143   0.97894   0.87650   0.00000  Uiso   1.00
C1367  C     0.15443   0.97871   0.79064   0.00000  Uiso   1.00
C1368  C     0.17899   0.68796   0.87602   0.00000  Uiso   1.00
C1369  C     0.16188   0.95729   0.83350   0.00000  Uiso   1.00
C1370  C     0.17152   0.70939   0.83317   0.00000  Uiso   1.00
C1371  C     0.12751   0.81490   0.68781   0.00000  Uiso   1.00
C1372  C     0.20582   0.85177   0.97886   0.00000  Uiso   1.00
H1373  H     0.09651   0.79976   0.70355   0.00000  Uiso   1.00
H1374  H     0.23682   0.86691   0.96310   0.00000  Uiso   1.00
C1375  C     0.12697   0.81469   0.97179   0.00000  Uiso   1.00
C1376  C     0.20637   0.85196   0.69488   0.00000  Uiso   1.00
N1377  N     0.15963   0.70862   0.74629   0.00000  Uiso   1.00
H1378  H     0.13206   0.69787   0.72019   0.00000  Uiso   1.00
C1379  C     0.20932   0.71735   0.73033   0.00000  Uiso   1.00
H1380  H     0.22529   0.68911   0.71742   0.00000  Uiso   1.00
H1381  H     0.23711   0.73055   0.75905   0.00000  Uiso   1.00
H1382  H     0.20488   0.74005   0.70148   0.00000  Uiso   1.00
N1383  N     0.17383   0.95805   0.92038   0.00000  Uiso   1.00
H1384  H     0.20144   0.96878   0.94645   0.00000  Uiso   1.00
C1385  C     0.12417   0.94933   0.93640   0.00000  Uiso   1.00
H1386  H     0.10825   0.97757   0.94936   0.00000  Uiso   1.00
H1387  H     0.12863   0.92660   0.96521   0.00000  Uiso   1.00
H1388  H     0.09632   0.93617   0.90769   0.00000  Uiso   1.00
N1389  N     0.13681   0.95789   0.74752   0.00000  Uiso   1.00
O1390  O     0.09172   0.93945   0.74211   0.00000  Uiso   1.00
O1391  O     0.16516   0.95798   0.71334   0.00000  Uiso   1.00
N1392  N     0.19667   0.70879   0.91913   0.00000  Uiso   1.00
O1393  O     0.24173   0.72727   0.92448   0.00000  Uiso   1.00
O1394  O     0.16839   0.70864   0.95338   0.00000  Uiso   1.00
N1395  N     0.08328   0.79523   0.94501   0.00000  Uiso   1.00
O1396  O     0.08942   0.76344   0.91968   0.00000  Uiso   1.00
O1397  O     0.03754   0.80135   0.95663   0.00000  Uiso   1.00
N1398  N     0.25011   0.87139   0.72164   0.00000  Uiso   1.00
O1399  O     0.24400   0.90305   0.74720   0.00000  Uiso   1.00
O1400  O     0.29581   0.86538   0.70987   0.00000  Uiso   1.00
O1401  O     0.50000   0.77322   0.87291   0.00000  Uiso   1.00
O1402  O     0.50000   0.89345   0.79375   0.00000  Uiso   1.00
O1403  O     0.50000   0.77321   0.79372   0.00000  Uiso   1.00
O1404  O     0.50000   0.89346   0.87294   0.00000  Uiso   1.00
C1405  C     0.50244   0.75416   0.83349   0.00000  Uiso   1.00
C1406  C     0.49758   0.91251   0.83318   0.00000  Uiso   1.00
O1407  O     0.42495   0.83334   0.86379   0.00000  Uiso   1.00
O1408  O     0.57505   0.83333   0.80288   0.00000  Uiso   1.00
O1409  O     0.42494   0.83333   0.78460   0.00000  Uiso   1.00
O1410  O     0.57506   0.83334   0.88207   0.00000  Uiso   1.00
C1411  C     0.40141   0.83270   0.82153   0.00000  Uiso   1.00
C1412  C     0.59859   0.83398   0.84514   0.00000  Uiso   1.00
Cu1413 Cu    0.50000   0.83334   0.88022   0.00000  Uiso   1.00
Cu1414 Cu    0.50000   0.83333   0.78645   0.00000  Uiso   1.00
N1415  N     0.50001   0.83334   0.95069   0.00000  Uiso   1.00
N1416  N     0.49999   0.83332   0.71597   0.00000  Uiso   1.00
C1417  C     0.34630   0.83038   0.81520   0.00000  Uiso   1.00
C1418  C     0.65370   0.83632   0.85146   0.00000  Uiso   1.00
H1419  H     0.66029   0.82292   0.78061   0.00000  Uiso   1.00
H1420  H     0.33971   0.84380   0.88604   0.00000  Uiso   1.00
C1421  C     0.49533   0.68773   0.79017   0.00000  Uiso   1.00
C1422  C     0.50476   0.97894   0.87650   0.00000  Uiso   1.00
C1423  C     0.48776   0.97871   0.79064   0.00000  Uiso   1.00
C1424  C     0.51233   0.68796   0.87602   0.00000  Uiso   1.00
C1425  C     0.49521   0.95729   0.83350   0.00000  Uiso   1.00
C1426  C     0.50485   0.70939   0.83317   0.00000  Uiso   1.00
C1427  C     0.46084   0.81490   0.68781   0.00000  Uiso   1.00
C1428  C     0.53916   0.85177   0.97886   0.00000  Uiso   1.00
H1429  H     0.42985   0.79976   0.70355   0.00000  Uiso   1.00
H1430  H     0.57015   0.86691   0.96310   0.00000  Uiso   1.00
C1431  C     0.46031   0.81469   0.97179   0.00000  Uiso   1.00
C1432  C     0.53971   0.85196   0.69488   0.00000  Uiso   1.00
N1433  N     0.49297   0.70862   0.74629   0.00000  Uiso   1.00
H1434  H     0.46540   0.69787   0.72019   0.00000  Uiso   1.00
C1435  C     0.54266   0.71735   0.73033   0.00000  Uiso   1.00
H1436  H     0.55863   0.68911   0.71742   0.00000  Uiso   1.00
H1437  H     0.57045   0.73055   0.75905   0.00000  Uiso   1.00
H1438  H     0.53821   0.74005   0.70148   0.00000  Uiso   1.00
N1439  N     0.50717   0.95805   0.92038   0.00000  Uiso   1.00
H1440  H     0.53478   0.96878   0.94645   0.00000  Uiso   1.00
C1441  C     0.45750   0.94933   0.93640   0.00000  Uiso   1.00
H1442  H     0.44158   0.97757   0.94936   0.00000  Uiso   1.00
H1443  H     0.46197   0.92660   0.96521   0.00000  Uiso   1.00
H1444  H     0.42965   0.93617   0.90769   0.00000  Uiso   1.00
N1445  N     0.47014   0.95789   0.74752   0.00000  Uiso   1.00
O1446  O     0.42505   0.93945   0.74211   0.00000  Uiso   1.00
O1447  O     0.49850   0.95798   0.71334   0.00000  Uiso   1.00
N1448  N     0.53000   0.70879   0.91913   0.00000  Uiso   1.00
O1449  O     0.57506   0.72727   0.92448   0.00000  Uiso   1.00
O1450  O     0.50172   0.70864   0.95338   0.00000  Uiso   1.00
N1451  N     0.41661   0.79523   0.94501   0.00000  Uiso   1.00
O1452  O     0.42276   0.76344   0.91968   0.00000  Uiso   1.00
O1453  O     0.37088   0.80135   0.95663   0.00000  Uiso   1.00
N1454  N     0.58344   0.87139   0.72164   0.00000  Uiso   1.00
O1455  O     0.57733   0.90305   0.74720   0.00000  Uiso   1.00
O1456  O     0.62915   0.86538   0.70987   0.00000  Uiso   1.00
O1457  O     0.83333   0.77322   0.87291   0.00000  Uiso   1.00
O1458  O     0.83334   0.89345   0.79375   0.00000  Uiso   1.00
O1459  O     0.83333   0.77321   0.79372   0.00000  Uiso   1.00
O1460  O     0.83334   0.89346   0.87294   0.00000  Uiso   1.00
C1461  C     0.83577   0.75416   0.83349   0.00000  Uiso   1.00
C1462  C     0.83091   0.91251   0.83318   0.00000  Uiso   1.00
O1463  O     0.75828   0.83334   0.86379   0.00000  Uiso   1.00
O1464  O     0.90839   0.83333   0.80288   0.00000  Uiso   1.00
O1465  O     0.75828   0.83333   0.78460   0.00000  Uiso   1.00
O1466  O     0.90839   0.83334   0.88207   0.00000  Uiso   1.00
C1467  C     0.73475   0.83270   0.82153   0.00000  Uiso   1.00
C1468  C     0.93192   0.83398   0.84514   0.00000  Uiso   1.00
Cu1469 Cu    0.83333   0.83334   0.88022   0.00000  Uiso   1.00
Cu1470 Cu    0.83333   0.83333   0.78645   0.00000  Uiso   1.00
N1471  N     0.83335   0.83334   0.95069   0.00000  Uiso   1.00
N1472  N     0.83332   0.83332   0.71597   0.00000  Uiso   1.00
C1473  C     0.67963   0.83038   0.81520   0.00000  Uiso   1.00
C1474  C     0.98703   0.83632   0.85146   0.00000  Uiso   1.00
H1475  H     0.99362   0.82292   0.78061   0.00000  Uiso   1.00
H1476  H     0.67304   0.84380   0.88604   0.00000  Uiso   1.00
C1477  C     0.82866   0.68773   0.79017   0.00000  Uiso   1.00
C1478  C     0.83809   0.97894   0.87650   0.00000  Uiso   1.00
C1479  C     0.82110   0.97871   0.79064   0.00000  Uiso   1.00
C1480  C     0.84566   0.68796   0.87602   0.00000  Uiso   1.00
C1481  C     0.82854   0.95729   0.83350   0.00000  Uiso   1.00
C1482  C     0.83819   0.70939   0.83317   0.00000  Uiso   1.00
C1483  C     0.79418   0.81490   0.68781   0.00000  Uiso   1.00
C1484  C     0.87249   0.85177   0.97886   0.00000  Uiso   1.00
H1485  H     0.76318   0.79976   0.70355   0.00000  Uiso   1.00
H1486  H     0.90348   0.86691   0.96310   0.00000  Uiso   1.00
C1487  C     0.79364   0.81469   0.97179   0.00000  Uiso   1.00
C1488  C     0.87304   0.85196   0.69488   0.00000  Uiso   1.00
N1489  N     0.82630   0.70862   0.74629   0.00000  Uiso   1.00
H1490  H     0.79873   0.69787   0.72019   0.00000  Uiso   1.00
C1491  C     0.87599   0.71735   0.73033   0.00000  Uiso   1.00
H1492  H     0.89196   0.68911   0.71742   0.00000  Uiso   1.00
H1493  H     0.90378   0.73055   0.75905   0.00000  Uiso   1.00
H1494  H     0.87155   0.74005   0.70148   0.00000  Uiso   1.00
N1495  N     0.84050   0.95805   0.92038   0.00000  Uiso   1.00
H1496  H     0.86811   0.96878   0.94645   0.00000  Uiso   1.00
C1497  C     0.79083   0.94933   0.93640   0.00000  Uiso   1.00
H1498  H     0.77491   0.97757   0.94936   0.00000  Uiso   1.00
H1499  H     0.79530   0.92660   0.96521   0.00000  Uiso   1.00
H1500  H     0.76299   0.93617   0.90769   0.00000  Uiso   1.00
N1501  N     0.80347   0.95789   0.74752   0.00000  Uiso   1.00
O1502  O     0.75838   0.93945   0.74211   0.00000  Uiso   1.00
O1503  O     0.83183   0.95798   0.71334   0.00000  Uiso   1.00
N1504  N     0.86333   0.70879   0.91913   0.00000  Uiso   1.00
O1505  O     0.90840   0.72727   0.92448   0.00000  Uiso   1.00
O1506  O     0.83505   0.70864   0.95338   0.00000  Uiso   1.00
N1507  N     0.74995   0.79523   0.94501   0.00000  Uiso   1.00
O1508  O     0.75609   0.76344   0.91968   0.00000  Uiso   1.00
O1509  O     0.70421   0.80135   0.95663   0.00000  Uiso   1.00
N1510  N     0.91677   0.87139   0.72164   0.00000  Uiso   1.00
O1511  O     0.91066   0.90305   0.74720   0.00000  Uiso   1.00
O1512  O     0.96248   0.86538   0.70987   0.00000  Uiso   1.00
loop_
_geom_bond_atom_site_label_1
_geom_bond_atom_site_label_2
_geom_bond_distance
_geom_bond_site_symmetry_2
_ccdc_geom_bond_type
O1     C5      1.305   .     A
O1     Cu13    1.982   .     S
O2     C6      1.305   .     A
O2     Cu14    1.982   .     S
O3     C5      1.296   .     A
O3     Cu14    1.980   .     S
O4     C6      1.296   .     A
O4     Cu13    1.980   .     S
C5     C26     1.470   .     S
C6     C25     1.470   .     S
O7     Cu13    1.963   .     S
O7     C11     1.294   .     A
O8     C12     1.294   .     A
O8     Cu14    1.963   .     S
O9     Cu14    1.958   .     S
O9     C11     1.289   .     A
O10    C12     1.289   .     A
O10    Cu13    1.958   .     S
C11    C17     1.431   .     S
C12    C18     1.431   .     S
Cu13   Cu14    2.694   .     S
Cu13   N15     2.025   .     S
Cu14   N16     2.025   .     S
N15    C31     1.389   .     A
N15    C28     1.354   .     A
N16    C27     1.354   .     A
N16    C32     1.389   .     A
C17    C130    1.328   1_455 S
C17    H131    1.085   1_455 S
C18    C73     1.328   .     S
C18    H76     1.085   .     S
H19    C73     1.085   .     S
H20    C130    1.085   1_455 S
C21    C26     1.419   .     A
C21    N33     1.428   .     S
C21    C359    1.396   1_545 S
C22    N39     1.428   .     S
C22    C25     1.419   .     A
C22    C192    1.396   .     S
C23    N45     1.436   .     S
C23    C25     1.411   .     A
C23    C189    1.396   .     S
C24    C26     1.411   .     A
C24    N48     1.436   .     S
C24    C358    1.396   1_545 S
C27    H29     1.082   .     S
C27    C1039   1.416   1_554 S
C28    H30     1.082   .     S
C28    C536    1.416   .     S
C31    N51     1.433   .     S
C31    C531    1.416   .     S
C32    N54     1.433   .     S
C32    C1036   1.416   1_554 S
N33    H34     1.031   .     S
N33    C35     1.450   .     S
C35    H36     1.110   .     S
C35    H37     1.112   .     S
C35    H38     1.109   .     S
N39    C41     1.450   .     S
N39    H40     1.031   .     S
C41    H43     1.110   .     S
C41    H42     1.110   .     S
C41    H44     1.112   .     S
N45    O46     1.301   .     A
N45    O47     1.300   .     A
N48    O50     1.300   .     A
N48    O49     1.301   .     A
N51    O52     1.298   .     A
N51    O53     1.301   .     A
N54    O56     1.302   .     A
N54    O55     1.298   .     A
O57    C61     1.305   .     A
O57    Cu69    1.982   .     S
O58    C62     1.305   .     A
O58    Cu70    1.982   .     S
O59    C61     1.296   .     A
O59    Cu70    1.980   .     S
O60    C62     1.296   .     A
O60    Cu69    1.980   .     S
C61    C82     1.470   .     S
C62    C81     1.470   .     S
O63    Cu69    1.963   .     S
O63    C67     1.294   .     A
O64    C68     1.294   .     A
O64    Cu70    1.963   .     S
O65    Cu70    1.958   .     S
O65    C67     1.289   .     A
O66    C68     1.289   .     A
O66    Cu69    1.958   .     S
C67    C73     1.431   .     S
C68    C74     1.431   .     S
Cu69   Cu70    2.694   .     S
Cu69   N71     2.025   .     S
Cu70   N72     2.025   .     S
N71    C87     1.389   .     A
N71    C84     1.354   .     A
N72    C83     1.354   .     A
N72    C88     1.389   .     A
C74    C129    1.328   .     S
C74    H132    1.085   .     S
H75    C129    1.085   .     S
C77    C82     1.419   .     A
C77    N89     1.428   .     S
C77    C415    1.396   1_545 S
C78    N95     1.428   .     S
C78    C81     1.419   .     A
C78    C248    1.396   .     S
C79    N101    1.436   .     S
C79    C81     1.411   .     A
C79    C245    1.396   .     S
C80    C82     1.411   .     A
C80    N104    1.436   .     S
C80    C414    1.396   1_545 S
C83    H85     1.082   .     S
C83    C1095   1.416   1_554 S
C84    H86     1.082   .     S
C84    C592    1.416   .     S
C87    N107    1.433   .     S
C87    C587    1.416   .     S
C88    N110    1.433   .     S
C88    C1092   1.416   1_554 S
N89    H90     1.031   .     S
N89    C91     1.450   .     S
C91    H92     1.110   .     S
C91    H93     1.112   .     S
C91    H94     1.109   .     S
N95    C97     1.450   .     S
N95    H96     1.031   .     S
C97    H99     1.110   .     S
C97    H98     1.110   .     S
C97    H100    1.112   .     S
N101   O102    1.301   .     A
N101   O103    1.300   .     A
N104   O106    1.300   .     A
N104   O105    1.301   .     A
N107   O108    1.298   .     A
N107   O109    1.301   .     A
N110   O112    1.302   .     A
N110   O111    1.298   .     A
O113   C117    1.305   .     A
O113   Cu125   1.982   .     S
O114   C118    1.305   .     A
O114   Cu126   1.982   .     S
O115   C117    1.296   .     A
O115   Cu126   1.980   .     S
O116   C118    1.296   .     A
O116   Cu125   1.980   .     S
C117   C138    1.470   .     S
C118   C137    1.470   .     S
O119   Cu125   1.963   .     S
O119   C123    1.294   .     A
O120   C124    1.294   .     A
O120   Cu126   1.963   .     S
O121   Cu126   1.958   .     S
O121   C123    1.289   .     A
O122   C124    1.289   .     A
O122   Cu125   1.958   .     S
C123   C129    1.431   .     S
C124   C130    1.431   .     S
Cu125  Cu126   2.694   .     S
Cu125  N127    2.025   .     S
Cu126  N128    2.025   .     S
N127   C143    1.389   .     A
N127   C140    1.354   .     A
N128   C139    1.354   .     A
N128   C144    1.389   .     A
C130   C17     1.328   1_655 S
C130   H20     1.085   1_655 S
H131   C17     1.085   1_655 S
C133   C138    1.419   .     A
C133   N145    1.428   .     S
C133   C471    1.396   1_545 S
C134   N151    1.428   .     S
C134   C137    1.419   .     A
C134   C304    1.396   .     S
C135   N157    1.436   .     S
C135   C137    1.411   .     A
C135   C301    1.396   .     S
C136   C138    1.411   .     A
C136   N160    1.436   .     S
C136   C470    1.396   1_545 S
C139   H141    1.082   .     S
C139   C1151   1.416   1_554 S
C140   H142    1.082   .     S
C140   C648    1.416   .     S
C143   N163    1.433   .     S
C143   C643    1.416   .     S
C144   N166    1.433   .     S
C144   C1148   1.416   1_554 S
N145   H146    1.031   .     S
N145   C147    1.450   .     S
C147   H148    1.110   .     S
C147   H149    1.112   .     S
C147   H150    1.109   .     S
N151   C153    1.450   .     S
N151   H152    1.031   .     S
C153   H155    1.110   .     S
C153   H154    1.110   .     S
C153   H156    1.112   .     S
N157   O158    1.301   .     A
N157   O159    1.300   .     A
N160   O162    1.300   .     A
N160   O161    1.301   .     A
N163   O164    1.298   .     A
N163   O165    1.301   .     A
N166   O168    1.302   .     A
N166   O167    1.298   .     A
O169   C173    1.305   .     A
O169   Cu181   1.982   .     S
O170   C174    1.305   .     A
O170   Cu182   1.982   .     S
O171   C173    1.296   .     A
O171   Cu182   1.980   .     S
O172   C174    1.296   .     A
O172   Cu181   1.980   .     S
C173   C194    1.470   .     S
C174   C193    1.470   .     S
O175   Cu181   1.963   .     S
O175   C179    1.294   .     A
O176   C180    1.294   .     A
O176   Cu182   1.963   .     S
O177   Cu182   1.958   .     S
O177   C179    1.289   .     A
O178   C180    1.289   .     A
O178   Cu181   1.958   .     S
C179   C185    1.431   .     S
C180   C186    1.431   .     S
Cu181  Cu182   2.694   .     S
Cu181  N183    2.025   .     S
Cu182  N184    2.025   .     S
N183   C199    1.389   .     A
N183   C196    1.354   .     A
N184   C195    1.354   .     A
N184   C200    1.389   .     A
C185   C298    1.328   1_455 S
C185   H299    1.085   1_455 S
C186   C241    1.328   .     S
C186   H244    1.085   .     S
H187   C241    1.085   .     S
H188   C298    1.085   1_455 S
C189   C194    1.419   .     A
C189   N201    1.428   .     S
C190   N207    1.428   .     S
C190   C193    1.419   .     A
C190   C360    1.396   .     S
C191   N213    1.436   .     S
C191   C193    1.411   .     A
C191   C357    1.396   .     S
C192   C194    1.411   .     A
C192   N216    1.436   .     S
C195   H197    1.082   .     S
C195   C1207   1.416   1_554 S
C196   H198    1.082   .     S
C196   C704    1.416   .     S
C199   N219    1.433   .     S
C199   C699    1.416   .     S
C200   N222    1.433   .     S
C200   C1204   1.416   1_554 S
N201   H202    1.031   .     S
N201   C203    1.450   .     S
C203   H204    1.110   .     S
C203   H205    1.112   .     S
C203   H206    1.109   .     S
N207   C209    1.450   .     S
N207   H208    1.031   .     S
C209   H211    1.110   .     S
C209   H210    1.110   .     S
C209   H212    1.112   .     S
N213   O214    1.301   .     A
N213   O215    1.300   .     A
N216   O218    1.300   .     A
N216   O217    1.301   .     A
N219   O220    1.298   .     A
N219   O221    1.301   .     A
N222   O224    1.302   .     A
N222   O223    1.298   .     A
O225   C229    1.305   .     A
O225   Cu237   1.982   .     S
O226   C230    1.305   .     A
O226   Cu238   1.982   .     S
O227   C229    1.296   .     A
O227   Cu238   1.980   .     S
O228   C230    1.296   .     A
O228   Cu237   1.980   .     S
C229   C250    1.470   .     S
C230   C249    1.470   .     S
O231   Cu237   1.963   .     S
O231   C235    1.294   .     A
O232   C236    1.294   .     A
O232   Cu238   1.963   .     S
O233   Cu238   1.958   .     S
O233   C235    1.289   .     A
O234   C236    1.289   .     A
O234   Cu237   1.958   .     S
C235   C241    1.431   .     S
C236   C242    1.431   .     S
Cu237  Cu238   2.694   .     S
Cu237  N239    2.025   .     S
Cu238  N240    2.025   .     S
N239   C255    1.389   .     A
N239   C252    1.354   .     A
N240   C251    1.354   .     A
N240   C256    1.389   .     A
C242   C297    1.328   .     S
C242   H300    1.085   .     S
H243   C297    1.085   .     S
C245   C250    1.419   .     A
C245   N257    1.428   .     S
C246   N263    1.428   .     S
C246   C249    1.419   .     A
C246   C416    1.396   .     S
C247   N269    1.436   .     S
C247   C249    1.411   .     A
C247   C413    1.396   .     S
C248   C250    1.411   .     A
C248   N272    1.436   .     S
C251   H253    1.082   .     S
C251   C1263   1.416   1_554 S
C252   H254    1.082   .     S
C252   C760    1.416   .     S
C255   N275    1.433   .     S
C255   C755    1.416   .     S
C256   N278    1.433   .     S
C256   C1260   1.416   1_554 S
N257   H258    1.031   .     S
N257   C259    1.450   .     S
C259   H260    1.110   .     S
C259   H261    1.112   .     S
C259   H262    1.109   .     S
N263   C265    1.450   .     S
N263   H264    1.031   .     S
C265   H267    1.110   .     S
C265   H266    1.110   .     S
C265   H268    1.112   .     S
N269   O270    1.301   .     A
N269   O271    1.300   .     A
N272   O274    1.300   .     A
N272   O273    1.301   .     A
N275   O276    1.298   .     A
N275   O277    1.301   .     A
N278   O280    1.302   .     A
N278   O279    1.298   .     A
O281   C285    1.305   .     A
O281   Cu293   1.982   .     S
O282   C286    1.305   .     A
O282   Cu294   1.982   .     S
O283   C285    1.296   .     A
O283   Cu294   1.980   .     S
O284   C286    1.296   .     A
O284   Cu293   1.980   .     S
C285   C306    1.470   .     S
C286   C305    1.470   .     S
O287   Cu293   1.963   .     S
O287   C291    1.294   .     A
O288   C292    1.294   .     A
O288   Cu294   1.963   .     S
O289   Cu294   1.958   .     S
O289   C291    1.289   .     A
O290   C292    1.289   .     A
O290   Cu293   1.958   .     S
C291   C297    1.431   .     S
C292   C298    1.431   .     S
Cu293  Cu294   2.694   .     S
Cu293  N295    2.025   .     S
Cu294  N296    2.025   .     S
N295   C311    1.389   .     A
N295   C308    1.354   .     A
N296   C307    1.354   .     A
N296   C312    1.389   .     A
C298   C185    1.328   1_655 S
C298   H188    1.085   1_655 S
H299   C185    1.085   1_655 S
C301   C306    1.419   .     A
C301   N313    1.428   .     S
C302   N319    1.428   .     S
C302   C305    1.419   .     A
C302   C472    1.396   .     S
C303   N325    1.436   .     S
C303   C305    1.411   .     A
C303   C469    1.396   .     S
C304   C306    1.411   .     A
C304   N328    1.436   .     S
C307   H309    1.082   .     S
C307   C1319   1.416   1_554 S
C308   H310    1.082   .     S
C308   C816    1.416   .     S
C311   N331    1.433   .     S
C311   C811    1.416   .     S
C312   N334    1.433   .     S
C312   C1316   1.416   1_554 S
N313   H314    1.031   .     S
N313   C315    1.450   .     S
C315   H316    1.110   .     S
C315   H317    1.112   .     S
C315   H318    1.109   .     S
N319   C321    1.450   .     S
N319   H320    1.031   .     S
C321   H323    1.110   .     S
C321   H322    1.110   .     S
C321   H324    1.112   .     S
N325   O326    1.301   .     A
N325   O327    1.300   .     A
N328   O330    1.300   .     A
N328   O329    1.301   .     A
N331   O332    1.298   .     A
N331   O333    1.301   .     A
N334   O336    1.302   .     A
N334   O335    1.298   .     A
O337   C341    1.305   .     A
O337   Cu349   1.982   .     S
O338   C342    1.305   .     A
O338   Cu350   1.982   .     S
O339   C341    1.296   .     A
O339   Cu350   1.980   .     S
O340   C342    1.296   .     A
O340   Cu349   1.980   .     S
C341   C362    1.470   .     S
C342   C361    1.470   .     S
O343   Cu349   1.963   .     S
O343   C347    1.294   .     A
O344   C348    1.294   .     A
O344   Cu350   1.963   .     S
O345   Cu350   1.958   .     S
O345   C347    1.289   .     A
O346   C348    1.289   .     A
O346   Cu349   1.958   .     S
C347   C353    1.431   .     S
C348   C354    1.431   .     S
Cu349  Cu350   2.694   .     S
Cu349  N351    2.025   .     S
Cu350  N352    2.025   .     S
N351   C367    1.389   .     A
N351   C364    1.354   .     A
N352   C363    1.354   .     A
N352   C368    1.389   .     A
C353   C466    1.328   1_455 S
C353   H467    1.085   1_455 S
C354   C409    1.328   .     S
C354   H412    1.085   .     S
H355   C409    1.085   .     S
H356   C466    1.085   1_455 S
C357   C362    1.419   .     A
C357   N369    1.428   .     S
C358   N375    1.428   .     S
C358   C361    1.419   .     A
C358   C24     1.396   1_565 S
C359   N381    1.436   .     S
C359   C361    1.411   .     A
C359   C21     1.396   1_565 S
C360   C362    1.411   .     A
C360   N384    1.436   .     S
C363   H365    1.082   .     S
C363   C1375   1.416   1_554 S
C364   H366    1.082   .     S
C364   C872    1.416   .     S
C367   N387    1.433   .     S
C367   C867    1.416   .     S
C368   N390    1.433   .     S
C368   C1372   1.416   1_554 S
N369   H370    1.031   .     S
N369   C371    1.450   .     S
C371   H372    1.110   .     S
C371   H373    1.112   .     S
C371   H374    1.109   .     S
N375   C377    1.450   .     S
N375   H376    1.031   .     S
C377   H379    1.110   .     S
C377   H378    1.110   .     S
C377   H380    1.112   .     S
N381   O382    1.301   .     A
N381   O383    1.300   .     A
N384   O386    1.300   .     A
N384   O385    1.301   .     A
N387   O388    1.298   .     A
N387   O389    1.301   .     A
N390   O392    1.302   .     A
N390   O391    1.298   .     A
O393   C397    1.305   .     A
O393   Cu405   1.982   .     S
O394   C398    1.305   .     A
O394   Cu406   1.982   .     S
O395   C397    1.296   .     A
O395   Cu406   1.980   .     S
O396   C398    1.296   .     A
O396   Cu405   1.980   .     S
C397   C418    1.470   .     S
C398   C417    1.470   .     S
O399   Cu405   1.963   .     S
O399   C403    1.294   .     A
O400   C404    1.294   .     A
O400   Cu406   1.963   .     S
O401   Cu406   1.958   .     S
O401   C403    1.289   .     A
O402   C404    1.289   .     A
O402   Cu405   1.958   .     S
C403   C409    1.431   .     S
C404   C410    1.431   .     S
Cu405  Cu406   2.694   .     S
Cu405  N407    2.025   .     S
Cu406  N408    2.025   .     S
N407   C423    1.389   .     A
N407   C420    1.354   .     A
N408   C419    1.354   .     A
N408   C424    1.389   .     A
C410   C465    1.328   .     S
C410   H468    1.085   .     S
H411   C465    1.085   .     S
C413   C418    1.419   .     A
C413   N425    1.428   .     S
C414   N431    1.428   .     S
C414   C417    1.419   .     A
C414   C80     1.396   1_565 S
C415   N437    1.436   .     S
C415   C417    1.411   .     A
C415   C77     1.396   1_565 S
C416   C418    1.411   .     A
C416   N440    1.436   .     S
C419   H421    1.082   .     S
C419   C1431   1.416   1_554 S
C420   H422    1.082   .     S
C420   C928    1.416   .     S
C423   N443    1.433   .     S
C423   C923    1.416   .     S
C424   N446    1.433   .     S
C424   C1428   1.416   1_554 S
N425   H426    1.031   .     S
N425   C427    1.450   .     S
C427   H428    1.110   .     S
C427   H429    1.112   .     S
C427   H430    1.109   .     S
N431   C433    1.450   .     S
N431   H432    1.031   .     S
C433   H435    1.110   .     S
C433   H434    1.110   .     S
C433   H436    1.112   .     S
N437   O438    1.301   .     A
N437   O439    1.300   .     A
N440   O442    1.300   .     A
N440   O441    1.301   .     A
N443   O444    1.298   .     A
N443   O445    1.301   .     A
N446   O448    1.302   .     A
N446   O447    1.298   .     A
O449   C453    1.305   .     A
O449   Cu461   1.982   .     S
O450   C454    1.305   .     A
O450   Cu462   1.982   .     S
O451   C453    1.296   .     A
O451   Cu462   1.980   .     S
O452   C454    1.296   .     A
O452   Cu461   1.980   .     S
C453   C474    1.470   .     S
C454   C473    1.470   .     S
O455   Cu461   1.963   .     S
O455   C459    1.294   .     A
O456   C460    1.294   .     A
O456   Cu462   1.963   .     S
O457   Cu462   1.958   .     S
O457   C459    1.289   .     A
O458   C460    1.289   .     A
O458   Cu461   1.958   .     S
C459   C465    1.431   .     S
C460   C466    1.431   .     S
Cu461  Cu462   2.694   .     S
Cu461  N463    2.025   .     S
Cu462  N464    2.025   .     S
N463   C479    1.389   .     A
N463   C476    1.354   .     A
N464   C475    1.354   .     A
N464   C480    1.389   .     A
C466   C353    1.328   1_655 S
C466   H356    1.085   1_655 S
H467   C353    1.085   1_655 S
C469   C474    1.419   .     A
C469   N481    1.428   .     S
C470   N487    1.428   .     S
C470   C473    1.419   .     A
C470   C136    1.396   1_565 S
C471   N493    1.436   .     S
C471   C473    1.411   .     A
C471   C133    1.396   1_565 S
C472   C474    1.411   .     A
C472   N496    1.436   .     S
C475   H477    1.082   .     S
C475   C1487   1.416   1_554 S
C476   H478    1.082   .     S
C476   C984    1.416   .     S
C479   N499    1.433   .     S
C479   C979    1.416   .     S
C480   N502    1.433   .     S
C480   C1484   1.416   1_554 S
N481   H482    1.031   .     S
N481   C483    1.450   .     S
C483   H484    1.110   .     S
C483   H485    1.112   .     S
C483   H486    1.109   .     S
N487   C489    1.450   .     S
N487   H488    1.031   .     S
C489   H491    1.110   .     S
C489   H490    1.110   .     S
C489   H492    1.112   .     S
N493   O494    1.301   .     A
N493   O495    1.300   .     A
N496   O498    1.300   .     A
N496   O497    1.301   .     A
N499   O500    1.298   .     A
N499   O501    1.301   .     A
N502   O504    1.302   .     A
N502   O503    1.298   .     A
O505   C509    1.305   .     A
O505   Cu517   1.982   .     S
O506   C510    1.305   .     A
O506   Cu518   1.982   .     S
O507   C509    1.296   .     A
O507   Cu518   1.980   .     S
O508   C510    1.296   .     A
O508   Cu517   1.980   .     S
C509   C530    1.470   .     S
C510   C529    1.470   .     S
O511   Cu517   1.963   .     S
O511   C515    1.294   .     A
O512   C516    1.294   .     A
O512   Cu518   1.963   .     S
O513   Cu518   1.958   .     S
O513   C515    1.289   .     A
O514   C516    1.289   .     A
O514   Cu517   1.958   .     S
C515   C521    1.431   .     S
C516   C522    1.431   .     S
Cu517  Cu518   2.694   .     S
Cu517  N519    2.025   .     S
Cu518  N520    2.025   .     S
N519   C535    1.389   .     A
N519   C532    1.354   .     A
N520   C531    1.354   .     A
N520   C536    1.389   .     A
C521   C634    1.328   1_455 S
C521   H635    1.085   1_455 S
C522   C577    1.328   .     S
C522   H580    1.085   .     S
H523   C577    1.085   .     S
H524   C634    1.085   1_455 S
C525   C530    1.419   .     A
C525   N537    1.428   .     S
C525   C863    1.396   1_545 S
C526   N543    1.428   .     S
C526   C529    1.419   .     A
C526   C696    1.396   .     S
C527   N549    1.436   .     S
C527   C529    1.411   .     A
C527   C693    1.396   .     S
C528   C530    1.411   .     A
C528   N552    1.436   .     S
C528   C862    1.396   1_545 S
C531   H533    1.082   .     S
C532   H534    1.082   .     S
C532   C1040   1.416   .     S
C535   N555    1.433   .     S
C535   C1035   1.416   .     S
C536   N558    1.433   .     S
N537   H538    1.031   .     S
N537   C539    1.450   .     S
C539   H540    1.110   .     S
C539   H541    1.112   .     S
C539   H542    1.109   .     S
N543   C545    1.450   .     S
N543   H544    1.031   .     S
C545   H547    1.110   .     S
C545   H546    1.110   .     S
C545   H548    1.112   .     S
N549   O550    1.301   .     A
N549   O551    1.300   .     A
N552   O554    1.300   .     A
N552   O553    1.301   .     A
N555   O556    1.298   .     A
N555   O557    1.301   .     A
N558   O560    1.302   .     A
N558   O559    1.298   .     A
O561   C565    1.305   .     A
O561   Cu573   1.982   .     S
O562   C566    1.305   .     A
O562   Cu574   1.982   .     S
O563   C565    1.296   .     A
O563   Cu574   1.980   .     S
O564   C566    1.296   .     A
O564   Cu573   1.980   .     S
C565   C586    1.470   .     S
C566   C585    1.470   .     S
O567   Cu573   1.963   .     S
O567   C571    1.294   .     A
O568   C572    1.294   .     A
O568   Cu574   1.963   .     S
O569   Cu574   1.958   .     S
O569   C571    1.289   .     A
O570   C572    1.289   .     A
O570   Cu573   1.958   .     S
C571   C577    1.431   .     S
C572   C578    1.431   .     S
Cu573  Cu574   2.694   .     S
Cu573  N575    2.025   .     S
Cu574  N576    2.025   .     S
N575   C591    1.389   .     A
N575   C588    1.354   .     A
N576   C587    1.354   .     A
N576   C592    1.389   .     A
C578   C633    1.328   .     S
C578   H636    1.085   .     S
H579   C633    1.085   .     S
C581   C586    1.419   .     A
C581   N593    1.428   .     S
C581   C919    1.396   1_545 S
C582   N599    1.428   .     S
C582   C585    1.419   .     A
C582   C752    1.396   .     S
C583   N605    1.436   .     S
C583   C585    1.411   .     A
C583   C749    1.396   .     S
C584   C586    1.411   .     A
C584   N608    1.436   .     S
C584   C918    1.396   1_545 S
C587   H589    1.082   .     S
C588   H590    1.082   .     S
C588   C1096   1.416   .     S
C591   N611    1.433   .     S
C591   C1091   1.416   .     S
C592   N614    1.433   .     S
N593   H594    1.031   .     S
N593   C595    1.450   .     S
C595   H596    1.110   .     S
C595   H597    1.112   .     S
C595   H598    1.109   .     S
N599   C601    1.450   .     S
N599   H600    1.031   .     S
C601   H603    1.110   .     S
C601   H602    1.110   .     S
C601   H604    1.112   .     S
N605   O606    1.301   .     A
N605   O607    1.300   .     A
N608   O610    1.300   .     A
N608   O609    1.301   .     A
N611   O612    1.298   .     A
N611   O613    1.301   .     A
N614   O616    1.302   .     A
N614   O615    1.298   .     A
O617   C621    1.305   .     A
O617   Cu629   1.982   .     S
O618   C622    1.305   .     A
O618   Cu630   1.982   .     S
O619   C621    1.296   .     A
O619   Cu630   1.980   .     S
O620   C622    1.296   .     A
O620   Cu629   1.980   .     S
C621   C642    1.470   .     S
C622   C641    1.470   .     S
O623   Cu629   1.963   .     S
O623   C627    1.294   .     A
O624   C628    1.294   .     A
O624   Cu630   1.963   .     S
O625   Cu630   1.958   .     S
O625   C627    1.289   .     A
O626   C628    1.289   .     A
O626   Cu629   1.958   .     S
C627   C633    1.431   .     S
C628   C634    1.431   .     S
Cu629  Cu630   2.694   .     S
Cu629  N631    2.025   .     S
Cu630  N632    2.025   .     S
N631   C647    1.389   .     A
N631   C644    1.354   .     A
N632   C643    1.354   .     A
N632   C648    1.389   .     A
C634   C521    1.328   1_655 S
C634   H524    1.085   1_655 S
H635   C521    1.085   1_655 S
C637   C642    1.419   .     A
C637   N649    1.428   .     S
C637   C975    1.396   1_545 S
C638   N655    1.428   .     S
C638   C641    1.419   .     A
C638   C808    1.396   .     S
C639   N661    1.436   .     S
C639   C641    1.411   .     A
C639   C805    1.396   .     S
C640   C642    1.411   .     A
C640   N664    1.436   .     S
C640   C974    1.396   1_545 S
C643   H645    1.082   .     S
C644   H646    1.082   .     S
C644   C1152   1.416   .     S
C647   N667    1.433   .     S
C647   C1147   1.416   .     S
C648   N670    1.433   .     S
N649   H650    1.031   .     S
N649   C651    1.450   .     S
C651   H652    1.110   .     S
C651   H653    1.112   .     S
C651   H654    1.109   .     S
N655   C657    1.450   .     S
N655   H656    1.031   .     S
C657   H659    1.110   .     S
C657   H658    1.110   .     S
C657   H660    1.112   .     S
N661   O662    1.301   .     A
N661   O663    1.300   .     A
N664   O666    1.300   .     A
N664   O665    1.301   .     A
N667   O668    1.298   .     A
N667   O669    1.301   .     A
N670   O672    1.302   .     A
N670   O671    1.298   .     A
O673   C677    1.305   .     A
O673   Cu685   1.982   .     S
O674   C678    1.305   .     A
O674   Cu686   1.982   .     S
O675   C677    1.296   .     A
O675   Cu686   1.980   .     S
O676   C678    1.296   .     A
O676   Cu685   1.980   .     S
C677   C698    1.470   .     S
C678   C697    1.470   .     S
O679   Cu685   1.963   .     S
O679   C683    1.294   .     A
O680   C684    1.294   .     A
O680   Cu686   1.963   .     S
O681   Cu686   1.958   .     S
O681   C683    1.289   .     A
O682   C684    1.289   .     A
O682   Cu685   1.958   .     S
C683   C689    1.431   .     S
C684   C690    1.431   .     S
Cu685  Cu686   2.694   .     S
Cu685  N687    2.025   .     S
Cu686  N688    2.025   .     S
N687   C703    1.389   .     A
N687   C700    1.354   .     A
N688   C699    1.354   .     A
N688   C704    1.389   .     A
C689   C802    1.328   1_455 S
C689   H803    1.085   1_455 S
C690   C745    1.328   .     S
C690   H748    1.085   .     S
H691   C745    1.085   .     S
H692   C802    1.085   1_455 S
C693   C698    1.419   .     A
C693   N705    1.428   .     S
C694   N711    1.428   .     S
C694   C697    1.419   .     A
C694   C864    1.396   .     S
C695   N717    1.436   .     S
C695   C697    1.411   .     A
C695   C861    1.396   .     S
C696   C698    1.411   .     A
C696   N720    1.436   .     S
C699   H701    1.082   .     S
C700   H702    1.082   .     S
C700   C1208   1.416   .     S
C703   N723    1.433   .     S
C703   C1203   1.416   .     S
C704   N726    1.433   .     S
N705   H706    1.031   .     S
N705   C707    1.450   .     S
C707   H708    1.110   .     S
C707   H709    1.112   .     S
C707   H710    1.109   .     S
N711   C713    1.450   .     S
N711   H712    1.031   .     S
C713   H715    1.110   .     S
C713   H714    1.110   .     S
C713   H716    1.112   .     S
N717   O718    1.301   .     A
N717   O719    1.300   .     A
N720   O722    1.300   .     A
N720   O721    1.301   .     A
N723   O724    1.298   .     A
N723   O725    1.301   .     A
N726   O728    1.302   .     A
N726   O727    1.298   .     A
O729   C733    1.305   .     A
O729   Cu741   1.982   .     S
O730   C734    1.305   .     A
O730   Cu742   1.982   .     S
O731   C733    1.296   .     A
O731   Cu742   1.980   .     S
O732   C734    1.296   .     A
O732   Cu741   1.980   .     S
C733   C754    1.470   .     S
C734   C753    1.470   .     S
O735   Cu741   1.963   .     S
O735   C739    1.294   .     A
O736   C740    1.294   .     A
O736   Cu742   1.963   .     S
O737   Cu742   1.958   .     S
O737   C739    1.289   .     A
O738   C740    1.289   .     A
O738   Cu741   1.958   .     S
C739   C745    1.431   .     S
C740   C746    1.431   .     S
Cu741  Cu742   2.694   .     S
Cu741  N743    2.025   .     S
Cu742  N744    2.025   .     S
N743   C759    1.389   .     A
N743   C756    1.354   .     A
N744   C755    1.354   .     A
N744   C760    1.389   .     A
C746   C801    1.328   .     S
C746   H804    1.085   .     S
H747   C801    1.085   .     S
C749   C754    1.419   .     A
C749   N761    1.428   .     S
C750   N767    1.428   .     S
C750   C753    1.419   .     A
C750   C920    1.396   .     S
C751   N773    1.436   .     S
C751   C753    1.411   .     A
C751   C917    1.396   .     S
C752   C754    1.411   .     A
C752   N776    1.436   .     S
C755   H757    1.082   .     S
C756   H758    1.082   .     S
C756   C1264   1.416   .     S
C759   N779    1.433   .     S
C759   C1259   1.416   .     S
C760   N782    1.433   .     S
N761   H762    1.031   .     S
N761   C763    1.450   .     S
C763   H764    1.110   .     S
C763   H765    1.112   .     S
C763   H766    1.109   .     S
N767   C769    1.450   .     S
N767   H768    1.031   .     S
C769   H771    1.110   .     S
C769   H770    1.110   .     S
C769   H772    1.112   .     S
N773   O774    1.301   .     A
N773   O775    1.300   .     A
N776   O778    1.300   .     A
N776   O777    1.301   .     A
N779   O780    1.298   .     A
N779   O781    1.301   .     A
N782   O784    1.302   .     A
N782   O783    1.298   .     A
O785   C789    1.305   .     A
O785   Cu797   1.982   .     S
O786   C790    1.305   .     A
O786   Cu798   1.982   .     S
O787   C789    1.296   .     A
O787   Cu798   1.980   .     S
O788   C790    1.296   .     A
O788   Cu797   1.980   .     S
C789   C810    1.470   .     S
C790   C809    1.470   .     S
O791   Cu797   1.963   .     S
O791   C795    1.294   .     A
O792   C796    1.294   .     A
O792   Cu798   1.963   .     S
O793   Cu798   1.958   .     S
O793   C795    1.289   .     A
O794   C796    1.289   .     A
O794   Cu797   1.958   .     S
C795   C801    1.431   .     S
C796   C802    1.431   .     S
Cu797  Cu798   2.694   .     S
Cu797  N799    2.025   .     S
Cu798  N800    2.025   .     S
N799   C815    1.389   .     A
N799   C812    1.354   .     A
N800   C811    1.354   .     A
N800   C816    1.389   .     A
C802   C689    1.328   1_655 S
C802   H692    1.085   1_655 S
H803   C689    1.085   1_655 S
C805   C810    1.419   .     A
C805   N817    1.428   .     S
C806   N823    1.428   .     S
C806   C809    1.419   .     A
C806   C976    1.396   .     S
C807   N829    1.436   .     S
C807   C809    1.411   .     A
C807   C973    1.396   .     S
C808   C810    1.411   .     A
C808   N832    1.436   .     S
C811   H813    1.082   .     S
C812   H814    1.082   .     S
C812   C1320   1.416   .     S
C815   N835    1.433   .     S
C815   C1315   1.416   .     S
C816   N838    1.433   .     S
N817   H818    1.031   .     S
N817   C819    1.450   .     S
C819   H820    1.110   .     S
C819   H821    1.112   .     S
C819   H822    1.109   .     S
N823   C825    1.450   .     S
N823   H824    1.031   .     S
C825   H827    1.110   .     S
C825   H826    1.110   .     S
C825   H828    1.112   .     S
N829   O830    1.301   .     A
N829   O831    1.300   .     A
N832   O834    1.300   .     A
N832   O833    1.301   .     A
N835   O836    1.298   .     A
N835   O837    1.301   .     A
N838   O840    1.302   .     A
N838   O839    1.298   .     A
O841   C845    1.305   .     A
O841   Cu853   1.982   .     S
O842   C846    1.305   .     A
O842   Cu854   1.982   .     S
O843   C845    1.296   .     A
O843   Cu854   1.980   .     S
O844   C846    1.296   .     A
O844   Cu853   1.980   .     S
C845   C866    1.470   .     S
C846   C865    1.470   .     S
O847   Cu853   1.963   .     S
O847   C851    1.294   .     A
O848   C852    1.294   .     A
O848   Cu854   1.963   .     S
O849   Cu854   1.958   .     S
O849   C851    1.289   .     A
O850   C852    1.289   .     A
O850   Cu853   1.958   .     S
C851   C857    1.431   .     S
C852   C858    1.431   .     S
Cu853  Cu854   2.694   .     S
Cu853  N855    2.025   .     S
Cu854  N856    2.025   .     S
N855   C871    1.389   .     A
N855   C868    1.354   .     A
N856   C867    1.354   .     A
N856   C872    1.389   .     A
C857   C970    1.328   1_455 S
C857   H971    1.085   1_455 S
C858   C913    1.328   .     S
C858   H916    1.085   .     S
H859   C913    1.085   .     S
H860   C970    1.085   1_455 S
C861   C866    1.419   .     A
C861   N873    1.428   .     S
C862   N879    1.428   .     S
C862   C865    1.419   .     A
C862   C528    1.396   1_565 S
C863   N885    1.436   .     S
C863   C865    1.411   .     A
C863   C525    1.396   1_565 S
C864   C866    1.411   .     A
C864   N888    1.436   .     S
C867   H869    1.082   .     S
C868   H870    1.082   .     S
C868   C1376   1.416   .     S
C871   N891    1.433   .     S
C871   C1371   1.416   .     S
C872   N894    1.433   .     S
N873   H874    1.031   .     S
N873   C875    1.450   .     S
C875   H876    1.110   .     S
C875   H877    1.112   .     S
C875   H878    1.109   .     S
N879   C881    1.450   .     S
N879   H880    1.031   .     S
C881   H883    1.110   .     S
C881   H882    1.110   .     S
C881   H884    1.112   .     S
N885   O886    1.301   .     A
N885   O887    1.300   .     A
N888   O890    1.300   .     A
N888   O889    1.301   .     A
N891   O892    1.298   .     A
N891   O893    1.301   .     A
N894   O896    1.302   .     A
N894   O895    1.298   .     A
O897   C901    1.305   .     A
O897   Cu909   1.982   .     S
O898   C902    1.305   .     A
O898   Cu910   1.982   .     S
O899   C901    1.296   .     A
O899   Cu910   1.980   .     S
O900   C902    1.296   .     A
O900   Cu909   1.980   .     S
C901   C922    1.470   .     S
C902   C921    1.470   .     S
O903   Cu909   1.963   .     S
O903   C907    1.294   .     A
O904   C908    1.294   .     A
O904   Cu910   1.963   .     S
O905   Cu910   1.958   .     S
O905   C907    1.289   .     A
O906   C908    1.289   .     A
O906   Cu909   1.958   .     S
C907   C913    1.431   .     S
C908   C914    1.431   .     S
Cu909  Cu910   2.694   .     S
Cu909  N911    2.025   .     S
Cu910  N912    2.025   .     S
N911   C927    1.389   .     A
N911   C924    1.354   .     A
N912   C923    1.354   .     A
N912   C928    1.389   .     A
C914   C969    1.328   .     S
C914   H972    1.085   .     S
H915   C969    1.085   .     S
C917   C922    1.419   .     A
C917   N929    1.428   .     S
C918   N935    1.428   .     S
C918   C921    1.419   .     A
C918   C584    1.396   1_565 S
C919   N941    1.436   .     S
C919   C921    1.411   .     A
C919   C581    1.396   1_565 S
C920   C922    1.411   .     A
C920   N944    1.436   .     S
C923   H925    1.082   .     S
C924   H926    1.082   .     S
C924   C1432   1.416   .     S
C927   N947    1.433   .     S
C927   C1427   1.416   .     S
C928   N950    1.433   .     S
N929   H930    1.031   .     S
N929   C931    1.450   .     S
C931   H932    1.110   .     S
C931   H933    1.112   .     S
C931   H934    1.109   .     S
N935   C937    1.450   .     S
N935   H936    1.031   .     S
C937   H939    1.110   .     S
C937   H938    1.110   .     S
C937   H940    1.112   .     S
N941   O942    1.301   .     A
N941   O943    1.300   .     A
N944   O946    1.300   .     A
N944   O945    1.301   .     A
N947   O948    1.298   .     A
N947   O949    1.301   .     A
N950   O952    1.302   .     A
N950   O951    1.298   .     A
O953   C957    1.305   .     A
O953   Cu965   1.982   .     S
O954   C958    1.305   .     A
O954   Cu966   1.982   .     S
O955   C957    1.296   .     A
O955   Cu966   1.980   .     S
O956   C958    1.296   .     A
O956   Cu965   1.980   .     S
C957   C978    1.470   .     S
C958   C977    1.470   .     S
O959   Cu965   1.963   .     S
O959   C963    1.294   .     A
O960   C964    1.294   .     A
O960   Cu966   1.963   .     S
O961   Cu966   1.958   .     S
O961   C963    1.289   .     A
O962   C964    1.289   .     A
O962   Cu965   1.958   .     S
C963   C969    1.431   .     S
C964   C970    1.431   .     S
Cu965  Cu966   2.694   .     S
Cu965  N967    2.025   .     S
Cu966  N968    2.025   .     S
N967   C983    1.389   .     A
N967   C980    1.354   .     A
N968   C979    1.354   .     A
N968   C984    1.389   .     A
C970   C857    1.328   1_655 S
C970   H860    1.085   1_655 S
H971   C857    1.085   1_655 S
C973   C978    1.419   .     A
C973   N985    1.428   .     S
C974   N991    1.428   .     S
C974   C977    1.419   .     A
C974   C640    1.396   1_565 S
C975   N997    1.436   .     S
C975   C977    1.411   .     A
C975   C637    1.396   1_565 S
C976   C978    1.411   .     A
C976   N1000   1.436   .     S
C979   H981    1.082   .     S
C980   H982    1.082   .     S
C980   C1488   1.416   .     S
C983   N1003   1.433   .     S
C983   C1483   1.416   .     S
C984   N1006   1.433   .     S
N985   H986    1.031   .     S
N985   C987    1.450   .     S
C987   H988    1.110   .     S
C987   H989    1.112   .     S
C987   H990    1.109   .     S
N991   C993    1.450   .     S
N991   H992    1.031   .     S
C993   H995    1.110   .     S
C993   H994    1.110   .     S
C993   H996    1.112   .     S
N997   O998    1.301   .     A
N997   O999    1.300   .     A
N1000  O1002   1.300   .     A
N1000  O1001   1.301   .     A
N1003  O1004   1.298   .     A
N1003  O1005   1.301   .     A
N1006  O1008   1.302   .     A
N1006  O1007   1.298   .     A
O1009  C1013   1.305   .     A
O1009  Cu1021  1.982   .     S
O1010  C1014   1.305   .     A
O1010  Cu1022  1.982   .     S
O1011  C1013   1.296   .     A
O1011  Cu1022  1.980   .     S
O1012  C1014   1.296   .     A
O1012  Cu1021  1.980   .     S
C1013  C1034   1.470   .     S
C1014  C1033   1.470   .     S
O1015  Cu1021  1.963   .     S
O1015  C1019   1.294   .     A
O1016  C1020   1.294   .     A
O1016  Cu1022  1.963   .     S
O1017  Cu1022  1.958   .     S
O1017  C1019   1.289   .     A
O1018  C1020   1.289   .     A
O1018  Cu1021  1.958   .     S
C1019  C1025   1.431   .     S
C1020  C1026   1.431   .     S
Cu1021 Cu1022  2.694   .     S
Cu1021 N1023   2.025   .     S
Cu1022 N1024   2.025   .     S
N1023  C1039   1.389   .     A
N1023  C1036   1.354   .     A
N1024  C1035   1.354   .     A
N1024  C1040   1.389   .     A
C1025  C1138   1.328   1_455 S
C1025  H1139   1.085   1_455 S
C1026  C1081   1.328   .     S
C1026  H1084   1.085   .     S
H1027  C1081   1.085   .     S
H1028  C1138   1.085   1_455 S
C1029  C1034   1.419   .     A
C1029  N1041   1.428   .     S
C1029  C1367   1.396   1_545 S
C1030  N1047   1.428   .     S
C1030  C1033   1.419   .     A
C1030  C1200   1.396   .     S
C1031  N1053   1.436   .     S
C1031  C1033   1.411   .     A
C1031  C1197   1.396   .     S
C1032  C1034   1.411   .     A
C1032  N1056   1.436   .     S
C1032  C1366   1.396   1_545 S
C1035  H1037   1.082   .     S
C1036  H1038   1.082   .     S
C1036  C32     1.416   1_556 S
C1039  N1059   1.433   .     S
C1039  C27     1.416   1_556 S
C1040  N1062   1.433   .     S
N1041  H1042   1.031   .     S
N1041  C1043   1.450   .     S
C1043  H1044   1.110   .     S
C1043  H1045   1.112   .     S
C1043  H1046   1.109   .     S
N1047  C1049   1.450   .     S
N1047  H1048   1.031   .     S
C1049  H1051   1.110   .     S
C1049  H1050   1.110   .     S
C1049  H1052   1.112   .     S
N1053  O1054   1.301   .     A
N1053  O1055   1.300   .     A
N1056  O1058   1.300   .     A
N1056  O1057   1.301   .     A
N1059  O1060   1.298   .     A
N1059  O1061   1.301   .     A
N1062  O1064   1.302   .     A
N1062  O1063   1.298   .     A
O1065  C1069   1.305   .     A
O1065  Cu1077  1.982   .     S
O1066  C1070   1.305   .     A
O1066  Cu1078  1.982   .     S
O1067  C1069   1.296   .     A
O1067  Cu1078  1.980   .     S
O1068  C1070   1.296   .     A
O1068  Cu1077  1.980   .     S
C1069  C1090   1.470   .     S
C1070  C1089   1.470   .     S
O1071  Cu1077  1.963   .     S
O1071  C1075   1.294   .     A
O1072  C1076   1.294   .     A
O1072  Cu1078  1.963   .     S
O1073  Cu1078  1.958   .     S
O1073  C1075   1.289   .     A
O1074  C1076   1.289   .     A
O1074  Cu1077  1.958   .     S
C1075  C1081   1.431   .     S
C1076  C1082   1.431   .     S
Cu1077 Cu1078  2.694   .     S
Cu1077 N1079   2.025   .     S
Cu1078 N1080   2.025   .     S
N1079  C1095   1.389   .     A
N1079  C1092   1.354   .     A
N1080  C1091   1.354   .     A
N1080  C1096   1.389   .     A
C1082  C1137   1.328   .     S
C1082  H1140   1.085   .     S
H1083  C1137   1.085   .     S
C1085  C1090   1.419   .     A
C1085  N1097   1.428   .     S
C1085  C1423   1.396   1_545 S
C1086  N1103   1.428   .     S
C1086  C1089   1.419   .     A
C1086  C1256   1.396   .     S
C1087  N1109   1.436   .     S
C1087  C1089   1.411   .     A
C1087  C1253   1.396   .     S
C1088  C1090   1.411   .     A
C1088  N1112   1.436   .     S
C1088  C1422   1.396   1_545 S
C1091  H1093   1.082   .     S
C1092  H1094   1.082   .     S
C1092  C88     1.416   1_556 S
C1095  N1115   1.433   .     S
C1095  C83     1.416   1_556 S
C1096  N1118   1.433   .     S
N1097  H1098   1.031   .     S
N1097  C1099   1.450   .     S
C1099  H1100   1.110   .     S
C1099  H1101   1.112   .     S
C1099  H1102   1.109   .     S
N1103  C1105   1.450   .     S
N1103  H1104   1.031   .     S
C1105  H1107   1.110   .     S
C1105  H1106   1.110   .     S
C1105  H1108   1.112   .     S
N1109  O1110   1.301   .     A
N1109  O1111   1.300   .     A
N1112  O1114   1.300   .     A
N1112  O1113   1.301   .     A
N1115  O1116   1.298   .     A
N1115  O1117   1.301   .     A
N1118  O1120   1.302   .     A
N1118  O1119   1.298   .     A
O1121  C1125   1.305   .     A
O1121  Cu1133  1.982   .     S
O1122  C1126   1.305   .     A
O1122  Cu1134  1.982   .     S
O1123  C1125   1.296   .     A
O1123  Cu1134  1.980   .     S
O1124  C1126   1.296   .     A
O1124  Cu1133  1.980   .     S
C1125  C1146   1.470   .     S
C1126  C1145   1.470   .     S
O1127  Cu1133  1.963   .     S
O1127  C1131   1.294   .     A
O1128  C1132   1.294   .     A
O1128  Cu1134  1.963   .     S
O1129  Cu1134  1.958   .     S
O1129  C1131   1.289   .     A
O1130  C1132   1.289   .     A
O1130  Cu1133  1.958   .     S
C1131  C1137   1.431   .     S
C1132  C1138   1.431   .     S
Cu1133 Cu1134  2.694   .     S
Cu1133 N1135   2.025   .     S
Cu1134 N1136   2.025   .     S
N1135  C1151   1.389   .     A
N1135  C1148   1.354   .     A
N1136  C1147   1.354   .     A
N1136  C1152   1.389   .     A
C1138  C1025   1.328   1_655 S
C1138  H1028   1.085   1_655 S
H1139  C1025   1.085   1_655 S
C1141  C1146   1.419   .     A
C1141  N1153   1.428   .     S
C1141  C1479   1.396   1_545 S
C1142  N1159   1.428   .     S
C1142  C1145   1.419   .     A
C1142  C1312   1.396   .     S
C1143  N1165   1.436   .     S
C1143  C1145   1.411   .     A
C1143  C1309   1.396   .     S
C1144  C1146   1.411   .     A
C1144  N1168   1.436   .     S
C1144  C1478   1.396   1_545 S
C1147  H1149   1.082   .     S
C1148  H1150   1.082   .     S
C1148  C144    1.416   1_556 S
C1151  N1171   1.433   .     S
C1151  C139    1.416   1_556 S
C1152  N1174   1.433   .     S
N1153  H1154   1.031   .     S
N1153  C1155   1.450   .     S
C1155  H1156   1.110   .     S
C1155  H1157   1.112   .     S
C1155  H1158   1.109   .     S
N1159  C1161   1.450   .     S
N1159  H1160   1.031   .     S
C1161  H1163   1.110   .     S
C1161  H1162   1.110   .     S
C1161  H1164   1.112   .     S
N1165  O1166   1.301   .     A
N1165  O1167   1.300   .     A
N1168  O1170   1.300   .     A
N1168  O1169   1.301   .     A
N1171  O1172   1.298   .     A
N1171  O1173   1.301   .     A
N1174  O1176   1.302   .     A
N1174  O1175   1.298   .     A
O1177  C1181   1.305   .     A
O1177  Cu1189  1.982   .     S
O1178  C1182   1.305   .     A
O1178  Cu1190  1.982   .     S
O1179  C1181   1.296   .     A
O1179  Cu1190  1.980   .     S
O1180  C1182   1.296   .     A
O1180  Cu1189  1.980   .     S
C1181  C1202   1.470   .     S
C1182  C1201   1.470   .     S
O1183  Cu1189  1.963   .     S
O1183  C1187   1.294   .     A
O1184  C1188   1.294   .     A
O1184  Cu1190  1.963   .     S
O1185  Cu1190  1.958   .     S
O1185  C1187   1.289   .     A
O1186  C1188   1.289   .     A
O1186  Cu1189  1.958   .     S
C1187  C1193   1.431   .     S
C1188  C1194   1.431   .     S
Cu1189 Cu1190  2.694   .     S
Cu1189 N1191   2.025   .     S
Cu1190 N1192   2.025   .     S
N1191  C1207   1.389   .     A
N1191  C1204   1.354   .     A
N1192  C1203   1.354   .     A
N1192  C1208   1.389   .     A
C1193  C1306   1.328   1_455 S
C1193  H1307   1.085   1_455 S
C1194  C1249   1.328   .     S
C1194  H1252   1.085   .     S
H1195  C1249   1.085   .     S
H1196  C1306   1.085   1_455 S
C1197  C1202   1.419   .     A
C1197  N1209   1.428   .     S
C1198  N1215   1.428   .     S
C1198  C1201   1.419   .     A
C1198  C1368   1.396   .     S
C1199  N1221   1.436   .     S
C1199  C1201   1.411   .     A
C1199  C1365   1.396   .     S
C1200  C1202   1.411   .     A
C1200  N1224   1.436   .     S
C1203  H1205   1.082   .     S
C1204  H1206   1.082   .     S
C1204  C200    1.416   1_556 S
C1207  N1227   1.433   .     S
C1207  C195    1.416   1_556 S
C1208  N1230   1.433   .     S
N1209  H1210   1.031   .     S
N1209  C1211   1.450   .     S
C1211  H1212   1.110   .     S
C1211  H1213   1.112   .     S
C1211  H1214   1.109   .     S
N1215  C1217   1.450   .     S
N1215  H1216   1.031   .     S
C1217  H1219   1.110   .     S
C1217  H1218   1.110   .     S
C1217  H1220   1.112   .     S
N1221  O1222   1.301   .     A
N1221  O1223   1.300   .     A
N1224  O1226   1.300   .     A
N1224  O1225   1.301   .     A
N1227  O1228   1.298   .     A
N1227  O1229   1.301   .     A
N1230  O1232   1.302   .     A
N1230  O1231   1.298   .     A
O1233  C1237   1.305   .     A
O1233  Cu1245  1.982   .     S
O1234  C1238   1.305   .     A
O1234  Cu1246  1.982   .     S
O1235  C1237   1.296   .     A
O1235  Cu1246  1.980   .     S
O1236  C1238   1.296   .     A
O1236  Cu1245  1.980   .     S
C1237  C1258   1.470   .     S
C1238  C1257   1.470   .     S
O1239  Cu1245  1.963   .     S
O1239  C1243   1.294   .     A
O1240  C1244   1.294   .     A
O1240  Cu1246  1.963   .     S
O1241  Cu1246  1.958   .     S
O1241  C1243   1.289   .     A
O1242  C1244   1.289   .     A
O1242  Cu1245  1.958   .     S
C1243  C1249   1.431   .     S
C1244  C1250   1.431   .     S
Cu1245 Cu1246  2.694   .     S
Cu1245 N1247   2.025   .     S
Cu1246 N1248   2.025   .     S
N1247  C1263   1.389   .     A
N1247  C1260   1.354   .     A
N1248  C1259   1.354   .     A
N1248  C1264   1.389   .     A
C1250  C1305   1.328   .     S
C1250  H1308   1.085   .     S
H1251  C1305   1.085   .     S
C1253  C1258   1.419   .     A
C1253  N1265   1.428   .     S
C1254  N1271   1.428   .     S
C1254  C1257   1.419   .     A
C1254  C1424   1.396   .     S
C1255  N1277   1.436   .     S
C1255  C1257   1.411   .     A
C1255  C1421   1.396   .     S
C1256  C1258   1.411   .     A
C1256  N1280   1.436   .     S
C1259  H1261   1.082   .     S
C1260  H1262   1.082   .     S
C1260  C256    1.416   1_556 S
C1263  N1283   1.433   .     S
C1263  C251    1.416   1_556 S
C1264  N1286   1.433   .     S
N1265  H1266   1.031   .     S
N1265  C1267   1.450   .     S
C1267  H1268   1.110   .     S
C1267  H1269   1.112   .     S
C1267  H1270   1.109   .     S
N1271  C1273   1.450   .     S
N1271  H1272   1.031   .     S
C1273  H1275   1.110   .     S
C1273  H1274   1.110   .     S
C1273  H1276   1.112   .     S
N1277  O1278   1.301   .     A
N1277  O1279   1.300   .     A
N1280  O1282   1.300   .     A
N1280  O1281   1.301   .     A
N1283  O1284   1.298   .     A
N1283  O1285   1.301   .     A
N1286  O1288   1.302   .     A
N1286  O1287   1.298   .     A
O1289  C1293   1.305   .     A
O1289  Cu1301  1.982   .     S
O1290  C1294   1.305   .     A
O1290  Cu1302  1.982   .     S
O1291  C1293   1.296   .     A
O1291  Cu1302  1.980   .     S
O1292  C1294   1.296   .     A
O1292  Cu1301  1.980   .     S
C1293  C1314   1.470   .     S
C1294  C1313   1.470   .     S
O1295  Cu1301  1.963   .     S
O1295  C1299   1.294   .     A
O1296  C1300   1.294   .     A
O1296  Cu1302  1.963   .     S
O1297  Cu1302  1.958   .     S
O1297  C1299   1.289   .     A
O1298  C1300   1.289   .     A
O1298  Cu1301  1.958   .     S
C1299  C1305   1.431   .     S
C1300  C1306   1.431   .     S
Cu1301 Cu1302  2.694   .     S
Cu1301 N1303   2.025   .     S
Cu1302 N1304   2.025   .     S
N1303  C1319   1.389   .     A
N1303  C1316   1.354   .     A
N1304  C1315   1.354   .     A
N1304  C1320   1.389   .     A
C1306  C1193   1.328   1_655 S
C1306  H1196   1.085   1_655 S
H1307  C1193   1.085   1_655 S
C1309  C1314   1.419   .     A
C1309  N1321   1.428   .     S
C1310  N1327   1.428   .     S
C1310  C1313   1.419   .     A
C1310  C1480   1.396   .     S
C1311  N1333   1.436   .     S
C1311  C1313   1.411   .     A
C1311  C1477   1.396   .     S
C1312  C1314   1.411   .     A
C1312  N1336   1.436   .     S
C1315  H1317   1.082   .     S
C1316  H1318   1.082   .     S
C1316  C312    1.416   1_556 S
C1319  N1339   1.433   .     S
C1319  C307    1.416   1_556 S
C1320  N1342   1.433   .     S
N1321  H1322   1.031   .     S
N1321  C1323   1.450   .     S
C1323  H1324   1.110   .     S
C1323  H1325   1.112   .     S
C1323  H1326   1.109   .     S
N1327  C1329   1.450   .     S
N1327  H1328   1.031   .     S
C1329  H1331   1.110   .     S
C1329  H1330   1.110   .     S
C1329  H1332   1.112   .     S
N1333  O1334   1.301   .     A
N1333  O1335   1.300   .     A
N1336  O1338   1.300   .     A
N1336  O1337   1.301   .     A
N1339  O1340   1.298   .     A
N1339  O1341   1.301   .     A
N1342  O1344   1.302   .     A
N1342  O1343   1.298   .     A
O1345  C1349   1.305   .     A
O1345  Cu1357  1.982   .     S
O1346  C1350   1.305   .     A
O1346  Cu1358  1.982   .     S
O1347  C1349   1.296   .     A
O1347  Cu1358  1.980   .     S
O1348  C1350   1.296   .     A
O1348  Cu1357  1.980   .     S
C1349  C1370   1.470   .     S
C1350  C1369   1.470   .     S
O1351  Cu1357  1.963   .     S
O1351  C1355   1.294   .     A
O1352  C1356   1.294   .     A
O1352  Cu1358  1.963   .     S
O1353  Cu1358  1.958   .     S
O1353  C1355   1.289   .     A
O1354  C1356   1.289   .     A
O1354  Cu1357  1.958   .     S
C1355  C1361   1.431   .     S
C1356  C1362   1.431   .     S
Cu1357 Cu1358  2.694   .     S
Cu1357 N1359   2.025   .     S
Cu1358 N1360   2.025   .     S
N1359  C1375   1.389   .     A
N1359  C1372   1.354   .     A
N1360  C1371   1.354   .     A
N1360  C1376   1.389   .     A
C1361  C1474   1.328   1_455 S
C1361  H1475   1.085   1_455 S
C1362  C1417   1.328   .     S
C1362  H1420   1.085   .     S
H1363  C1417   1.085   .     S
H1364  C1474   1.085   1_455 S
C1365  C1370   1.419   .     A
C1365  N1377   1.428   .     S
C1366  N1383   1.428   .     S
C1366  C1369   1.419   .     A
C1366  C1032   1.396   1_565 S
C1367  N1389   1.436   .     S
C1367  C1369   1.411   .     A
C1367  C1029   1.396   1_565 S
C1368  C1370   1.411   .     A
C1368  N1392   1.436   .     S
C1371  H1373   1.082   .     S
C1372  H1374   1.082   .     S
C1372  C368    1.416   1_556 S
C1375  N1395   1.433   .     S
C1375  C363    1.416   1_556 S
C1376  N1398   1.433   .     S
N1377  H1378   1.031   .     S
N1377  C1379   1.450   .     S
C1379  H1380   1.110   .     S
C1379  H1381   1.112   .     S
C1379  H1382   1.109   .     S
N1383  C1385   1.450   .     S
N1383  H1384   1.031   .     S
C1385  H1387   1.110   .     S
C1385  H1386   1.110   .     S
C1385  H1388   1.112   .     S
N1389  O1390   1.301   .     A
N1389  O1391   1.300   .     A
N1392  O1394   1.300   .     A
N1392  O1393   1.301   .     A
N1395  O1396   1.298   .     A
N1395  O1397   1.301   .     A
N1398  O1400   1.302   .     A
N1398  O1399   1.298   .     A
O1401  C1405   1.305   .     A
O1401  Cu1413  1.982   .     S
O1402  C1406   1.305   .     A
O1402  Cu1414  1.982   .     S
O1403  C1405   1.296   .     A
O1403  Cu1414  1.980   .     S
O1404  C1406   1.296   .     A
O1404  Cu1413  1.980   .     S
C1405  C1426   1.470   .     S
C1406  C1425   1.470   .     S
O1407  Cu1413  1.963   .     S
O1407  C1411   1.294   .     A
O1408  C1412   1.294   .     A
O1408  Cu1414  1.963   .     S
O1409  Cu1414  1.958   .     S
O1409  C1411   1.289   .     A
O1410  C1412   1.289   .     A
O1410  Cu1413  1.958   .     S
C1411  C1417   1.431   .     S
C1412  C1418   1.431   .     S
Cu1413 Cu1414  2.694   .     S
Cu1413 N1415   2.025   .     S
Cu1414 N1416   2.025   .     S
N1415  C1431   1.389   .     A
N1415  C1428   1.354   .     A
N1416  C1427   1.354   .     A
N1416  C1432   1.389   .     A
C1418  C1473   1.328   .     S
C1418  H1476   1.085   .     S
H1419  C1473   1.085   .     S
C1421  C1426   1.419   .     A
C1421  N1433   1.428   .     S
C1422  N1439   1.428   .     S
C1422  C1425   1.419   .     A
C1422  C1088   1.396   1_565 S
C1423  N1445   1.436   .     S
C1423  C1425   1.411   .     A
C1423  C1085   1.396   1_565 S
C1424  C1426   1.411   .     A
C1424  N1448   1.436   .     S
C1427  H1429   1.082   .     S
C1428  H1430   1.082   .     S
C1428  C424    1.416   1_556 S
C1431  N1451   1.433   .     S
C1431  C419    1.416   1_556 S
C1432  N1454   1.433   .     S
N1433  H1434   1.031   .     S
N1433  C1435   1.450   .     S
C1435  H1436   1.110   .     S
C1435  H1437   1.112   .     S
C1435  H1438   1.109   .     S
N1439  C1441   1.450   .     S
N1439  H1440   1.031   .     S
C1441  H1443   1.110   .     S
C1441  H1442   1.110   .     S
C1441  H1444   1.112   .     S
N1445  O1446   1.301   .     A
N1445  O1447   1.300   .     A
N1448  O1450   1.300   .     A
N1448  O1449   1.301   .     A
N1451  O1452   1.298   .     A
N1451  O1453   1.301   .     A
N1454  O1456   1.302   .     A
N1454  O1455   1.298   .     A
O1457  C1461   1.305   .     A
O1457  Cu1469  1.982   .     S
O1458  C1462   1.305   .     A
O1458  Cu1470  1.982   .     S
O1459  C1461   1.296   .     A
O1459  Cu1470  1.980   .     S
O1460  C1462   1.296   .     A
O1460  Cu1469  1.980   .     S
C1461  C1482   1.470   .     S
C1462  C1481   1.470   .     S
O1463  Cu1469  1.963   .     S
O1463  C1467   1.294   .     A
O1464  C1468   1.294   .     A
O1464  Cu1470  1.963   .     S
O1465  Cu1470  1.958   .     S
O1465  C1467   1.289   .     A
O1466  C1468   1.289   .     A
O1466  Cu1469  1.958   .     S
C1467  C1473   1.431   .     S
C1468  C1474   1.431   .     S
Cu1469 Cu1470  2.694   .     S
Cu1469 N1471   2.025   .     S
Cu1470 N1472   2.025   .     S
N1471  C1487   1.389   .     A
N1471  C1484   1.354   .     A
N1472  C1483   1.354   .     A
N1472  C1488   1.389   .     A
C1474  C1361   1.328   1_655 S
C1474  H1364   1.085   1_655 S
H1475  C1361   1.085   1_655 S
C1477  C1482   1.419   .     A
C1477  N1489   1.428   .     S
C1478  N1495   1.428   .     S
C1478  C1481   1.419   .     A
C1478  C1144   1.396   1_565 S
C1479  N1501   1.436   .     S
C1479  C1481   1.411   .     A
C1479  C1141   1.396   1_565 S
C1480  C1482   1.411   .     A
C1480  N1504   1.436   .     S
C1483  H1485   1.082   .     S
C1484  H1486   1.082   .     S
C1484  C480    1.416   1_556 S
C1487  N1507   1.433   .     S
C1487  C475    1.416   1_556 S
C1488  N1510   1.433   .     S
N1489  H1490   1.031   .     S
N1489  C1491   1.450   .     S
C1491  H1492   1.110   .     S
C1491  H1493   1.112   .     S
C1491  H1494   1.109   .     S
N1495  C1497   1.450   .     S
N1495  H1496   1.031   .     S
C1497  H1499   1.110   .     S
C1497  H1498   1.110   .     S
C1497  H1500   1.112   .     S
N1501  O1502   1.301   .     A
N1501  O1503   1.300   .     A
N1504  O1506   1.300   .     A
N1504  O1505   1.301   .     A
N1507  O1508   1.298   .     A
N1507  O1509   1.301   .     A
N1510  O1512   1.302   .     A
N1510  O1511   1.298   .     A
