data_str_m2_o10_o17_pcu_sym.174
_audit_creation_date              2020-01-03
_audit_creation_method            'Materials Studio'
_symmetry_space_group_name_H-M    'P1'
_symmetry_Int_Tables_number       1
_symmetry_cell_setting            triclinic
loop_
_symmetry_equiv_pos_as_xyz
  x,y,z
_cell_length_a                    29.8971
_cell_length_b                    26.0029
_cell_length_c                    22.5338
_cell_angle_alpha                 102.9597
_cell_angle_beta                  94.5378
_cell_angle_gamma                 93.3105
loop_
_atom_site_label
_atom_site_type_symbol
_atom_site_fract_x
_atom_site_fract_y
_atom_site_fract_z
_atom_site_U_iso_or_equiv
_atom_site_adp_type
_atom_site_occupancy
C1     C     0.24811   0.06663   0.15113   0.00000  Uiso   1.00
C2     C     0.25123   0.26669   0.18226   0.00000  Uiso   1.00
C3     C     0.01486   0.07406   0.10974   0.00000  Uiso   1.00
C4     C     0.48514   0.25987   0.22297   0.00000  Uiso   1.00
C5     C     0.24631   0.01054   0.14265   0.00000  Uiso   1.00
C6     C     0.25187   0.32278   0.19097   0.00000  Uiso   1.00
C7     C     0.16463   0.16658   0.16725   0.00000  Uiso   1.00
C8     C     0.33538   0.16698   0.16609   0.00000  Uiso   1.00
C9     C     0.41035   0.21305   0.19436   0.00000  Uiso   1.00
C10    C     0.08962   0.12087   0.13838   0.00000  Uiso   1.00
C11    C     0.38349   0.16744   0.16480   0.00000  Uiso   1.00
C12    C     0.11651   0.16629   0.16842   0.00000  Uiso   1.00
C13    C     0.40238   0.12203   0.13521   0.00000  Uiso   1.00
C14    C     0.09766   0.21170   0.19813   0.00000  Uiso   1.00
C15    C     0.44896   0.12134   0.13626   0.00000  Uiso   1.00
C16    C     0.05106   0.21249   0.19679   0.00000  Uiso   1.00
C17    C     0.47654   0.16731   0.16597   0.00000  Uiso   1.00
C18    C     0.02346   0.16657   0.16693   0.00000  Uiso   1.00
C19    C     0.45717   0.21394   0.19466   0.00000  Uiso   1.00
C20    C     0.04282   0.11998   0.13810   0.00000  Uiso   1.00
C21    C     0.46824   0.07521   0.10874   0.00000  Uiso   1.00
C22    C     0.03177   0.25865   0.22419   0.00000  Uiso   1.00
Cu23   Cu    0.25501   0.17246   0.22813   0.00000  Uiso   1.00
Cu24   Cu    0.24500   0.16087   0.10521   0.00000  Uiso   1.00
H25    H     0.39419   0.24745   0.21664   0.00000  Uiso   1.00
H26    H     0.10576   0.08654   0.11588   0.00000  Uiso   1.00
H27    H     0.38076   0.08699   0.11279   0.00000  Uiso   1.00
H28    H     0.11930   0.24667   0.22080   0.00000  Uiso   1.00
H29    H     0.44701   0.03977   0.08672   0.00000  Uiso   1.00
H30    H     0.05300   0.29407   0.24627   0.00000  Uiso   1.00
H31    H     0.24053   0.31982   0.09624   0.00000  Uiso   1.00
H32    H     0.25729   0.01348   0.23748   0.00000  Uiso   1.00
N33    N     0.23745   0.15214   0.01284   0.00000  Uiso   1.00
N34    N     0.26256   0.18119   0.32049   0.00000  Uiso   1.00
O35    O     0.25326   0.09538   0.20659   0.00000  Uiso   1.00
O36    O     0.24675   0.23796   0.12674   0.00000  Uiso   1.00
O37    O     0.24480   0.08559   0.10279   0.00000  Uiso   1.00
O38    O     0.25520   0.24774   0.23055   0.00000  Uiso   1.00
O39    O     0.18936   0.17155   0.21857   0.00000  Uiso   1.00
O40    O     0.31065   0.16179   0.11476   0.00000  Uiso   1.00
O41    O     0.18090   0.16176   0.11477   0.00000  Uiso   1.00
O42    O     0.31910   0.17157   0.21857   0.00000  Uiso   1.00
Br43   Br    0.03819   0.00816   0.07308   0.00000  Uiso   1.00
Br44   Br    0.46183   0.32586   0.25935   0.00000  Uiso   1.00
O45    O     0.21419   0.11148   0.30550   0.00000  Uiso   1.00
C46    C     0.17265   0.10047   0.32672   0.00000  Uiso   1.00
H47    H     0.15423   0.13692   0.00453   0.00000  Uiso   1.00
H48    H     0.17728   0.08215   0.03308   0.00000  Uiso   1.00
C49    C     0.14394   0.06055   0.27635   0.00000  Uiso   1.00
H50    H     0.16094   0.02323   0.26420   0.00000  Uiso   1.00
H51    H     0.11075   0.05169   0.29227   0.00000  Uiso   1.00
H52    H     0.13852   0.07676   0.23502   0.00000  Uiso   1.00
O53    O     0.29754   0.20776   0.02542   0.00000  Uiso   1.00
C54    C     0.30824   0.25606   0.00998   0.00000  Uiso   1.00
H55    H     0.27797   0.27884   0.00843   0.00000  Uiso   1.00
H56    H     0.32360   0.24976   0.29944   0.00000  Uiso   1.00
C57    C     0.34305   0.28891   0.05880   0.00000  Uiso   1.00
H58    H     0.37427   0.26790   0.06066   0.00000  Uiso   1.00
H59    H     0.35133   0.32770   0.04781   0.00000  Uiso   1.00
H60    H     0.32977   0.29582   0.10432   0.00000  Uiso   1.00
C61    C     0.74811   0.06663   0.15113   0.00000  Uiso   1.00
C62    C     0.75123   0.26669   0.18226   0.00000  Uiso   1.00
C63    C     0.51486   0.07406   0.10974   0.00000  Uiso   1.00
C64    C     0.98514   0.25987   0.22297   0.00000  Uiso   1.00
C65    C     0.74631   0.01054   0.14265   0.00000  Uiso   1.00
C66    C     0.75187   0.32278   0.19097   0.00000  Uiso   1.00
C67    C     0.66463   0.16658   0.16725   0.00000  Uiso   1.00
C68    C     0.83538   0.16698   0.16609   0.00000  Uiso   1.00
C69    C     0.91035   0.21305   0.19436   0.00000  Uiso   1.00
C70    C     0.58962   0.12087   0.13838   0.00000  Uiso   1.00
C71    C     0.88349   0.16744   0.16480   0.00000  Uiso   1.00
C72    C     0.61651   0.16629   0.16842   0.00000  Uiso   1.00
C73    C     0.90238   0.12203   0.13521   0.00000  Uiso   1.00
C74    C     0.59766   0.21170   0.19813   0.00000  Uiso   1.00
C75    C     0.94896   0.12134   0.13626   0.00000  Uiso   1.00
C76    C     0.55106   0.21249   0.19679   0.00000  Uiso   1.00
C77    C     0.97654   0.16731   0.16597   0.00000  Uiso   1.00
C78    C     0.52346   0.16657   0.16693   0.00000  Uiso   1.00
C79    C     0.95717   0.21394   0.19466   0.00000  Uiso   1.00
C80    C     0.54282   0.11998   0.13810   0.00000  Uiso   1.00
C81    C     0.96824   0.07521   0.10874   0.00000  Uiso   1.00
C82    C     0.53177   0.25865   0.22419   0.00000  Uiso   1.00
Cu83   Cu    0.75501   0.17246   0.22813   0.00000  Uiso   1.00
Cu84   Cu    0.74500   0.16087   0.10521   0.00000  Uiso   1.00
H85    H     0.89419   0.24745   0.21664   0.00000  Uiso   1.00
H86    H     0.60576   0.08654   0.11588   0.00000  Uiso   1.00
H87    H     0.88076   0.08699   0.11279   0.00000  Uiso   1.00
H88    H     0.61930   0.24667   0.22080   0.00000  Uiso   1.00
H89    H     0.94701   0.03977   0.08672   0.00000  Uiso   1.00
H90    H     0.55300   0.29407   0.24627   0.00000  Uiso   1.00
H91    H     0.74053   0.31982   0.09624   0.00000  Uiso   1.00
H92    H     0.75729   0.01348   0.23748   0.00000  Uiso   1.00
N93    N     0.73745   0.15214   0.01284   0.00000  Uiso   1.00
N94    N     0.76256   0.18119   0.32049   0.00000  Uiso   1.00
O95    O     0.75326   0.09538   0.20659   0.00000  Uiso   1.00
O96    O     0.74675   0.23796   0.12674   0.00000  Uiso   1.00
O97    O     0.74480   0.08559   0.10279   0.00000  Uiso   1.00
O98    O     0.75520   0.24774   0.23055   0.00000  Uiso   1.00
O99    O     0.68936   0.17155   0.21857   0.00000  Uiso   1.00
O100   O     0.81065   0.16179   0.11476   0.00000  Uiso   1.00
O101   O     0.68090   0.16176   0.11477   0.00000  Uiso   1.00
O102   O     0.81910   0.17157   0.21857   0.00000  Uiso   1.00
Br103  Br    0.53819   0.00816   0.07308   0.00000  Uiso   1.00
Br104  Br    0.96183   0.32586   0.25935   0.00000  Uiso   1.00
O105   O     0.71419   0.11148   0.30550   0.00000  Uiso   1.00
C106   C     0.67265   0.10047   0.32672   0.00000  Uiso   1.00
H107   H     0.65423   0.13692   0.00453   0.00000  Uiso   1.00
H108   H     0.67728   0.08215   0.03308   0.00000  Uiso   1.00
C109   C     0.64394   0.06055   0.27635   0.00000  Uiso   1.00
H110   H     0.66094   0.02323   0.26420   0.00000  Uiso   1.00
H111   H     0.61075   0.05169   0.29227   0.00000  Uiso   1.00
H112   H     0.63852   0.07676   0.23502   0.00000  Uiso   1.00
O113   O     0.79754   0.20776   0.02542   0.00000  Uiso   1.00
C114   C     0.80824   0.25606   0.00998   0.00000  Uiso   1.00
H115   H     0.77797   0.27884   0.00843   0.00000  Uiso   1.00
H116   H     0.82360   0.24976   0.29944   0.00000  Uiso   1.00
C117   C     0.84305   0.28891   0.05880   0.00000  Uiso   1.00
H118   H     0.87427   0.26790   0.06066   0.00000  Uiso   1.00
H119   H     0.85133   0.32770   0.04781   0.00000  Uiso   1.00
H120   H     0.82977   0.29582   0.10432   0.00000  Uiso   1.00
C121   C     0.24811   0.39996   0.15113   0.00000  Uiso   1.00
C122   C     0.25123   0.60002   0.18226   0.00000  Uiso   1.00
C123   C     0.01486   0.40740   0.10974   0.00000  Uiso   1.00
C124   C     0.48514   0.59320   0.22297   0.00000  Uiso   1.00
C125   C     0.24631   0.34387   0.14265   0.00000  Uiso   1.00
C126   C     0.25187   0.65611   0.19097   0.00000  Uiso   1.00
C127   C     0.16463   0.49991   0.16725   0.00000  Uiso   1.00
C128   C     0.33538   0.50031   0.16609   0.00000  Uiso   1.00
C129   C     0.41035   0.54638   0.19436   0.00000  Uiso   1.00
C130   C     0.08962   0.45420   0.13838   0.00000  Uiso   1.00
C131   C     0.38349   0.50078   0.16480   0.00000  Uiso   1.00
C132   C     0.11651   0.49963   0.16842   0.00000  Uiso   1.00
C133   C     0.40238   0.45536   0.13521   0.00000  Uiso   1.00
C134   C     0.09766   0.54503   0.19813   0.00000  Uiso   1.00
C135   C     0.44896   0.45467   0.13626   0.00000  Uiso   1.00
C136   C     0.05106   0.54582   0.19679   0.00000  Uiso   1.00
C137   C     0.47654   0.50064   0.16597   0.00000  Uiso   1.00
C138   C     0.02346   0.49990   0.16693   0.00000  Uiso   1.00
C139   C     0.45717   0.54727   0.19466   0.00000  Uiso   1.00
C140   C     0.04282   0.45332   0.13810   0.00000  Uiso   1.00
C141   C     0.46824   0.40854   0.10874   0.00000  Uiso   1.00
C142   C     0.03177   0.59199   0.22419   0.00000  Uiso   1.00
Cu143  Cu    0.25501   0.50579   0.22813   0.00000  Uiso   1.00
Cu144  Cu    0.24500   0.49421   0.10521   0.00000  Uiso   1.00
H145   H     0.39419   0.58078   0.21664   0.00000  Uiso   1.00
H146   H     0.10576   0.41987   0.11588   0.00000  Uiso   1.00
H147   H     0.38076   0.42033   0.11279   0.00000  Uiso   1.00
H148   H     0.11930   0.58000   0.22080   0.00000  Uiso   1.00
H149   H     0.44701   0.37310   0.08672   0.00000  Uiso   1.00
H150   H     0.05300   0.62740   0.24627   0.00000  Uiso   1.00
H151   H     0.24053   0.65315   0.09624   0.00000  Uiso   1.00
H152   H     0.25729   0.34681   0.23748   0.00000  Uiso   1.00
N153   N     0.23745   0.48547   0.01284   0.00000  Uiso   1.00
N154   N     0.26256   0.51453   0.32049   0.00000  Uiso   1.00
O155   O     0.25326   0.42871   0.20659   0.00000  Uiso   1.00
O156   O     0.24675   0.57129   0.12674   0.00000  Uiso   1.00
O157   O     0.24480   0.41892   0.10279   0.00000  Uiso   1.00
O158   O     0.25520   0.58108   0.23055   0.00000  Uiso   1.00
O159   O     0.18936   0.50488   0.21857   0.00000  Uiso   1.00
O160   O     0.31065   0.49512   0.11476   0.00000  Uiso   1.00
O161   O     0.18090   0.49510   0.11477   0.00000  Uiso   1.00
O162   O     0.31910   0.50490   0.21857   0.00000  Uiso   1.00
Br163  Br    0.03819   0.34150   0.07308   0.00000  Uiso   1.00
Br164  Br    0.46183   0.65919   0.25935   0.00000  Uiso   1.00
O165   O     0.21419   0.44481   0.30550   0.00000  Uiso   1.00
C166   C     0.17265   0.43381   0.32672   0.00000  Uiso   1.00
H167   H     0.15423   0.47025   0.00453   0.00000  Uiso   1.00
H168   H     0.17728   0.41548   0.03308   0.00000  Uiso   1.00
C169   C     0.14394   0.39388   0.27635   0.00000  Uiso   1.00
H170   H     0.16094   0.35657   0.26420   0.00000  Uiso   1.00
H171   H     0.11075   0.38502   0.29227   0.00000  Uiso   1.00
H172   H     0.13852   0.41010   0.23502   0.00000  Uiso   1.00
O173   O     0.29754   0.54110   0.02542   0.00000  Uiso   1.00
C174   C     0.30824   0.58940   0.00998   0.00000  Uiso   1.00
H175   H     0.27797   0.61217   0.00843   0.00000  Uiso   1.00
H176   H     0.32360   0.58309   0.29944   0.00000  Uiso   1.00
C177   C     0.34305   0.62224   0.05880   0.00000  Uiso   1.00
H178   H     0.37427   0.60123   0.06066   0.00000  Uiso   1.00
H179   H     0.35133   0.66103   0.04781   0.00000  Uiso   1.00
H180   H     0.32977   0.62916   0.10432   0.00000  Uiso   1.00
C181   C     0.74811   0.39996   0.15113   0.00000  Uiso   1.00
C182   C     0.75123   0.60002   0.18226   0.00000  Uiso   1.00
C183   C     0.51486   0.40740   0.10974   0.00000  Uiso   1.00
C184   C     0.98514   0.59320   0.22297   0.00000  Uiso   1.00
C185   C     0.74631   0.34387   0.14265   0.00000  Uiso   1.00
C186   C     0.75187   0.65611   0.19097   0.00000  Uiso   1.00
C187   C     0.66463   0.49991   0.16725   0.00000  Uiso   1.00
C188   C     0.83538   0.50031   0.16609   0.00000  Uiso   1.00
C189   C     0.91035   0.54638   0.19436   0.00000  Uiso   1.00
C190   C     0.58962   0.45420   0.13838   0.00000  Uiso   1.00
C191   C     0.88349   0.50078   0.16480   0.00000  Uiso   1.00
C192   C     0.61651   0.49963   0.16842   0.00000  Uiso   1.00
C193   C     0.90238   0.45536   0.13521   0.00000  Uiso   1.00
C194   C     0.59766   0.54503   0.19813   0.00000  Uiso   1.00
C195   C     0.94896   0.45467   0.13626   0.00000  Uiso   1.00
C196   C     0.55106   0.54582   0.19679   0.00000  Uiso   1.00
C197   C     0.97654   0.50064   0.16597   0.00000  Uiso   1.00
C198   C     0.52346   0.49990   0.16693   0.00000  Uiso   1.00
C199   C     0.95717   0.54727   0.19466   0.00000  Uiso   1.00
C200   C     0.54282   0.45332   0.13810   0.00000  Uiso   1.00
C201   C     0.96824   0.40854   0.10874   0.00000  Uiso   1.00
C202   C     0.53177   0.59199   0.22419   0.00000  Uiso   1.00
Cu203  Cu    0.75501   0.50579   0.22813   0.00000  Uiso   1.00
Cu204  Cu    0.74500   0.49421   0.10521   0.00000  Uiso   1.00
H205   H     0.89419   0.58078   0.21664   0.00000  Uiso   1.00
H206   H     0.60576   0.41987   0.11588   0.00000  Uiso   1.00
H207   H     0.88076   0.42033   0.11279   0.00000  Uiso   1.00
H208   H     0.61930   0.58000   0.22080   0.00000  Uiso   1.00
H209   H     0.94701   0.37310   0.08672   0.00000  Uiso   1.00
H210   H     0.55300   0.62740   0.24627   0.00000  Uiso   1.00
H211   H     0.74053   0.65315   0.09624   0.00000  Uiso   1.00
H212   H     0.75729   0.34681   0.23748   0.00000  Uiso   1.00
N213   N     0.73745   0.48547   0.01284   0.00000  Uiso   1.00
N214   N     0.76256   0.51453   0.32049   0.00000  Uiso   1.00
O215   O     0.75326   0.42871   0.20659   0.00000  Uiso   1.00
O216   O     0.74675   0.57129   0.12674   0.00000  Uiso   1.00
O217   O     0.74480   0.41892   0.10279   0.00000  Uiso   1.00
O218   O     0.75520   0.58108   0.23055   0.00000  Uiso   1.00
O219   O     0.68936   0.50488   0.21857   0.00000  Uiso   1.00
O220   O     0.81065   0.49512   0.11476   0.00000  Uiso   1.00
O221   O     0.68090   0.49510   0.11477   0.00000  Uiso   1.00
O222   O     0.81910   0.50490   0.21857   0.00000  Uiso   1.00
Br223  Br    0.53819   0.34150   0.07308   0.00000  Uiso   1.00
Br224  Br    0.96183   0.65919   0.25935   0.00000  Uiso   1.00
O225   O     0.71419   0.44481   0.30550   0.00000  Uiso   1.00
C226   C     0.67265   0.43381   0.32672   0.00000  Uiso   1.00
H227   H     0.65423   0.47025   0.00453   0.00000  Uiso   1.00
H228   H     0.67728   0.41548   0.03308   0.00000  Uiso   1.00
C229   C     0.64394   0.39388   0.27635   0.00000  Uiso   1.00
H230   H     0.66094   0.35657   0.26420   0.00000  Uiso   1.00
H231   H     0.61075   0.38502   0.29227   0.00000  Uiso   1.00
H232   H     0.63852   0.41010   0.23502   0.00000  Uiso   1.00
O233   O     0.79754   0.54110   0.02542   0.00000  Uiso   1.00
C234   C     0.80824   0.58940   0.00998   0.00000  Uiso   1.00
H235   H     0.77797   0.61217   0.00843   0.00000  Uiso   1.00
H236   H     0.82360   0.58309   0.29944   0.00000  Uiso   1.00
C237   C     0.84305   0.62224   0.05880   0.00000  Uiso   1.00
H238   H     0.87427   0.60123   0.06066   0.00000  Uiso   1.00
H239   H     0.85133   0.66103   0.04781   0.00000  Uiso   1.00
H240   H     0.82977   0.62916   0.10432   0.00000  Uiso   1.00
C241   C     0.24811   0.73330   0.15113   0.00000  Uiso   1.00
C242   C     0.25123   0.93336   0.18226   0.00000  Uiso   1.00
C243   C     0.01486   0.74073   0.10974   0.00000  Uiso   1.00
C244   C     0.48514   0.92654   0.22297   0.00000  Uiso   1.00
C245   C     0.24631   0.67720   0.14265   0.00000  Uiso   1.00
C246   C     0.25187   0.98944   0.19097   0.00000  Uiso   1.00
C247   C     0.16463   0.83325   0.16725   0.00000  Uiso   1.00
C248   C     0.33538   0.83364   0.16609   0.00000  Uiso   1.00
C249   C     0.41035   0.87972   0.19436   0.00000  Uiso   1.00
C250   C     0.08962   0.78754   0.13838   0.00000  Uiso   1.00
C251   C     0.38349   0.83411   0.16480   0.00000  Uiso   1.00
C252   C     0.11651   0.83296   0.16842   0.00000  Uiso   1.00
C253   C     0.40238   0.78869   0.13521   0.00000  Uiso   1.00
C254   C     0.09766   0.87837   0.19813   0.00000  Uiso   1.00
C255   C     0.44896   0.78801   0.13626   0.00000  Uiso   1.00
C256   C     0.05106   0.87915   0.19679   0.00000  Uiso   1.00
C257   C     0.47654   0.83398   0.16597   0.00000  Uiso   1.00
C258   C     0.02346   0.83324   0.16693   0.00000  Uiso   1.00
C259   C     0.45717   0.88060   0.19466   0.00000  Uiso   1.00
C260   C     0.04282   0.78665   0.13810   0.00000  Uiso   1.00
C261   C     0.46824   0.74187   0.10874   0.00000  Uiso   1.00
C262   C     0.03177   0.92532   0.22419   0.00000  Uiso   1.00
Cu263  Cu    0.25501   0.83913   0.22813   0.00000  Uiso   1.00
Cu264  Cu    0.24500   0.82754   0.10521   0.00000  Uiso   1.00
H265   H     0.39419   0.91411   0.21664   0.00000  Uiso   1.00
H266   H     0.10576   0.75320   0.11588   0.00000  Uiso   1.00
H267   H     0.38076   0.75366   0.11279   0.00000  Uiso   1.00
H268   H     0.11930   0.91333   0.22080   0.00000  Uiso   1.00
H269   H     0.44701   0.70644   0.08672   0.00000  Uiso   1.00
H270   H     0.05300   0.96074   0.24627   0.00000  Uiso   1.00
H271   H     0.24053   0.98649   0.09624   0.00000  Uiso   1.00
H272   H     0.25729   0.68014   0.23748   0.00000  Uiso   1.00
N273   N     0.23745   0.81881   0.01284   0.00000  Uiso   1.00
N274   N     0.26256   0.84786   0.32049   0.00000  Uiso   1.00
O275   O     0.25326   0.76204   0.20659   0.00000  Uiso   1.00
O276   O     0.24675   0.90462   0.12674   0.00000  Uiso   1.00
O277   O     0.24480   0.75226   0.10279   0.00000  Uiso   1.00
O278   O     0.25520   0.91441   0.23055   0.00000  Uiso   1.00
O279   O     0.18936   0.83821   0.21857   0.00000  Uiso   1.00
O280   O     0.31065   0.82845   0.11476   0.00000  Uiso   1.00
O281   O     0.18090   0.82843   0.11477   0.00000  Uiso   1.00
O282   O     0.31910   0.83824   0.21857   0.00000  Uiso   1.00
Br283  Br    0.03819   0.67483   0.07308   0.00000  Uiso   1.00
Br284  Br    0.46183   0.99252   0.25935   0.00000  Uiso   1.00
O285   O     0.21419   0.77815   0.30550   0.00000  Uiso   1.00
C286   C     0.17265   0.76714   0.32672   0.00000  Uiso   1.00
H287   H     0.15423   0.80358   0.00453   0.00000  Uiso   1.00
H288   H     0.17728   0.74881   0.03308   0.00000  Uiso   1.00
C289   C     0.14394   0.72721   0.27635   0.00000  Uiso   1.00
H290   H     0.16094   0.68990   0.26420   0.00000  Uiso   1.00
H291   H     0.11075   0.71836   0.29227   0.00000  Uiso   1.00
H292   H     0.13852   0.74343   0.23502   0.00000  Uiso   1.00
O293   O     0.29754   0.87443   0.02542   0.00000  Uiso   1.00
C294   C     0.30824   0.92273   0.00998   0.00000  Uiso   1.00
H295   H     0.27797   0.94550   0.00843   0.00000  Uiso   1.00
H296   H     0.32360   0.91643   0.29944   0.00000  Uiso   1.00
C297   C     0.34305   0.95558   0.05880   0.00000  Uiso   1.00
H298   H     0.37427   0.93457   0.06066   0.00000  Uiso   1.00
H299   H     0.35133   0.99437   0.04781   0.00000  Uiso   1.00
H300   H     0.32977   0.96249   0.10432   0.00000  Uiso   1.00
C301   C     0.74811   0.73330   0.15113   0.00000  Uiso   1.00
C302   C     0.75123   0.93336   0.18226   0.00000  Uiso   1.00
C303   C     0.51486   0.74073   0.10974   0.00000  Uiso   1.00
C304   C     0.98514   0.92654   0.22297   0.00000  Uiso   1.00
C305   C     0.74631   0.67720   0.14265   0.00000  Uiso   1.00
C306   C     0.75187   0.98944   0.19097   0.00000  Uiso   1.00
C307   C     0.66463   0.83325   0.16725   0.00000  Uiso   1.00
C308   C     0.83538   0.83364   0.16609   0.00000  Uiso   1.00
C309   C     0.91035   0.87972   0.19436   0.00000  Uiso   1.00
C310   C     0.58962   0.78754   0.13838   0.00000  Uiso   1.00
C311   C     0.88349   0.83411   0.16480   0.00000  Uiso   1.00
C312   C     0.61651   0.83296   0.16842   0.00000  Uiso   1.00
C313   C     0.90238   0.78869   0.13521   0.00000  Uiso   1.00
C314   C     0.59766   0.87837   0.19813   0.00000  Uiso   1.00
C315   C     0.94896   0.78801   0.13626   0.00000  Uiso   1.00
C316   C     0.55106   0.87915   0.19679   0.00000  Uiso   1.00
C317   C     0.97654   0.83398   0.16597   0.00000  Uiso   1.00
C318   C     0.52346   0.83324   0.16693   0.00000  Uiso   1.00
C319   C     0.95717   0.88060   0.19466   0.00000  Uiso   1.00
C320   C     0.54282   0.78665   0.13810   0.00000  Uiso   1.00
C321   C     0.96824   0.74187   0.10874   0.00000  Uiso   1.00
C322   C     0.53177   0.92532   0.22419   0.00000  Uiso   1.00
Cu323  Cu    0.75501   0.83913   0.22813   0.00000  Uiso   1.00
Cu324  Cu    0.74500   0.82754   0.10521   0.00000  Uiso   1.00
H325   H     0.89419   0.91411   0.21664   0.00000  Uiso   1.00
H326   H     0.60576   0.75320   0.11588   0.00000  Uiso   1.00
H327   H     0.88076   0.75366   0.11279   0.00000  Uiso   1.00
H328   H     0.61930   0.91333   0.22080   0.00000  Uiso   1.00
H329   H     0.94701   0.70644   0.08672   0.00000  Uiso   1.00
H330   H     0.55300   0.96074   0.24627   0.00000  Uiso   1.00
H331   H     0.74053   0.98649   0.09624   0.00000  Uiso   1.00
H332   H     0.75729   0.68014   0.23748   0.00000  Uiso   1.00
N333   N     0.73745   0.81881   0.01284   0.00000  Uiso   1.00
N334   N     0.76256   0.84786   0.32049   0.00000  Uiso   1.00
O335   O     0.75326   0.76204   0.20659   0.00000  Uiso   1.00
O336   O     0.74675   0.90462   0.12674   0.00000  Uiso   1.00
O337   O     0.74480   0.75226   0.10279   0.00000  Uiso   1.00
O338   O     0.75520   0.91441   0.23055   0.00000  Uiso   1.00
O339   O     0.68936   0.83821   0.21857   0.00000  Uiso   1.00
O340   O     0.81065   0.82845   0.11476   0.00000  Uiso   1.00
O341   O     0.68090   0.82843   0.11477   0.00000  Uiso   1.00
O342   O     0.81910   0.83824   0.21857   0.00000  Uiso   1.00
Br343  Br    0.53819   0.67483   0.07308   0.00000  Uiso   1.00
Br344  Br    0.96183   0.99252   0.25935   0.00000  Uiso   1.00
O345   O     0.71419   0.77815   0.30550   0.00000  Uiso   1.00
C346   C     0.67265   0.76714   0.32672   0.00000  Uiso   1.00
H347   H     0.65423   0.80358   0.00453   0.00000  Uiso   1.00
H348   H     0.67728   0.74881   0.03308   0.00000  Uiso   1.00
C349   C     0.64394   0.72721   0.27635   0.00000  Uiso   1.00
H350   H     0.66094   0.68990   0.26420   0.00000  Uiso   1.00
H351   H     0.61075   0.71836   0.29227   0.00000  Uiso   1.00
H352   H     0.63852   0.74343   0.23502   0.00000  Uiso   1.00
O353   O     0.79754   0.87443   0.02542   0.00000  Uiso   1.00
C354   C     0.80824   0.92273   0.00998   0.00000  Uiso   1.00
H355   H     0.77797   0.94550   0.00843   0.00000  Uiso   1.00
H356   H     0.82360   0.91643   0.29944   0.00000  Uiso   1.00
C357   C     0.84305   0.95558   0.05880   0.00000  Uiso   1.00
H358   H     0.87427   0.93457   0.06066   0.00000  Uiso   1.00
H359   H     0.85133   0.99437   0.04781   0.00000  Uiso   1.00
H360   H     0.82977   0.96249   0.10432   0.00000  Uiso   1.00
C361   C     0.24811   0.06663   0.48447   0.00000  Uiso   1.00
C362   C     0.25123   0.26669   0.51559   0.00000  Uiso   1.00
C363   C     0.01486   0.07406   0.44307   0.00000  Uiso   1.00
C364   C     0.48514   0.25987   0.55630   0.00000  Uiso   1.00
C365   C     0.24631   0.01054   0.47598   0.00000  Uiso   1.00
C366   C     0.25187   0.32278   0.52430   0.00000  Uiso   1.00
C367   C     0.16463   0.16658   0.50059   0.00000  Uiso   1.00
C368   C     0.33538   0.16698   0.49942   0.00000  Uiso   1.00
C369   C     0.41035   0.21305   0.52769   0.00000  Uiso   1.00
C370   C     0.08962   0.12087   0.47172   0.00000  Uiso   1.00
C371   C     0.38349   0.16744   0.49813   0.00000  Uiso   1.00
C372   C     0.11651   0.16629   0.50175   0.00000  Uiso   1.00
C373   C     0.40238   0.12203   0.46854   0.00000  Uiso   1.00
C374   C     0.09766   0.21170   0.53146   0.00000  Uiso   1.00
C375   C     0.44896   0.12134   0.46960   0.00000  Uiso   1.00
C376   C     0.05106   0.21249   0.53012   0.00000  Uiso   1.00
C377   C     0.47654   0.16731   0.49930   0.00000  Uiso   1.00
C378   C     0.02346   0.16657   0.50026   0.00000  Uiso   1.00
C379   C     0.45717   0.21394   0.52800   0.00000  Uiso   1.00
C380   C     0.04282   0.11998   0.47143   0.00000  Uiso   1.00
C381   C     0.46824   0.07521   0.44208   0.00000  Uiso   1.00
C382   C     0.03177   0.25865   0.55752   0.00000  Uiso   1.00
Cu383  Cu    0.25501   0.17246   0.56146   0.00000  Uiso   1.00
Cu384  Cu    0.24500   0.16087   0.43854   0.00000  Uiso   1.00
H385   H     0.39419   0.24745   0.54997   0.00000  Uiso   1.00
H386   H     0.10576   0.08654   0.44921   0.00000  Uiso   1.00
H387   H     0.38076   0.08699   0.44613   0.00000  Uiso   1.00
H388   H     0.11930   0.24667   0.55414   0.00000  Uiso   1.00
H389   H     0.44701   0.03977   0.42005   0.00000  Uiso   1.00
H390   H     0.05300   0.29407   0.57960   0.00000  Uiso   1.00
H391   H     0.24053   0.31982   0.42958   0.00000  Uiso   1.00
H392   H     0.25729   0.01348   0.57081   0.00000  Uiso   1.00
N393   N     0.23745   0.15214   0.34617   0.00000  Uiso   1.00
N394   N     0.26256   0.18119   0.65383   0.00000  Uiso   1.00
O395   O     0.25326   0.09538   0.53992   0.00000  Uiso   1.00
O396   O     0.24675   0.23796   0.46008   0.00000  Uiso   1.00
O397   O     0.24480   0.08559   0.43612   0.00000  Uiso   1.00
O398   O     0.25520   0.24774   0.56388   0.00000  Uiso   1.00
O399   O     0.18936   0.17155   0.55191   0.00000  Uiso   1.00
O400   O     0.31065   0.16179   0.44809   0.00000  Uiso   1.00
O401   O     0.18090   0.16176   0.44810   0.00000  Uiso   1.00
O402   O     0.31910   0.17157   0.55190   0.00000  Uiso   1.00
Br403  Br    0.03819   0.00816   0.40642   0.00000  Uiso   1.00
Br404  Br    0.46183   0.32586   0.59268   0.00000  Uiso   1.00
O405   O     0.21419   0.11148   0.63883   0.00000  Uiso   1.00
C406   C     0.17265   0.10047   0.66005   0.00000  Uiso   1.00
H407   H     0.15423   0.13692   0.33787   0.00000  Uiso   1.00
H408   H     0.17728   0.08215   0.36641   0.00000  Uiso   1.00
C409   C     0.14394   0.06055   0.60968   0.00000  Uiso   1.00
H410   H     0.16094   0.02323   0.59753   0.00000  Uiso   1.00
H411   H     0.11075   0.05169   0.62560   0.00000  Uiso   1.00
H412   H     0.13852   0.07676   0.56835   0.00000  Uiso   1.00
O413   O     0.29754   0.20776   0.35875   0.00000  Uiso   1.00
C414   C     0.30824   0.25606   0.34331   0.00000  Uiso   1.00
H415   H     0.27797   0.27884   0.34177   0.00000  Uiso   1.00
H416   H     0.32360   0.24976   0.63277   0.00000  Uiso   1.00
C417   C     0.34305   0.28891   0.39213   0.00000  Uiso   1.00
H418   H     0.37427   0.26790   0.39399   0.00000  Uiso   1.00
H419   H     0.35133   0.32770   0.38114   0.00000  Uiso   1.00
H420   H     0.32977   0.29582   0.43765   0.00000  Uiso   1.00
C421   C     0.74811   0.06663   0.48447   0.00000  Uiso   1.00
C422   C     0.75123   0.26669   0.51559   0.00000  Uiso   1.00
C423   C     0.51486   0.07406   0.44307   0.00000  Uiso   1.00
C424   C     0.98514   0.25987   0.55630   0.00000  Uiso   1.00
C425   C     0.74631   0.01054   0.47598   0.00000  Uiso   1.00
C426   C     0.75187   0.32278   0.52430   0.00000  Uiso   1.00
C427   C     0.66463   0.16658   0.50059   0.00000  Uiso   1.00
C428   C     0.83538   0.16698   0.49942   0.00000  Uiso   1.00
C429   C     0.91035   0.21305   0.52769   0.00000  Uiso   1.00
C430   C     0.58962   0.12087   0.47172   0.00000  Uiso   1.00
C431   C     0.88349   0.16744   0.49813   0.00000  Uiso   1.00
C432   C     0.61651   0.16629   0.50175   0.00000  Uiso   1.00
C433   C     0.90238   0.12203   0.46854   0.00000  Uiso   1.00
C434   C     0.59766   0.21170   0.53146   0.00000  Uiso   1.00
C435   C     0.94896   0.12134   0.46960   0.00000  Uiso   1.00
C436   C     0.55106   0.21249   0.53012   0.00000  Uiso   1.00
C437   C     0.97654   0.16731   0.49930   0.00000  Uiso   1.00
C438   C     0.52346   0.16657   0.50026   0.00000  Uiso   1.00
C439   C     0.95717   0.21394   0.52800   0.00000  Uiso   1.00
C440   C     0.54282   0.11998   0.47143   0.00000  Uiso   1.00
C441   C     0.96824   0.07521   0.44208   0.00000  Uiso   1.00
C442   C     0.53177   0.25865   0.55752   0.00000  Uiso   1.00
Cu443  Cu    0.75501   0.17246   0.56146   0.00000  Uiso   1.00
Cu444  Cu    0.74500   0.16087   0.43854   0.00000  Uiso   1.00
H445   H     0.89419   0.24745   0.54997   0.00000  Uiso   1.00
H446   H     0.60576   0.08654   0.44921   0.00000  Uiso   1.00
H447   H     0.88076   0.08699   0.44613   0.00000  Uiso   1.00
H448   H     0.61930   0.24667   0.55414   0.00000  Uiso   1.00
H449   H     0.94701   0.03977   0.42005   0.00000  Uiso   1.00
H450   H     0.55300   0.29407   0.57960   0.00000  Uiso   1.00
H451   H     0.74053   0.31982   0.42958   0.00000  Uiso   1.00
H452   H     0.75729   0.01348   0.57081   0.00000  Uiso   1.00
N453   N     0.73745   0.15214   0.34617   0.00000  Uiso   1.00
N454   N     0.76256   0.18119   0.65383   0.00000  Uiso   1.00
O455   O     0.75326   0.09538   0.53992   0.00000  Uiso   1.00
O456   O     0.74675   0.23796   0.46008   0.00000  Uiso   1.00
O457   O     0.74480   0.08559   0.43612   0.00000  Uiso   1.00
O458   O     0.75520   0.24774   0.56388   0.00000  Uiso   1.00
O459   O     0.68936   0.17155   0.55191   0.00000  Uiso   1.00
O460   O     0.81065   0.16179   0.44809   0.00000  Uiso   1.00
O461   O     0.68090   0.16176   0.44810   0.00000  Uiso   1.00
O462   O     0.81910   0.17157   0.55190   0.00000  Uiso   1.00
Br463  Br    0.53819   0.00816   0.40642   0.00000  Uiso   1.00
Br464  Br    0.96183   0.32586   0.59268   0.00000  Uiso   1.00
O465   O     0.71419   0.11148   0.63883   0.00000  Uiso   1.00
C466   C     0.67265   0.10047   0.66005   0.00000  Uiso   1.00
H467   H     0.65423   0.13692   0.33787   0.00000  Uiso   1.00
H468   H     0.67728   0.08215   0.36641   0.00000  Uiso   1.00
C469   C     0.64394   0.06055   0.60968   0.00000  Uiso   1.00
H470   H     0.66094   0.02323   0.59753   0.00000  Uiso   1.00
H471   H     0.61075   0.05169   0.62560   0.00000  Uiso   1.00
H472   H     0.63852   0.07676   0.56835   0.00000  Uiso   1.00
O473   O     0.79754   0.20776   0.35875   0.00000  Uiso   1.00
C474   C     0.80824   0.25606   0.34331   0.00000  Uiso   1.00
H475   H     0.77797   0.27884   0.34177   0.00000  Uiso   1.00
H476   H     0.82360   0.24976   0.63277   0.00000  Uiso   1.00
C477   C     0.84305   0.28891   0.39213   0.00000  Uiso   1.00
H478   H     0.87427   0.26790   0.39399   0.00000  Uiso   1.00
H479   H     0.85133   0.32770   0.38114   0.00000  Uiso   1.00
H480   H     0.82977   0.29582   0.43765   0.00000  Uiso   1.00
C481   C     0.24811   0.39996   0.48447   0.00000  Uiso   1.00
C482   C     0.25123   0.60002   0.51559   0.00000  Uiso   1.00
C483   C     0.01486   0.40740   0.44307   0.00000  Uiso   1.00
C484   C     0.48514   0.59320   0.55630   0.00000  Uiso   1.00
C485   C     0.24631   0.34387   0.47598   0.00000  Uiso   1.00
C486   C     0.25187   0.65611   0.52430   0.00000  Uiso   1.00
C487   C     0.16463   0.49991   0.50059   0.00000  Uiso   1.00
C488   C     0.33538   0.50031   0.49942   0.00000  Uiso   1.00
C489   C     0.41035   0.54638   0.52769   0.00000  Uiso   1.00
C490   C     0.08962   0.45420   0.47172   0.00000  Uiso   1.00
C491   C     0.38349   0.50078   0.49813   0.00000  Uiso   1.00
C492   C     0.11651   0.49963   0.50175   0.00000  Uiso   1.00
C493   C     0.40238   0.45536   0.46854   0.00000  Uiso   1.00
C494   C     0.09766   0.54503   0.53146   0.00000  Uiso   1.00
C495   C     0.44896   0.45467   0.46960   0.00000  Uiso   1.00
C496   C     0.05106   0.54582   0.53012   0.00000  Uiso   1.00
C497   C     0.47654   0.50064   0.49930   0.00000  Uiso   1.00
C498   C     0.02346   0.49990   0.50026   0.00000  Uiso   1.00
C499   C     0.45717   0.54727   0.52800   0.00000  Uiso   1.00
C500   C     0.04282   0.45332   0.47143   0.00000  Uiso   1.00
C501   C     0.46824   0.40854   0.44208   0.00000  Uiso   1.00
C502   C     0.03177   0.59199   0.55752   0.00000  Uiso   1.00
Cu503  Cu    0.25501   0.50579   0.56146   0.00000  Uiso   1.00
Cu504  Cu    0.24500   0.49421   0.43854   0.00000  Uiso   1.00
H505   H     0.39419   0.58078   0.54997   0.00000  Uiso   1.00
H506   H     0.10576   0.41987   0.44921   0.00000  Uiso   1.00
H507   H     0.38076   0.42033   0.44613   0.00000  Uiso   1.00
H508   H     0.11930   0.58000   0.55414   0.00000  Uiso   1.00
H509   H     0.44701   0.37310   0.42005   0.00000  Uiso   1.00
H510   H     0.05300   0.62740   0.57960   0.00000  Uiso   1.00
H511   H     0.24053   0.65315   0.42958   0.00000  Uiso   1.00
H512   H     0.25729   0.34681   0.57081   0.00000  Uiso   1.00
N513   N     0.23745   0.48547   0.34617   0.00000  Uiso   1.00
N514   N     0.26256   0.51453   0.65383   0.00000  Uiso   1.00
O515   O     0.25326   0.42871   0.53992   0.00000  Uiso   1.00
O516   O     0.24675   0.57129   0.46008   0.00000  Uiso   1.00
O517   O     0.24480   0.41892   0.43612   0.00000  Uiso   1.00
O518   O     0.25520   0.58108   0.56388   0.00000  Uiso   1.00
O519   O     0.18936   0.50488   0.55191   0.00000  Uiso   1.00
O520   O     0.31065   0.49512   0.44809   0.00000  Uiso   1.00
O521   O     0.18090   0.49510   0.44810   0.00000  Uiso   1.00
O522   O     0.31910   0.50490   0.55190   0.00000  Uiso   1.00
Br523  Br    0.03819   0.34150   0.40642   0.00000  Uiso   1.00
Br524  Br    0.46183   0.65919   0.59268   0.00000  Uiso   1.00
O525   O     0.21419   0.44481   0.63883   0.00000  Uiso   1.00
C526   C     0.17265   0.43381   0.66005   0.00000  Uiso   1.00
H527   H     0.15423   0.47025   0.33787   0.00000  Uiso   1.00
H528   H     0.17728   0.41548   0.36641   0.00000  Uiso   1.00
C529   C     0.14394   0.39388   0.60968   0.00000  Uiso   1.00
H530   H     0.16094   0.35657   0.59753   0.00000  Uiso   1.00
H531   H     0.11075   0.38502   0.62560   0.00000  Uiso   1.00
H532   H     0.13852   0.41010   0.56835   0.00000  Uiso   1.00
O533   O     0.29754   0.54110   0.35875   0.00000  Uiso   1.00
C534   C     0.30824   0.58940   0.34331   0.00000  Uiso   1.00
H535   H     0.27797   0.61217   0.34177   0.00000  Uiso   1.00
H536   H     0.32360   0.58309   0.63277   0.00000  Uiso   1.00
C537   C     0.34305   0.62224   0.39213   0.00000  Uiso   1.00
H538   H     0.37427   0.60123   0.39399   0.00000  Uiso   1.00
H539   H     0.35133   0.66103   0.38114   0.00000  Uiso   1.00
H540   H     0.32977   0.62916   0.43765   0.00000  Uiso   1.00
C541   C     0.74811   0.39996   0.48447   0.00000  Uiso   1.00
C542   C     0.75123   0.60002   0.51559   0.00000  Uiso   1.00
C543   C     0.51486   0.40740   0.44307   0.00000  Uiso   1.00
C544   C     0.98514   0.59320   0.55630   0.00000  Uiso   1.00
C545   C     0.74631   0.34387   0.47598   0.00000  Uiso   1.00
C546   C     0.75187   0.65611   0.52430   0.00000  Uiso   1.00
C547   C     0.66463   0.49991   0.50059   0.00000  Uiso   1.00
C548   C     0.83538   0.50031   0.49942   0.00000  Uiso   1.00
C549   C     0.91035   0.54638   0.52769   0.00000  Uiso   1.00
C550   C     0.58962   0.45420   0.47172   0.00000  Uiso   1.00
C551   C     0.88349   0.50078   0.49813   0.00000  Uiso   1.00
C552   C     0.61651   0.49963   0.50175   0.00000  Uiso   1.00
C553   C     0.90238   0.45536   0.46854   0.00000  Uiso   1.00
C554   C     0.59766   0.54503   0.53146   0.00000  Uiso   1.00
C555   C     0.94896   0.45467   0.46960   0.00000  Uiso   1.00
C556   C     0.55106   0.54582   0.53012   0.00000  Uiso   1.00
C557   C     0.97654   0.50064   0.49930   0.00000  Uiso   1.00
C558   C     0.52346   0.49990   0.50026   0.00000  Uiso   1.00
C559   C     0.95717   0.54727   0.52800   0.00000  Uiso   1.00
C560   C     0.54282   0.45332   0.47143   0.00000  Uiso   1.00
C561   C     0.96824   0.40854   0.44208   0.00000  Uiso   1.00
C562   C     0.53177   0.59199   0.55752   0.00000  Uiso   1.00
Cu563  Cu    0.75501   0.50579   0.56146   0.00000  Uiso   1.00
Cu564  Cu    0.74500   0.49421   0.43854   0.00000  Uiso   1.00
H565   H     0.89419   0.58078   0.54997   0.00000  Uiso   1.00
H566   H     0.60576   0.41987   0.44921   0.00000  Uiso   1.00
H567   H     0.88076   0.42033   0.44613   0.00000  Uiso   1.00
H568   H     0.61930   0.58000   0.55414   0.00000  Uiso   1.00
H569   H     0.94701   0.37310   0.42005   0.00000  Uiso   1.00
H570   H     0.55300   0.62740   0.57960   0.00000  Uiso   1.00
H571   H     0.74053   0.65315   0.42958   0.00000  Uiso   1.00
H572   H     0.75729   0.34681   0.57081   0.00000  Uiso   1.00
N573   N     0.73745   0.48547   0.34617   0.00000  Uiso   1.00
N574   N     0.76256   0.51453   0.65383   0.00000  Uiso   1.00
O575   O     0.75326   0.42871   0.53992   0.00000  Uiso   1.00
O576   O     0.74675   0.57129   0.46008   0.00000  Uiso   1.00
O577   O     0.74480   0.41892   0.43612   0.00000  Uiso   1.00
O578   O     0.75520   0.58108   0.56388   0.00000  Uiso   1.00
O579   O     0.68936   0.50488   0.55191   0.00000  Uiso   1.00
O580   O     0.81065   0.49512   0.44809   0.00000  Uiso   1.00
O581   O     0.68090   0.49510   0.44810   0.00000  Uiso   1.00
O582   O     0.81910   0.50490   0.55190   0.00000  Uiso   1.00
Br583  Br    0.53819   0.34150   0.40642   0.00000  Uiso   1.00
Br584  Br    0.96183   0.65919   0.59268   0.00000  Uiso   1.00
O585   O     0.71419   0.44481   0.63883   0.00000  Uiso   1.00
C586   C     0.67265   0.43381   0.66005   0.00000  Uiso   1.00
H587   H     0.65423   0.47025   0.33787   0.00000  Uiso   1.00
H588   H     0.67728   0.41548   0.36641   0.00000  Uiso   1.00
C589   C     0.64394   0.39388   0.60968   0.00000  Uiso   1.00
H590   H     0.66094   0.35657   0.59753   0.00000  Uiso   1.00
H591   H     0.61075   0.38502   0.62560   0.00000  Uiso   1.00
H592   H     0.63852   0.41010   0.56835   0.00000  Uiso   1.00
O593   O     0.79754   0.54110   0.35875   0.00000  Uiso   1.00
C594   C     0.80824   0.58940   0.34331   0.00000  Uiso   1.00
H595   H     0.77797   0.61217   0.34177   0.00000  Uiso   1.00
H596   H     0.82360   0.58309   0.63277   0.00000  Uiso   1.00
C597   C     0.84305   0.62224   0.39213   0.00000  Uiso   1.00
H598   H     0.87427   0.60123   0.39399   0.00000  Uiso   1.00
H599   H     0.85133   0.66103   0.38114   0.00000  Uiso   1.00
H600   H     0.82977   0.62916   0.43765   0.00000  Uiso   1.00
C601   C     0.24811   0.73330   0.48447   0.00000  Uiso   1.00
C602   C     0.25123   0.93336   0.51559   0.00000  Uiso   1.00
C603   C     0.01486   0.74073   0.44307   0.00000  Uiso   1.00
C604   C     0.48514   0.92654   0.55630   0.00000  Uiso   1.00
C605   C     0.24631   0.67720   0.47598   0.00000  Uiso   1.00
C606   C     0.25187   0.98944   0.52430   0.00000  Uiso   1.00
C607   C     0.16463   0.83325   0.50059   0.00000  Uiso   1.00
C608   C     0.33538   0.83364   0.49942   0.00000  Uiso   1.00
C609   C     0.41035   0.87972   0.52769   0.00000  Uiso   1.00
C610   C     0.08962   0.78754   0.47172   0.00000  Uiso   1.00
C611   C     0.38349   0.83411   0.49813   0.00000  Uiso   1.00
C612   C     0.11651   0.83296   0.50175   0.00000  Uiso   1.00
C613   C     0.40238   0.78869   0.46854   0.00000  Uiso   1.00
C614   C     0.09766   0.87837   0.53146   0.00000  Uiso   1.00
C615   C     0.44896   0.78801   0.46960   0.00000  Uiso   1.00
C616   C     0.05106   0.87915   0.53012   0.00000  Uiso   1.00
C617   C     0.47654   0.83398   0.49930   0.00000  Uiso   1.00
C618   C     0.02346   0.83324   0.50026   0.00000  Uiso   1.00
C619   C     0.45717   0.88060   0.52800   0.00000  Uiso   1.00
C620   C     0.04282   0.78665   0.47143   0.00000  Uiso   1.00
C621   C     0.46824   0.74187   0.44208   0.00000  Uiso   1.00
C622   C     0.03177   0.92532   0.55752   0.00000  Uiso   1.00
Cu623  Cu    0.25501   0.83913   0.56146   0.00000  Uiso   1.00
Cu624  Cu    0.24500   0.82754   0.43854   0.00000  Uiso   1.00
H625   H     0.39419   0.91411   0.54997   0.00000  Uiso   1.00
H626   H     0.10576   0.75320   0.44921   0.00000  Uiso   1.00
H627   H     0.38076   0.75366   0.44613   0.00000  Uiso   1.00
H628   H     0.11930   0.91333   0.55414   0.00000  Uiso   1.00
H629   H     0.44701   0.70644   0.42005   0.00000  Uiso   1.00
H630   H     0.05300   0.96074   0.57960   0.00000  Uiso   1.00
H631   H     0.24053   0.98649   0.42958   0.00000  Uiso   1.00
H632   H     0.25729   0.68014   0.57081   0.00000  Uiso   1.00
N633   N     0.23745   0.81881   0.34617   0.00000  Uiso   1.00
N634   N     0.26256   0.84786   0.65383   0.00000  Uiso   1.00
O635   O     0.25326   0.76204   0.53992   0.00000  Uiso   1.00
O636   O     0.24675   0.90462   0.46008   0.00000  Uiso   1.00
O637   O     0.24480   0.75226   0.43612   0.00000  Uiso   1.00
O638   O     0.25520   0.91441   0.56388   0.00000  Uiso   1.00
O639   O     0.18936   0.83821   0.55191   0.00000  Uiso   1.00
O640   O     0.31065   0.82845   0.44809   0.00000  Uiso   1.00
O641   O     0.18090   0.82843   0.44810   0.00000  Uiso   1.00
O642   O     0.31910   0.83824   0.55190   0.00000  Uiso   1.00
Br643  Br    0.03819   0.67483   0.40642   0.00000  Uiso   1.00
Br644  Br    0.46183   0.99252   0.59268   0.00000  Uiso   1.00
O645   O     0.21419   0.77815   0.63883   0.00000  Uiso   1.00
C646   C     0.17265   0.76714   0.66005   0.00000  Uiso   1.00
H647   H     0.15423   0.80358   0.33787   0.00000  Uiso   1.00
H648   H     0.17728   0.74881   0.36641   0.00000  Uiso   1.00
C649   C     0.14394   0.72721   0.60968   0.00000  Uiso   1.00
H650   H     0.16094   0.68990   0.59753   0.00000  Uiso   1.00
H651   H     0.11075   0.71836   0.62560   0.00000  Uiso   1.00
H652   H     0.13852   0.74343   0.56835   0.00000  Uiso   1.00
O653   O     0.29754   0.87443   0.35875   0.00000  Uiso   1.00
C654   C     0.30824   0.92273   0.34331   0.00000  Uiso   1.00
H655   H     0.27797   0.94550   0.34177   0.00000  Uiso   1.00
H656   H     0.32360   0.91643   0.63277   0.00000  Uiso   1.00
C657   C     0.34305   0.95558   0.39213   0.00000  Uiso   1.00
H658   H     0.37427   0.93457   0.39399   0.00000  Uiso   1.00
H659   H     0.35133   0.99437   0.38114   0.00000  Uiso   1.00
H660   H     0.32977   0.96249   0.43765   0.00000  Uiso   1.00
C661   C     0.74811   0.73330   0.48447   0.00000  Uiso   1.00
C662   C     0.75123   0.93336   0.51559   0.00000  Uiso   1.00
C663   C     0.51486   0.74073   0.44307   0.00000  Uiso   1.00
C664   C     0.98514   0.92654   0.55630   0.00000  Uiso   1.00
C665   C     0.74631   0.67720   0.47598   0.00000  Uiso   1.00
C666   C     0.75187   0.98944   0.52430   0.00000  Uiso   1.00
C667   C     0.66463   0.83325   0.50059   0.00000  Uiso   1.00
C668   C     0.83538   0.83364   0.49942   0.00000  Uiso   1.00
C669   C     0.91035   0.87972   0.52769   0.00000  Uiso   1.00
C670   C     0.58962   0.78754   0.47172   0.00000  Uiso   1.00
C671   C     0.88349   0.83411   0.49813   0.00000  Uiso   1.00
C672   C     0.61651   0.83296   0.50175   0.00000  Uiso   1.00
C673   C     0.90238   0.78869   0.46854   0.00000  Uiso   1.00
C674   C     0.59766   0.87837   0.53146   0.00000  Uiso   1.00
C675   C     0.94896   0.78801   0.46960   0.00000  Uiso   1.00
C676   C     0.55106   0.87915   0.53012   0.00000  Uiso   1.00
C677   C     0.97654   0.83398   0.49930   0.00000  Uiso   1.00
C678   C     0.52346   0.83324   0.50026   0.00000  Uiso   1.00
C679   C     0.95717   0.88060   0.52800   0.00000  Uiso   1.00
C680   C     0.54282   0.78665   0.47143   0.00000  Uiso   1.00
C681   C     0.96824   0.74187   0.44208   0.00000  Uiso   1.00
C682   C     0.53177   0.92532   0.55752   0.00000  Uiso   1.00
Cu683  Cu    0.75501   0.83913   0.56146   0.00000  Uiso   1.00
Cu684  Cu    0.74500   0.82754   0.43854   0.00000  Uiso   1.00
H685   H     0.89419   0.91411   0.54997   0.00000  Uiso   1.00
H686   H     0.60576   0.75320   0.44921   0.00000  Uiso   1.00
H687   H     0.88076   0.75366   0.44613   0.00000  Uiso   1.00
H688   H     0.61930   0.91333   0.55414   0.00000  Uiso   1.00
H689   H     0.94701   0.70644   0.42005   0.00000  Uiso   1.00
H690   H     0.55300   0.96074   0.57960   0.00000  Uiso   1.00
H691   H     0.74053   0.98649   0.42958   0.00000  Uiso   1.00
H692   H     0.75729   0.68014   0.57081   0.00000  Uiso   1.00
N693   N     0.73745   0.81881   0.34617   0.00000  Uiso   1.00
N694   N     0.76256   0.84786   0.65383   0.00000  Uiso   1.00
O695   O     0.75326   0.76204   0.53992   0.00000  Uiso   1.00
O696   O     0.74675   0.90462   0.46008   0.00000  Uiso   1.00
O697   O     0.74480   0.75226   0.43612   0.00000  Uiso   1.00
O698   O     0.75520   0.91441   0.56388   0.00000  Uiso   1.00
O699   O     0.68936   0.83821   0.55191   0.00000  Uiso   1.00
O700   O     0.81065   0.82845   0.44809   0.00000  Uiso   1.00
O701   O     0.68090   0.82843   0.44810   0.00000  Uiso   1.00
O702   O     0.81910   0.83824   0.55190   0.00000  Uiso   1.00
Br703  Br    0.53819   0.67483   0.40642   0.00000  Uiso   1.00
Br704  Br    0.96183   0.99252   0.59268   0.00000  Uiso   1.00
O705   O     0.71419   0.77815   0.63883   0.00000  Uiso   1.00
C706   C     0.67265   0.76714   0.66005   0.00000  Uiso   1.00
H707   H     0.65423   0.80358   0.33787   0.00000  Uiso   1.00
H708   H     0.67728   0.74881   0.36641   0.00000  Uiso   1.00
C709   C     0.64394   0.72721   0.60968   0.00000  Uiso   1.00
H710   H     0.66094   0.68990   0.59753   0.00000  Uiso   1.00
H711   H     0.61075   0.71836   0.62560   0.00000  Uiso   1.00
H712   H     0.63852   0.74343   0.56835   0.00000  Uiso   1.00
O713   O     0.79754   0.87443   0.35875   0.00000  Uiso   1.00
C714   C     0.80824   0.92273   0.34331   0.00000  Uiso   1.00
H715   H     0.77797   0.94550   0.34177   0.00000  Uiso   1.00
H716   H     0.82360   0.91643   0.63277   0.00000  Uiso   1.00
C717   C     0.84305   0.95558   0.39213   0.00000  Uiso   1.00
H718   H     0.87427   0.93457   0.39399   0.00000  Uiso   1.00
H719   H     0.85133   0.99437   0.38114   0.00000  Uiso   1.00
H720   H     0.82977   0.96249   0.43765   0.00000  Uiso   1.00
C721   C     0.24811   0.06663   0.81780   0.00000  Uiso   1.00
C722   C     0.25123   0.26669   0.84892   0.00000  Uiso   1.00
C723   C     0.01486   0.07406   0.77640   0.00000  Uiso   1.00
C724   C     0.48514   0.25987   0.88963   0.00000  Uiso   1.00
C725   C     0.24631   0.01054   0.80932   0.00000  Uiso   1.00
C726   C     0.25187   0.32278   0.85763   0.00000  Uiso   1.00
C727   C     0.16463   0.16658   0.83392   0.00000  Uiso   1.00
C728   C     0.33538   0.16698   0.83276   0.00000  Uiso   1.00
C729   C     0.41035   0.21305   0.86102   0.00000  Uiso   1.00
C730   C     0.08962   0.12087   0.80505   0.00000  Uiso   1.00
C731   C     0.38349   0.16744   0.83147   0.00000  Uiso   1.00
C732   C     0.11651   0.16629   0.83509   0.00000  Uiso   1.00
C733   C     0.40238   0.12203   0.80188   0.00000  Uiso   1.00
C734   C     0.09766   0.21170   0.86479   0.00000  Uiso   1.00
C735   C     0.44896   0.12134   0.80293   0.00000  Uiso   1.00
C736   C     0.05106   0.21249   0.86346   0.00000  Uiso   1.00
C737   C     0.47654   0.16731   0.83264   0.00000  Uiso   1.00
C738   C     0.02346   0.16657   0.83360   0.00000  Uiso   1.00
C739   C     0.45717   0.21394   0.86133   0.00000  Uiso   1.00
C740   C     0.04282   0.11998   0.80477   0.00000  Uiso   1.00
C741   C     0.46824   0.07521   0.77541   0.00000  Uiso   1.00
C742   C     0.03177   0.25865   0.89086   0.00000  Uiso   1.00
Cu743  Cu    0.25501   0.17246   0.89479   0.00000  Uiso   1.00
Cu744  Cu    0.24500   0.16087   0.77187   0.00000  Uiso   1.00
H745   H     0.39419   0.24745   0.88331   0.00000  Uiso   1.00
H746   H     0.10576   0.08654   0.78255   0.00000  Uiso   1.00
H747   H     0.38076   0.08699   0.77946   0.00000  Uiso   1.00
H748   H     0.11930   0.24667   0.88747   0.00000  Uiso   1.00
H749   H     0.44701   0.03977   0.75339   0.00000  Uiso   1.00
H750   H     0.05300   0.29407   0.91294   0.00000  Uiso   1.00
H751   H     0.24053   0.31982   0.76291   0.00000  Uiso   1.00
H752   H     0.25729   0.01348   0.90415   0.00000  Uiso   1.00
N753   N     0.23745   0.15214   0.67951   0.00000  Uiso   1.00
N754   N     0.26256   0.18119   0.98716   0.00000  Uiso   1.00
O755   O     0.25326   0.09538   0.87326   0.00000  Uiso   1.00
O756   O     0.24675   0.23796   0.79341   0.00000  Uiso   1.00
O757   O     0.24480   0.08559   0.76945   0.00000  Uiso   1.00
O758   O     0.25520   0.24774   0.89721   0.00000  Uiso   1.00
O759   O     0.18936   0.17155   0.88524   0.00000  Uiso   1.00
O760   O     0.31065   0.16179   0.78143   0.00000  Uiso   1.00
O761   O     0.18090   0.16176   0.78143   0.00000  Uiso   1.00
O762   O     0.31910   0.17157   0.88523   0.00000  Uiso   1.00
Br763  Br    0.03819   0.00816   0.73975   0.00000  Uiso   1.00
Br764  Br    0.46183   0.32586   0.92601   0.00000  Uiso   1.00
O765   O     0.21419   0.11148   0.97217   0.00000  Uiso   1.00
C766   C     0.17265   0.10047   0.99338   0.00000  Uiso   1.00
H767   H     0.15423   0.13692   0.67120   0.00000  Uiso   1.00
H768   H     0.17728   0.08215   0.69974   0.00000  Uiso   1.00
C769   C     0.14394   0.06055   0.94301   0.00000  Uiso   1.00
H770   H     0.16094   0.02323   0.93087   0.00000  Uiso   1.00
H771   H     0.11075   0.05169   0.95894   0.00000  Uiso   1.00
H772   H     0.13852   0.07676   0.90168   0.00000  Uiso   1.00
O773   O     0.29754   0.20776   0.69208   0.00000  Uiso   1.00
C774   C     0.30824   0.25606   0.67665   0.00000  Uiso   1.00
H775   H     0.27797   0.27884   0.67510   0.00000  Uiso   1.00
H776   H     0.32360   0.24976   0.96611   0.00000  Uiso   1.00
C777   C     0.34305   0.28891   0.72547   0.00000  Uiso   1.00
H778   H     0.37427   0.26790   0.72732   0.00000  Uiso   1.00
H779   H     0.35133   0.32770   0.71447   0.00000  Uiso   1.00
H780   H     0.32977   0.29582   0.77098   0.00000  Uiso   1.00
C781   C     0.74811   0.06663   0.81780   0.00000  Uiso   1.00
C782   C     0.75123   0.26669   0.84892   0.00000  Uiso   1.00
C783   C     0.51486   0.07406   0.77640   0.00000  Uiso   1.00
C784   C     0.98514   0.25987   0.88963   0.00000  Uiso   1.00
C785   C     0.74631   0.01054   0.80932   0.00000  Uiso   1.00
C786   C     0.75187   0.32278   0.85763   0.00000  Uiso   1.00
C787   C     0.66463   0.16658   0.83392   0.00000  Uiso   1.00
C788   C     0.83538   0.16698   0.83276   0.00000  Uiso   1.00
C789   C     0.91035   0.21305   0.86102   0.00000  Uiso   1.00
C790   C     0.58962   0.12087   0.80505   0.00000  Uiso   1.00
C791   C     0.88349   0.16744   0.83147   0.00000  Uiso   1.00
C792   C     0.61651   0.16629   0.83509   0.00000  Uiso   1.00
C793   C     0.90238   0.12203   0.80188   0.00000  Uiso   1.00
C794   C     0.59766   0.21170   0.86479   0.00000  Uiso   1.00
C795   C     0.94896   0.12134   0.80293   0.00000  Uiso   1.00
C796   C     0.55106   0.21249   0.86346   0.00000  Uiso   1.00
C797   C     0.97654   0.16731   0.83264   0.00000  Uiso   1.00
C798   C     0.52346   0.16657   0.83360   0.00000  Uiso   1.00
C799   C     0.95717   0.21394   0.86133   0.00000  Uiso   1.00
C800   C     0.54282   0.11998   0.80477   0.00000  Uiso   1.00
C801   C     0.96824   0.07521   0.77541   0.00000  Uiso   1.00
C802   C     0.53177   0.25865   0.89086   0.00000  Uiso   1.00
Cu803  Cu    0.75501   0.17246   0.89479   0.00000  Uiso   1.00
Cu804  Cu    0.74500   0.16087   0.77187   0.00000  Uiso   1.00
H805   H     0.89419   0.24745   0.88331   0.00000  Uiso   1.00
H806   H     0.60576   0.08654   0.78255   0.00000  Uiso   1.00
H807   H     0.88076   0.08699   0.77946   0.00000  Uiso   1.00
H808   H     0.61930   0.24667   0.88747   0.00000  Uiso   1.00
H809   H     0.94701   0.03977   0.75339   0.00000  Uiso   1.00
H810   H     0.55300   0.29407   0.91294   0.00000  Uiso   1.00
H811   H     0.74053   0.31982   0.76291   0.00000  Uiso   1.00
H812   H     0.75729   0.01348   0.90415   0.00000  Uiso   1.00
N813   N     0.73745   0.15214   0.67951   0.00000  Uiso   1.00
N814   N     0.76256   0.18119   0.98716   0.00000  Uiso   1.00
O815   O     0.75326   0.09538   0.87326   0.00000  Uiso   1.00
O816   O     0.74675   0.23796   0.79341   0.00000  Uiso   1.00
O817   O     0.74480   0.08559   0.76945   0.00000  Uiso   1.00
O818   O     0.75520   0.24774   0.89721   0.00000  Uiso   1.00
O819   O     0.68936   0.17155   0.88524   0.00000  Uiso   1.00
O820   O     0.81065   0.16179   0.78143   0.00000  Uiso   1.00
O821   O     0.68090   0.16176   0.78143   0.00000  Uiso   1.00
O822   O     0.81910   0.17157   0.88523   0.00000  Uiso   1.00
Br823  Br    0.53819   0.00816   0.73975   0.00000  Uiso   1.00
Br824  Br    0.96183   0.32586   0.92601   0.00000  Uiso   1.00
O825   O     0.71419   0.11148   0.97217   0.00000  Uiso   1.00
C826   C     0.67265   0.10047   0.99338   0.00000  Uiso   1.00
H827   H     0.65423   0.13692   0.67120   0.00000  Uiso   1.00
H828   H     0.67728   0.08215   0.69974   0.00000  Uiso   1.00
C829   C     0.64394   0.06055   0.94301   0.00000  Uiso   1.00
H830   H     0.66094   0.02323   0.93087   0.00000  Uiso   1.00
H831   H     0.61075   0.05169   0.95894   0.00000  Uiso   1.00
H832   H     0.63852   0.07676   0.90168   0.00000  Uiso   1.00
O833   O     0.79754   0.20776   0.69208   0.00000  Uiso   1.00
C834   C     0.80824   0.25606   0.67665   0.00000  Uiso   1.00
H835   H     0.77797   0.27884   0.67510   0.00000  Uiso   1.00
H836   H     0.82360   0.24976   0.96611   0.00000  Uiso   1.00
C837   C     0.84305   0.28891   0.72547   0.00000  Uiso   1.00
H838   H     0.87427   0.26790   0.72732   0.00000  Uiso   1.00
H839   H     0.85133   0.32770   0.71447   0.00000  Uiso   1.00
H840   H     0.82977   0.29582   0.77098   0.00000  Uiso   1.00
C841   C     0.24811   0.39996   0.81780   0.00000  Uiso   1.00
C842   C     0.25123   0.60002   0.84892   0.00000  Uiso   1.00
C843   C     0.01486   0.40740   0.77640   0.00000  Uiso   1.00
C844   C     0.48514   0.59320   0.88963   0.00000  Uiso   1.00
C845   C     0.24631   0.34387   0.80932   0.00000  Uiso   1.00
C846   C     0.25187   0.65611   0.85763   0.00000  Uiso   1.00
C847   C     0.16463   0.49991   0.83392   0.00000  Uiso   1.00
C848   C     0.33538   0.50031   0.83276   0.00000  Uiso   1.00
C849   C     0.41035   0.54638   0.86102   0.00000  Uiso   1.00
C850   C     0.08962   0.45420   0.80505   0.00000  Uiso   1.00
C851   C     0.38349   0.50078   0.83147   0.00000  Uiso   1.00
C852   C     0.11651   0.49963   0.83509   0.00000  Uiso   1.00
C853   C     0.40238   0.45536   0.80188   0.00000  Uiso   1.00
C854   C     0.09766   0.54503   0.86479   0.00000  Uiso   1.00
C855   C     0.44896   0.45467   0.80293   0.00000  Uiso   1.00
C856   C     0.05106   0.54582   0.86346   0.00000  Uiso   1.00
C857   C     0.47654   0.50064   0.83264   0.00000  Uiso   1.00
C858   C     0.02346   0.49990   0.83360   0.00000  Uiso   1.00
C859   C     0.45717   0.54727   0.86133   0.00000  Uiso   1.00
C860   C     0.04282   0.45332   0.80477   0.00000  Uiso   1.00
C861   C     0.46824   0.40854   0.77541   0.00000  Uiso   1.00
C862   C     0.03177   0.59199   0.89086   0.00000  Uiso   1.00
Cu863  Cu    0.25501   0.50579   0.89479   0.00000  Uiso   1.00
Cu864  Cu    0.24500   0.49421   0.77187   0.00000  Uiso   1.00
H865   H     0.39419   0.58078   0.88331   0.00000  Uiso   1.00
H866   H     0.10576   0.41987   0.78255   0.00000  Uiso   1.00
H867   H     0.38076   0.42033   0.77946   0.00000  Uiso   1.00
H868   H     0.11930   0.58000   0.88747   0.00000  Uiso   1.00
H869   H     0.44701   0.37310   0.75339   0.00000  Uiso   1.00
H870   H     0.05300   0.62740   0.91294   0.00000  Uiso   1.00
H871   H     0.24053   0.65315   0.76291   0.00000  Uiso   1.00
H872   H     0.25729   0.34681   0.90415   0.00000  Uiso   1.00
N873   N     0.23745   0.48547   0.67951   0.00000  Uiso   1.00
N874   N     0.26256   0.51453   0.98716   0.00000  Uiso   1.00
O875   O     0.25326   0.42871   0.87326   0.00000  Uiso   1.00
O876   O     0.24675   0.57129   0.79341   0.00000  Uiso   1.00
O877   O     0.24480   0.41892   0.76945   0.00000  Uiso   1.00
O878   O     0.25520   0.58108   0.89721   0.00000  Uiso   1.00
O879   O     0.18936   0.50488   0.88524   0.00000  Uiso   1.00
O880   O     0.31065   0.49512   0.78143   0.00000  Uiso   1.00
O881   O     0.18090   0.49510   0.78143   0.00000  Uiso   1.00
O882   O     0.31910   0.50490   0.88523   0.00000  Uiso   1.00
Br883  Br    0.03819   0.34150   0.73975   0.00000  Uiso   1.00
Br884  Br    0.46183   0.65919   0.92601   0.00000  Uiso   1.00
O885   O     0.21419   0.44481   0.97217   0.00000  Uiso   1.00
C886   C     0.17265   0.43381   0.99338   0.00000  Uiso   1.00
H887   H     0.15423   0.47025   0.67120   0.00000  Uiso   1.00
H888   H     0.17728   0.41548   0.69974   0.00000  Uiso   1.00
C889   C     0.14394   0.39388   0.94301   0.00000  Uiso   1.00
H890   H     0.16094   0.35657   0.93087   0.00000  Uiso   1.00
H891   H     0.11075   0.38502   0.95894   0.00000  Uiso   1.00
H892   H     0.13852   0.41010   0.90168   0.00000  Uiso   1.00
O893   O     0.29754   0.54110   0.69208   0.00000  Uiso   1.00
C894   C     0.30824   0.58940   0.67665   0.00000  Uiso   1.00
H895   H     0.27797   0.61217   0.67510   0.00000  Uiso   1.00
H896   H     0.32360   0.58309   0.96611   0.00000  Uiso   1.00
C897   C     0.34305   0.62224   0.72547   0.00000  Uiso   1.00
H898   H     0.37427   0.60123   0.72732   0.00000  Uiso   1.00
H899   H     0.35133   0.66103   0.71447   0.00000  Uiso   1.00
H900   H     0.32977   0.62916   0.77098   0.00000  Uiso   1.00
C901   C     0.74811   0.39996   0.81780   0.00000  Uiso   1.00
C902   C     0.75123   0.60002   0.84892   0.00000  Uiso   1.00
C903   C     0.51486   0.40740   0.77640   0.00000  Uiso   1.00
C904   C     0.98514   0.59320   0.88963   0.00000  Uiso   1.00
C905   C     0.74631   0.34387   0.80932   0.00000  Uiso   1.00
C906   C     0.75187   0.65611   0.85763   0.00000  Uiso   1.00
C907   C     0.66463   0.49991   0.83392   0.00000  Uiso   1.00
C908   C     0.83538   0.50031   0.83276   0.00000  Uiso   1.00
C909   C     0.91035   0.54638   0.86102   0.00000  Uiso   1.00
C910   C     0.58962   0.45420   0.80505   0.00000  Uiso   1.00
C911   C     0.88349   0.50078   0.83147   0.00000  Uiso   1.00
C912   C     0.61651   0.49963   0.83509   0.00000  Uiso   1.00
C913   C     0.90238   0.45536   0.80188   0.00000  Uiso   1.00
C914   C     0.59766   0.54503   0.86479   0.00000  Uiso   1.00
C915   C     0.94896   0.45467   0.80293   0.00000  Uiso   1.00
C916   C     0.55106   0.54582   0.86346   0.00000  Uiso   1.00
C917   C     0.97654   0.50064   0.83264   0.00000  Uiso   1.00
C918   C     0.52346   0.49990   0.83360   0.00000  Uiso   1.00
C919   C     0.95717   0.54727   0.86133   0.00000  Uiso   1.00
C920   C     0.54282   0.45332   0.80477   0.00000  Uiso   1.00
C921   C     0.96824   0.40854   0.77541   0.00000  Uiso   1.00
C922   C     0.53177   0.59199   0.89086   0.00000  Uiso   1.00
Cu923  Cu    0.75501   0.50579   0.89479   0.00000  Uiso   1.00
Cu924  Cu    0.74500   0.49421   0.77187   0.00000  Uiso   1.00
H925   H     0.89419   0.58078   0.88331   0.00000  Uiso   1.00
H926   H     0.60576   0.41987   0.78255   0.00000  Uiso   1.00
H927   H     0.88076   0.42033   0.77946   0.00000  Uiso   1.00
H928   H     0.61930   0.58000   0.88747   0.00000  Uiso   1.00
H929   H     0.94701   0.37310   0.75339   0.00000  Uiso   1.00
H930   H     0.55300   0.62740   0.91294   0.00000  Uiso   1.00
H931   H     0.74053   0.65315   0.76291   0.00000  Uiso   1.00
H932   H     0.75729   0.34681   0.90415   0.00000  Uiso   1.00
N933   N     0.73745   0.48547   0.67951   0.00000  Uiso   1.00
N934   N     0.76256   0.51453   0.98716   0.00000  Uiso   1.00
O935   O     0.75326   0.42871   0.87326   0.00000  Uiso   1.00
O936   O     0.74675   0.57129   0.79341   0.00000  Uiso   1.00
O937   O     0.74480   0.41892   0.76945   0.00000  Uiso   1.00
O938   O     0.75520   0.58108   0.89721   0.00000  Uiso   1.00
O939   O     0.68936   0.50488   0.88524   0.00000  Uiso   1.00
O940   O     0.81065   0.49512   0.78143   0.00000  Uiso   1.00
O941   O     0.68090   0.49510   0.78143   0.00000  Uiso   1.00
O942   O     0.81910   0.50490   0.88523   0.00000  Uiso   1.00
Br943  Br    0.53819   0.34150   0.73975   0.00000  Uiso   1.00
Br944  Br    0.96183   0.65919   0.92601   0.00000  Uiso   1.00
O945   O     0.71419   0.44481   0.97217   0.00000  Uiso   1.00
C946   C     0.67265   0.43381   0.99338   0.00000  Uiso   1.00
H947   H     0.65423   0.47025   0.67120   0.00000  Uiso   1.00
H948   H     0.67728   0.41548   0.69974   0.00000  Uiso   1.00
C949   C     0.64394   0.39388   0.94301   0.00000  Uiso   1.00
H950   H     0.66094   0.35657   0.93087   0.00000  Uiso   1.00
H951   H     0.61075   0.38502   0.95894   0.00000  Uiso   1.00
H952   H     0.63852   0.41010   0.90168   0.00000  Uiso   1.00
O953   O     0.79754   0.54110   0.69208   0.00000  Uiso   1.00
C954   C     0.80824   0.58940   0.67665   0.00000  Uiso   1.00
H955   H     0.77797   0.61217   0.67510   0.00000  Uiso   1.00
H956   H     0.82360   0.58309   0.96611   0.00000  Uiso   1.00
C957   C     0.84305   0.62224   0.72547   0.00000  Uiso   1.00
H958   H     0.87427   0.60123   0.72732   0.00000  Uiso   1.00
H959   H     0.85133   0.66103   0.71447   0.00000  Uiso   1.00
H960   H     0.82977   0.62916   0.77098   0.00000  Uiso   1.00
C961   C     0.24811   0.73330   0.81780   0.00000  Uiso   1.00
C962   C     0.25123   0.93336   0.84892   0.00000  Uiso   1.00
C963   C     0.01486   0.74073   0.77640   0.00000  Uiso   1.00
C964   C     0.48514   0.92654   0.88963   0.00000  Uiso   1.00
C965   C     0.24631   0.67720   0.80932   0.00000  Uiso   1.00
C966   C     0.25187   0.98944   0.85763   0.00000  Uiso   1.00
C967   C     0.16463   0.83325   0.83392   0.00000  Uiso   1.00
C968   C     0.33538   0.83364   0.83276   0.00000  Uiso   1.00
C969   C     0.41035   0.87972   0.86102   0.00000  Uiso   1.00
C970   C     0.08962   0.78754   0.80505   0.00000  Uiso   1.00
C971   C     0.38349   0.83411   0.83147   0.00000  Uiso   1.00
C972   C     0.11651   0.83296   0.83509   0.00000  Uiso   1.00
C973   C     0.40238   0.78869   0.80188   0.00000  Uiso   1.00
C974   C     0.09766   0.87837   0.86479   0.00000  Uiso   1.00
C975   C     0.44896   0.78801   0.80293   0.00000  Uiso   1.00
C976   C     0.05106   0.87915   0.86346   0.00000  Uiso   1.00
C977   C     0.47654   0.83398   0.83264   0.00000  Uiso   1.00
C978   C     0.02346   0.83324   0.83360   0.00000  Uiso   1.00
C979   C     0.45717   0.88060   0.86133   0.00000  Uiso   1.00
C980   C     0.04282   0.78665   0.80477   0.00000  Uiso   1.00
C981   C     0.46824   0.74187   0.77541   0.00000  Uiso   1.00
C982   C     0.03177   0.92532   0.89086   0.00000  Uiso   1.00
Cu983  Cu    0.25501   0.83913   0.89479   0.00000  Uiso   1.00
Cu984  Cu    0.24500   0.82754   0.77187   0.00000  Uiso   1.00
H985   H     0.39419   0.91411   0.88331   0.00000  Uiso   1.00
H986   H     0.10576   0.75320   0.78255   0.00000  Uiso   1.00
H987   H     0.38076   0.75366   0.77946   0.00000  Uiso   1.00
H988   H     0.11930   0.91333   0.88747   0.00000  Uiso   1.00
H989   H     0.44701   0.70644   0.75339   0.00000  Uiso   1.00
H990   H     0.05300   0.96074   0.91294   0.00000  Uiso   1.00
H991   H     0.24053   0.98649   0.76291   0.00000  Uiso   1.00
H992   H     0.25729   0.68014   0.90415   0.00000  Uiso   1.00
N993   N     0.23745   0.81881   0.67951   0.00000  Uiso   1.00
N994   N     0.26256   0.84786   0.98716   0.00000  Uiso   1.00
O995   O     0.25326   0.76204   0.87326   0.00000  Uiso   1.00
O996   O     0.24675   0.90462   0.79341   0.00000  Uiso   1.00
O997   O     0.24480   0.75226   0.76945   0.00000  Uiso   1.00
O998   O     0.25520   0.91441   0.89721   0.00000  Uiso   1.00
O999   O     0.18936   0.83821   0.88524   0.00000  Uiso   1.00
O1000  O     0.31065   0.82845   0.78143   0.00000  Uiso   1.00
O1001  O     0.18090   0.82843   0.78143   0.00000  Uiso   1.00
O1002  O     0.31910   0.83824   0.88523   0.00000  Uiso   1.00
Br1003 Br    0.03819   0.67483   0.73975   0.00000  Uiso   1.00
Br1004 Br    0.46183   0.99252   0.92601   0.00000  Uiso   1.00
O1005  O     0.21419   0.77815   0.97217   0.00000  Uiso   1.00
C1006  C     0.17265   0.76714   0.99338   0.00000  Uiso   1.00
H1007  H     0.15423   0.80358   0.67120   0.00000  Uiso   1.00
H1008  H     0.17728   0.74881   0.69974   0.00000  Uiso   1.00
C1009  C     0.14394   0.72721   0.94301   0.00000  Uiso   1.00
H1010  H     0.16094   0.68990   0.93087   0.00000  Uiso   1.00
H1011  H     0.11075   0.71836   0.95894   0.00000  Uiso   1.00
H1012  H     0.13852   0.74343   0.90168   0.00000  Uiso   1.00
O1013  O     0.29754   0.87443   0.69208   0.00000  Uiso   1.00
C1014  C     0.30824   0.92273   0.67665   0.00000  Uiso   1.00
H1015  H     0.27797   0.94550   0.67510   0.00000  Uiso   1.00
H1016  H     0.32360   0.91643   0.96611   0.00000  Uiso   1.00
C1017  C     0.34305   0.95558   0.72547   0.00000  Uiso   1.00
H1018  H     0.37427   0.93457   0.72732   0.00000  Uiso   1.00
H1019  H     0.35133   0.99437   0.71447   0.00000  Uiso   1.00
H1020  H     0.32977   0.96249   0.77098   0.00000  Uiso   1.00
C1021  C     0.74811   0.73330   0.81780   0.00000  Uiso   1.00
C1022  C     0.75123   0.93336   0.84892   0.00000  Uiso   1.00
C1023  C     0.51486   0.74073   0.77640   0.00000  Uiso   1.00
C1024  C     0.98514   0.92654   0.88963   0.00000  Uiso   1.00
C1025  C     0.74631   0.67720   0.80932   0.00000  Uiso   1.00
C1026  C     0.75187   0.98944   0.85763   0.00000  Uiso   1.00
C1027  C     0.66463   0.83325   0.83392   0.00000  Uiso   1.00
C1028  C     0.83538   0.83364   0.83276   0.00000  Uiso   1.00
C1029  C     0.91035   0.87972   0.86102   0.00000  Uiso   1.00
C1030  C     0.58962   0.78754   0.80505   0.00000  Uiso   1.00
C1031  C     0.88349   0.83411   0.83147   0.00000  Uiso   1.00
C1032  C     0.61651   0.83296   0.83509   0.00000  Uiso   1.00
C1033  C     0.90238   0.78869   0.80188   0.00000  Uiso   1.00
C1034  C     0.59766   0.87837   0.86479   0.00000  Uiso   1.00
C1035  C     0.94896   0.78801   0.80293   0.00000  Uiso   1.00
C1036  C     0.55106   0.87915   0.86346   0.00000  Uiso   1.00
C1037  C     0.97654   0.83398   0.83264   0.00000  Uiso   1.00
C1038  C     0.52346   0.83324   0.83360   0.00000  Uiso   1.00
C1039  C     0.95717   0.88060   0.86133   0.00000  Uiso   1.00
C1040  C     0.54282   0.78665   0.80477   0.00000  Uiso   1.00
C1041  C     0.96824   0.74187   0.77541   0.00000  Uiso   1.00
C1042  C     0.53177   0.92532   0.89086   0.00000  Uiso   1.00
Cu1043 Cu    0.75501   0.83913   0.89479   0.00000  Uiso   1.00
Cu1044 Cu    0.74500   0.82754   0.77187   0.00000  Uiso   1.00
H1045  H     0.89419   0.91411   0.88331   0.00000  Uiso   1.00
H1046  H     0.60576   0.75320   0.78255   0.00000  Uiso   1.00
H1047  H     0.88076   0.75366   0.77946   0.00000  Uiso   1.00
H1048  H     0.61930   0.91333   0.88747   0.00000  Uiso   1.00
H1049  H     0.94701   0.70644   0.75339   0.00000  Uiso   1.00
H1050  H     0.55300   0.96074   0.91294   0.00000  Uiso   1.00
H1051  H     0.74053   0.98649   0.76291   0.00000  Uiso   1.00
H1052  H     0.75729   0.68014   0.90415   0.00000  Uiso   1.00
N1053  N     0.73745   0.81881   0.67951   0.00000  Uiso   1.00
N1054  N     0.76256   0.84786   0.98716   0.00000  Uiso   1.00
O1055  O     0.75326   0.76204   0.87326   0.00000  Uiso   1.00
O1056  O     0.74675   0.90462   0.79341   0.00000  Uiso   1.00
O1057  O     0.74480   0.75226   0.76945   0.00000  Uiso   1.00
O1058  O     0.75520   0.91441   0.89721   0.00000  Uiso   1.00
O1059  O     0.68936   0.83821   0.88524   0.00000  Uiso   1.00
O1060  O     0.81065   0.82845   0.78143   0.00000  Uiso   1.00
O1061  O     0.68090   0.82843   0.78143   0.00000  Uiso   1.00
O1062  O     0.81910   0.83824   0.88523   0.00000  Uiso   1.00
Br1063 Br    0.53819   0.67483   0.73975   0.00000  Uiso   1.00
Br1064 Br    0.96183   0.99252   0.92601   0.00000  Uiso   1.00
O1065  O     0.71419   0.77815   0.97217   0.00000  Uiso   1.00
C1066  C     0.67265   0.76714   0.99338   0.00000  Uiso   1.00
H1067  H     0.65423   0.80358   0.67120   0.00000  Uiso   1.00
H1068  H     0.67728   0.74881   0.69974   0.00000  Uiso   1.00
C1069  C     0.64394   0.72721   0.94301   0.00000  Uiso   1.00
H1070  H     0.66094   0.68990   0.93087   0.00000  Uiso   1.00
H1071  H     0.61075   0.71836   0.95894   0.00000  Uiso   1.00
H1072  H     0.63852   0.74343   0.90168   0.00000  Uiso   1.00
O1073  O     0.79754   0.87443   0.69208   0.00000  Uiso   1.00
C1074  C     0.80824   0.92273   0.67665   0.00000  Uiso   1.00
H1075  H     0.77797   0.94550   0.67510   0.00000  Uiso   1.00
H1076  H     0.82360   0.91643   0.96611   0.00000  Uiso   1.00
C1077  C     0.84305   0.95558   0.72547   0.00000  Uiso   1.00
H1078  H     0.87427   0.93457   0.72732   0.00000  Uiso   1.00
H1079  H     0.85133   0.99437   0.71447   0.00000  Uiso   1.00
H1080  H     0.82977   0.96249   0.77098   0.00000  Uiso   1.00
loop_
_geom_bond_atom_site_label_1
_geom_bond_atom_site_label_2
_geom_bond_distance
_geom_bond_site_symmetry_2
_ccdc_geom_bond_type
C1     O37     1.292   .     A
C1     C5      1.425   .     S
C1     O35     1.297   .     A
C2     O38     1.291   .     A
C2     C6      1.426   .     S
C2     O36     1.298   .     A
C3     C20     1.411   .     A
C3     Br43    1.923   .     S
C3     C81     1.394   1_455 S
C4     C19     1.411   .     A
C4     Br44    1.923   .     S
C4     C82     1.395   .     S
C5     C246    1.328   1_545 S
C5     H271    1.086   1_545 S
C6     C125    1.328   .     S
C6     H152    1.088   .     S
C7     O41     1.297   .     A
C7     C12     1.441   .     S
C7     O39     1.299   .     A
C8     C11     1.441   .     S
C8     O42     1.298   .     A
C8     O40     1.298   .     A
C9     C11     1.395   .     A
C9     H25     1.083   .     S
C9     C19     1.398   .     A
C10    H26     1.083   .     S
C10    C12     1.395   .     A
C10    C20     1.398   .     A
C11    C13     1.393   .     A
C12    C14     1.394   .     A
C13    C15     1.392   .     A
C13    H27     1.085   .     S
C14    H28     1.085   .     S
C14    C16     1.392   .     A
C15    C21     1.400   .     A
C15    C17     1.413   .     A
C16    C18     1.413   .     A
C16    C22     1.400   .     A
C17    C19     1.419   .     A
C17    C78     1.402   .     S
C18    C20     1.418   .     A
C18    C77     1.402   1_455 S
C21    H29     1.084   .     S
C21    C63     1.394   .     S
C22    H30     1.084   .     S
C22    C64     1.395   1_455 S
Cu23   Cu24    2.709   .     S
Cu23   O38     1.946   .     S
Cu23   O35     1.950   .     S
Cu23   O42     1.946   .     S
Cu23   O39     1.956   .     S
Cu23   N34     2.035   .     S
Cu24   N33     2.035   .     S
Cu24   O37     1.946   .     S
Cu24   O41     1.946   .     S
Cu24   O36     1.950   .     S
Cu24   O40     1.956   .     S
H31    C125    1.086   .     S
H32    C246    1.088   1_545 S
N33    N754    1.292   1_554 S
N33    O765    1.349   1_554 S
N34    N393    1.292   .     S
N34    O413    1.349   .     S
O45    C46     1.402   .     S
O45    N393    1.349   .     S
C46    C49     1.522   .     S
C46    H407    1.113   .     S
C46    H408    1.107   .     S
H47    C766    1.113   1_554 S
H48    C766    1.107   1_554 S
C49    H52     1.110   .     S
C49    H51     1.111   .     S
C49    H50     1.111   .     S
O53    C54     1.403   .     S
O53    N754    1.349   1_554 S
C54    H55     1.112   .     S
C54    C57     1.522   .     S
C54    H776    1.106   1_554 S
H56    C414    1.106   .     S
C57    H58     1.111   .     S
C57    H59     1.110   .     S
C57    H60     1.110   .     S
C61    O97     1.292   .     A
C61    C65     1.425   .     S
C61    O95     1.297   .     A
C62    O98     1.291   .     A
C62    C66     1.426   .     S
C62    O96     1.298   .     A
C63    C80     1.411   .     A
C63    Br103   1.923   .     S
C64    C79     1.411   .     A
C64    Br104   1.923   .     S
C64    C22     1.395   1_655 S
C65    C306    1.328   1_545 S
C65    H331    1.086   1_545 S
C66    C185    1.328   .     S
C66    H212    1.088   .     S
C67    O101    1.297   .     A
C67    C72     1.441   .     S
C67    O99     1.299   .     A
C68    C71     1.441   .     S
C68    O102    1.298   .     A
C68    O100    1.298   .     A
C69    C71     1.395   .     A
C69    H85     1.083   .     S
C69    C79     1.398   .     A
C70    H86     1.083   .     S
C70    C72     1.395   .     A
C70    C80     1.398   .     A
C71    C73     1.393   .     A
C72    C74     1.394   .     A
C73    C75     1.392   .     A
C73    H87     1.085   .     S
C74    H88     1.085   .     S
C74    C76     1.392   .     A
C75    C81     1.400   .     A
C75    C77     1.413   .     A
C76    C78     1.413   .     A
C76    C82     1.400   .     A
C77    C79     1.419   .     A
C77    C18     1.402   1_655 S
C78    C80     1.418   .     A
C81    H89     1.084   .     S
C81    C3      1.394   1_655 S
C82    H90     1.084   .     S
Cu83   Cu84    2.709   .     S
Cu83   O98     1.946   .     S
Cu83   O95     1.950   .     S
Cu83   O102    1.946   .     S
Cu83   O99     1.956   .     S
Cu83   N94     2.035   .     S
Cu84   N93     2.035   .     S
Cu84   O97     1.946   .     S
Cu84   O101    1.946   .     S
Cu84   O96     1.950   .     S
Cu84   O100    1.956   .     S
H91    C185    1.086   .     S
H92    C306    1.088   1_545 S
N93    N814    1.292   1_554 S
N93    O825    1.349   1_554 S
N94    N453    1.292   .     S
N94    O473    1.349   .     S
O105   C106    1.402   .     S
O105   N453    1.349   .     S
C106   C109    1.522   .     S
C106   H467    1.113   .     S
C106   H468    1.107   .     S
H107   C826    1.113   1_554 S
H108   C826    1.107   1_554 S
C109   H112    1.110   .     S
C109   H111    1.111   .     S
C109   H110    1.111   .     S
O113   C114    1.403   .     S
O113   N814    1.349   1_554 S
C114   H115    1.112   .     S
C114   C117    1.522   .     S
C114   H836    1.106   1_554 S
H116   C474    1.106   .     S
C117   H118    1.111   .     S
C117   H119    1.110   .     S
C117   H120    1.110   .     S
C121   O157    1.292   .     A
C121   C125    1.425   .     S
C121   O155    1.297   .     A
C122   O158    1.291   .     A
C122   C126    1.426   .     S
C122   O156    1.298   .     A
C123   C140    1.411   .     A
C123   Br163   1.923   .     S
C123   C201    1.394   1_455 S
C124   C139    1.411   .     A
C124   Br164   1.923   .     S
C124   C202    1.395   .     S
C126   C245    1.328   .     S
C126   H272    1.088   .     S
C127   O161    1.297   .     A
C127   C132    1.441   .     S
C127   O159    1.299   .     A
C128   C131    1.441   .     S
C128   O162    1.298   .     A
C128   O160    1.298   .     A
C129   C131    1.395   .     A
C129   H145    1.083   .     S
C129   C139    1.398   .     A
C130   H146    1.083   .     S
C130   C132    1.395   .     A
C130   C140    1.398   .     A
C131   C133    1.393   .     A
C132   C134    1.394   .     A
C133   C135    1.392   .     A
C133   H147    1.085   .     S
C134   H148    1.085   .     S
C134   C136    1.392   .     A
C135   C141    1.400   .     A
C135   C137    1.413   .     A
C136   C138    1.413   .     A
C136   C142    1.400   .     A
C137   C139    1.419   .     A
C137   C198    1.402   .     S
C138   C140    1.418   .     A
C138   C197    1.402   1_455 S
C141   H149    1.084   .     S
C141   C183    1.394   .     S
C142   H150    1.084   .     S
C142   C184    1.395   1_455 S
Cu143  Cu144   2.709   .     S
Cu143  O158    1.946   .     S
Cu143  O155    1.950   .     S
Cu143  O162    1.946   .     S
Cu143  O159    1.956   .     S
Cu143  N154    2.035   .     S
Cu144  N153    2.035   .     S
Cu144  O157    1.946   .     S
Cu144  O161    1.946   .     S
Cu144  O156    1.950   .     S
Cu144  O160    1.956   .     S
H151   C245    1.086   .     S
N153   N874    1.292   1_554 S
N153   O885    1.349   1_554 S
N154   N513    1.292   .     S
N154   O533    1.349   .     S
O165   C166    1.402   .     S
O165   N513    1.349   .     S
C166   C169    1.522   .     S
C166   H527    1.113   .     S
C166   H528    1.107   .     S
H167   C886    1.113   1_554 S
H168   C886    1.107   1_554 S
C169   H172    1.110   .     S
C169   H171    1.111   .     S
C169   H170    1.111   .     S
O173   C174    1.403   .     S
O173   N874    1.349   1_554 S
C174   H175    1.112   .     S
C174   C177    1.522   .     S
C174   H896    1.106   1_554 S
H176   C534    1.106   .     S
C177   H178    1.111   .     S
C177   H179    1.110   .     S
C177   H180    1.110   .     S
C181   O217    1.292   .     A
C181   C185    1.425   .     S
C181   O215    1.297   .     A
C182   O218    1.291   .     A
C182   C186    1.426   .     S
C182   O216    1.298   .     A
C183   C200    1.411   .     A
C183   Br223   1.923   .     S
C184   C199    1.411   .     A
C184   Br224   1.923   .     S
C184   C142    1.395   1_655 S
C186   C305    1.328   .     S
C186   H332    1.088   .     S
C187   O221    1.297   .     A
C187   C192    1.441   .     S
C187   O219    1.299   .     A
C188   C191    1.441   .     S
C188   O222    1.298   .     A
C188   O220    1.298   .     A
C189   C191    1.395   .     A
C189   H205    1.083   .     S
C189   C199    1.398   .     A
C190   H206    1.083   .     S
C190   C192    1.395   .     A
C190   C200    1.398   .     A
C191   C193    1.393   .     A
C192   C194    1.394   .     A
C193   C195    1.392   .     A
C193   H207    1.085   .     S
C194   H208    1.085   .     S
C194   C196    1.392   .     A
C195   C201    1.400   .     A
C195   C197    1.413   .     A
C196   C198    1.413   .     A
C196   C202    1.400   .     A
C197   C199    1.419   .     A
C197   C138    1.402   1_655 S
C198   C200    1.418   .     A
C201   H209    1.084   .     S
C201   C123    1.394   1_655 S
C202   H210    1.084   .     S
Cu203  Cu204   2.709   .     S
Cu203  O218    1.946   .     S
Cu203  O215    1.950   .     S
Cu203  O222    1.946   .     S
Cu203  O219    1.956   .     S
Cu203  N214    2.035   .     S
Cu204  N213    2.035   .     S
Cu204  O217    1.946   .     S
Cu204  O221    1.946   .     S
Cu204  O216    1.950   .     S
Cu204  O220    1.956   .     S
H211   C305    1.086   .     S
N213   N934    1.292   1_554 S
N213   O945    1.349   1_554 S
N214   N573    1.292   .     S
N214   O593    1.349   .     S
O225   C226    1.402   .     S
O225   N573    1.349   .     S
C226   C229    1.522   .     S
C226   H587    1.113   .     S
C226   H588    1.107   .     S
H227   C946    1.113   1_554 S
H228   C946    1.107   1_554 S
C229   H232    1.110   .     S
C229   H231    1.111   .     S
C229   H230    1.111   .     S
O233   C234    1.403   .     S
O233   N934    1.349   1_554 S
C234   H235    1.112   .     S
C234   C237    1.522   .     S
C234   H956    1.106   1_554 S
H236   C594    1.106   .     S
C237   H238    1.111   .     S
C237   H239    1.110   .     S
C237   H240    1.110   .     S
C241   O277    1.292   .     A
C241   C245    1.425   .     S
C241   O275    1.297   .     A
C242   O278    1.291   .     A
C242   C246    1.426   .     S
C242   O276    1.298   .     A
C243   C260    1.411   .     A
C243   Br283   1.923   .     S
C243   C321    1.394   1_455 S
C244   C259    1.411   .     A
C244   Br284   1.923   .     S
C244   C322    1.395   .     S
C246   C5      1.328   1_565 S
C246   H32     1.088   1_565 S
C247   O281    1.297   .     A
C247   C252    1.441   .     S
C247   O279    1.299   .     A
C248   C251    1.441   .     S
C248   O282    1.298   .     A
C248   O280    1.298   .     A
C249   C251    1.395   .     A
C249   H265    1.083   .     S
C249   C259    1.398   .     A
C250   H266    1.083   .     S
C250   C252    1.395   .     A
C250   C260    1.398   .     A
C251   C253    1.393   .     A
C252   C254    1.394   .     A
C253   C255    1.392   .     A
C253   H267    1.085   .     S
C254   H268    1.085   .     S
C254   C256    1.392   .     A
C255   C261    1.400   .     A
C255   C257    1.413   .     A
C256   C258    1.413   .     A
C256   C262    1.400   .     A
C257   C259    1.419   .     A
C257   C318    1.402   .     S
C258   C260    1.418   .     A
C258   C317    1.402   1_455 S
C261   H269    1.084   .     S
C261   C303    1.394   .     S
C262   H270    1.084   .     S
C262   C304    1.395   1_455 S
Cu263  Cu264   2.709   .     S
Cu263  O278    1.946   .     S
Cu263  O275    1.950   .     S
Cu263  O282    1.946   .     S
Cu263  O279    1.956   .     S
Cu263  N274    2.035   .     S
Cu264  N273    2.035   .     S
Cu264  O277    1.946   .     S
Cu264  O281    1.946   .     S
Cu264  O276    1.950   .     S
Cu264  O280    1.956   .     S
H271   C5      1.086   1_565 S
N273   N994    1.292   1_554 S
N273   O1005   1.349   1_554 S
N274   N633    1.292   .     S
N274   O653    1.349   .     S
O285   C286    1.402   .     S
O285   N633    1.349   .     S
C286   C289    1.522   .     S
C286   H647    1.113   .     S
C286   H648    1.107   .     S
H287   C1006   1.113   1_554 S
H288   C1006   1.107   1_554 S
C289   H292    1.110   .     S
C289   H291    1.111   .     S
C289   H290    1.111   .     S
O293   C294    1.403   .     S
O293   N994    1.349   1_554 S
C294   H295    1.112   .     S
C294   C297    1.522   .     S
C294   H1016   1.106   1_554 S
H296   C654    1.106   .     S
C297   H298    1.111   .     S
C297   H299    1.110   .     S
C297   H300    1.110   .     S
C301   O337    1.292   .     A
C301   C305    1.425   .     S
C301   O335    1.297   .     A
C302   O338    1.291   .     A
C302   C306    1.426   .     S
C302   O336    1.298   .     A
C303   C320    1.411   .     A
C303   Br343   1.923   .     S
C304   C319    1.411   .     A
C304   Br344   1.923   .     S
C304   C262    1.395   1_655 S
C306   C65     1.328   1_565 S
C306   H92     1.088   1_565 S
C307   O341    1.297   .     A
C307   C312    1.441   .     S
C307   O339    1.299   .     A
C308   C311    1.441   .     S
C308   O342    1.298   .     A
C308   O340    1.298   .     A
C309   C311    1.395   .     A
C309   H325    1.083   .     S
C309   C319    1.398   .     A
C310   H326    1.083   .     S
C310   C312    1.395   .     A
C310   C320    1.398   .     A
C311   C313    1.393   .     A
C312   C314    1.394   .     A
C313   C315    1.392   .     A
C313   H327    1.085   .     S
C314   H328    1.085   .     S
C314   C316    1.392   .     A
C315   C321    1.400   .     A
C315   C317    1.413   .     A
C316   C318    1.413   .     A
C316   C322    1.400   .     A
C317   C319    1.419   .     A
C317   C258    1.402   1_655 S
C318   C320    1.418   .     A
C321   H329    1.084   .     S
C321   C243    1.394   1_655 S
C322   H330    1.084   .     S
Cu323  Cu324   2.709   .     S
Cu323  O338    1.946   .     S
Cu323  O335    1.950   .     S
Cu323  O342    1.946   .     S
Cu323  O339    1.956   .     S
Cu323  N334    2.035   .     S
Cu324  N333    2.035   .     S
Cu324  O337    1.946   .     S
Cu324  O341    1.946   .     S
Cu324  O336    1.950   .     S
Cu324  O340    1.956   .     S
H331   C65     1.086   1_565 S
N333   N1054   1.292   1_554 S
N333   O1065   1.349   1_554 S
N334   N693    1.292   .     S
N334   O713    1.349   .     S
O345   C346    1.402   .     S
O345   N693    1.349   .     S
C346   C349    1.522   .     S
C346   H707    1.113   .     S
C346   H708    1.107   .     S
H347   C1066   1.113   1_554 S
H348   C1066   1.107   1_554 S
C349   H352    1.110   .     S
C349   H351    1.111   .     S
C349   H350    1.111   .     S
O353   C354    1.403   .     S
O353   N1054   1.349   1_554 S
C354   H355    1.112   .     S
C354   C357    1.522   .     S
C354   H1076   1.106   1_554 S
H356   C714    1.106   .     S
C357   H358    1.111   .     S
C357   H359    1.110   .     S
C357   H360    1.110   .     S
C361   O397    1.292   .     A
C361   C365    1.425   .     S
C361   O395    1.297   .     A
C362   O398    1.291   .     A
C362   C366    1.426   .     S
C362   O396    1.298   .     A
C363   C380    1.411   .     A
C363   Br403   1.923   .     S
C363   C441    1.394   1_455 S
C364   C379    1.411   .     A
C364   Br404   1.923   .     S
C364   C442    1.395   .     S
C365   C606    1.328   1_545 S
C365   H631    1.086   1_545 S
C366   C485    1.328   .     S
C366   H512    1.088   .     S
C367   O401    1.297   .     A
C367   C372    1.441   .     S
C367   O399    1.299   .     A
C368   C371    1.441   .     S
C368   O402    1.298   .     A
C368   O400    1.298   .     A
C369   C371    1.395   .     A
C369   H385    1.083   .     S
C369   C379    1.398   .     A
C370   H386    1.083   .     S
C370   C372    1.395   .     A
C370   C380    1.398   .     A
C371   C373    1.393   .     A
C372   C374    1.394   .     A
C373   C375    1.392   .     A
C373   H387    1.085   .     S
C374   H388    1.085   .     S
C374   C376    1.392   .     A
C375   C381    1.400   .     A
C375   C377    1.413   .     A
C376   C378    1.413   .     A
C376   C382    1.400   .     A
C377   C379    1.419   .     A
C377   C438    1.402   .     S
C378   C380    1.418   .     A
C378   C437    1.402   1_455 S
C381   H389    1.084   .     S
C381   C423    1.394   .     S
C382   H390    1.084   .     S
C382   C424    1.395   1_455 S
Cu383  Cu384   2.709   .     S
Cu383  O398    1.946   .     S
Cu383  O395    1.950   .     S
Cu383  O402    1.946   .     S
Cu383  O399    1.956   .     S
Cu383  N394    2.035   .     S
Cu384  N393    2.035   .     S
Cu384  O397    1.946   .     S
Cu384  O401    1.946   .     S
Cu384  O396    1.950   .     S
Cu384  O400    1.956   .     S
H391   C485    1.086   .     S
H392   C606    1.088   1_545 S
N394   N753    1.292   .     S
N394   O773    1.349   .     S
O405   C406    1.402   .     S
O405   N753    1.349   .     S
C406   C409    1.522   .     S
C406   H767    1.113   .     S
C406   H768    1.107   .     S
C409   H412    1.110   .     S
C409   H411    1.111   .     S
C409   H410    1.111   .     S
O413   C414    1.403   .     S
C414   H415    1.112   .     S
C414   C417    1.522   .     S
H416   C774    1.106   .     S
C417   H418    1.111   .     S
C417   H419    1.110   .     S
C417   H420    1.110   .     S
C421   O457    1.292   .     A
C421   C425    1.425   .     S
C421   O455    1.297   .     A
C422   O458    1.291   .     A
C422   C426    1.426   .     S
C422   O456    1.298   .     A
C423   C440    1.411   .     A
C423   Br463   1.923   .     S
C424   C439    1.411   .     A
C424   Br464   1.923   .     S
C424   C382    1.395   1_655 S
C425   C666    1.328   1_545 S
C425   H691    1.086   1_545 S
C426   C545    1.328   .     S
C426   H572    1.088   .     S
C427   O461    1.297   .     A
C427   C432    1.441   .     S
C427   O459    1.299   .     A
C428   C431    1.441   .     S
C428   O462    1.298   .     A
C428   O460    1.298   .     A
C429   C431    1.395   .     A
C429   H445    1.083   .     S
C429   C439    1.398   .     A
C430   H446    1.083   .     S
C430   C432    1.395   .     A
C430   C440    1.398   .     A
C431   C433    1.393   .     A
C432   C434    1.394   .     A
C433   C435    1.392   .     A
C433   H447    1.085   .     S
C434   H448    1.085   .     S
C434   C436    1.392   .     A
C435   C441    1.400   .     A
C435   C437    1.413   .     A
C436   C438    1.413   .     A
C436   C442    1.400   .     A
C437   C439    1.419   .     A
C437   C378    1.402   1_655 S
C438   C440    1.418   .     A
C441   H449    1.084   .     S
C441   C363    1.394   1_655 S
C442   H450    1.084   .     S
Cu443  Cu444   2.709   .     S
Cu443  O458    1.946   .     S
Cu443  O455    1.950   .     S
Cu443  O462    1.946   .     S
Cu443  O459    1.956   .     S
Cu443  N454    2.035   .     S
Cu444  N453    2.035   .     S
Cu444  O457    1.946   .     S
Cu444  O461    1.946   .     S
Cu444  O456    1.950   .     S
Cu444  O460    1.956   .     S
H451   C545    1.086   .     S
H452   C666    1.088   1_545 S
N454   N813    1.292   .     S
N454   O833    1.349   .     S
O465   C466    1.402   .     S
O465   N813    1.349   .     S
C466   C469    1.522   .     S
C466   H827    1.113   .     S
C466   H828    1.107   .     S
C469   H472    1.110   .     S
C469   H471    1.111   .     S
C469   H470    1.111   .     S
O473   C474    1.403   .     S
C474   H475    1.112   .     S
C474   C477    1.522   .     S
H476   C834    1.106   .     S
C477   H478    1.111   .     S
C477   H479    1.110   .     S
C477   H480    1.110   .     S
C481   O517    1.292   .     A
C481   C485    1.425   .     S
C481   O515    1.297   .     A
C482   O518    1.291   .     A
C482   C486    1.426   .     S
C482   O516    1.298   .     A
C483   C500    1.411   .     A
C483   Br523   1.923   .     S
C483   C561    1.394   1_455 S
C484   C499    1.411   .     A
C484   Br524   1.923   .     S
C484   C562    1.395   .     S
C486   C605    1.328   .     S
C486   H632    1.088   .     S
C487   O521    1.297   .     A
C487   C492    1.441   .     S
C487   O519    1.299   .     A
C488   C491    1.441   .     S
C488   O522    1.298   .     A
C488   O520    1.298   .     A
C489   C491    1.395   .     A
C489   H505    1.083   .     S
C489   C499    1.398   .     A
C490   H506    1.083   .     S
C490   C492    1.395   .     A
C490   C500    1.398   .     A
C491   C493    1.393   .     A
C492   C494    1.394   .     A
C493   C495    1.392   .     A
C493   H507    1.085   .     S
C494   H508    1.085   .     S
C494   C496    1.392   .     A
C495   C501    1.400   .     A
C495   C497    1.413   .     A
C496   C498    1.413   .     A
C496   C502    1.400   .     A
C497   C499    1.419   .     A
C497   C558    1.402   .     S
C498   C500    1.418   .     A
C498   C557    1.402   1_455 S
C501   H509    1.084   .     S
C501   C543    1.394   .     S
C502   H510    1.084   .     S
C502   C544    1.395   1_455 S
Cu503  Cu504   2.709   .     S
Cu503  O518    1.946   .     S
Cu503  O515    1.950   .     S
Cu503  O522    1.946   .     S
Cu503  O519    1.956   .     S
Cu503  N514    2.035   .     S
Cu504  N513    2.035   .     S
Cu504  O517    1.946   .     S
Cu504  O521    1.946   .     S
Cu504  O516    1.950   .     S
Cu504  O520    1.956   .     S
H511   C605    1.086   .     S
N514   N873    1.292   .     S
N514   O893    1.349   .     S
O525   C526    1.402   .     S
O525   N873    1.349   .     S
C526   C529    1.522   .     S
C526   H887    1.113   .     S
C526   H888    1.107   .     S
C529   H532    1.110   .     S
C529   H531    1.111   .     S
C529   H530    1.111   .     S
O533   C534    1.403   .     S
C534   H535    1.112   .     S
C534   C537    1.522   .     S
H536   C894    1.106   .     S
C537   H538    1.111   .     S
C537   H539    1.110   .     S
C537   H540    1.110   .     S
C541   O577    1.292   .     A
C541   C545    1.425   .     S
C541   O575    1.297   .     A
C542   O578    1.291   .     A
C542   C546    1.426   .     S
C542   O576    1.298   .     A
C543   C560    1.411   .     A
C543   Br583   1.923   .     S
C544   C559    1.411   .     A
C544   Br584   1.923   .     S
C544   C502    1.395   1_655 S
C546   C665    1.328   .     S
C546   H692    1.088   .     S
C547   O581    1.297   .     A
C547   C552    1.441   .     S
C547   O579    1.299   .     A
C548   C551    1.441   .     S
C548   O582    1.298   .     A
C548   O580    1.298   .     A
C549   C551    1.395   .     A
C549   H565    1.083   .     S
C549   C559    1.398   .     A
C550   H566    1.083   .     S
C550   C552    1.395   .     A
C550   C560    1.398   .     A
C551   C553    1.393   .     A
C552   C554    1.394   .     A
C553   C555    1.392   .     A
C553   H567    1.085   .     S
C554   H568    1.085   .     S
C554   C556    1.392   .     A
C555   C561    1.400   .     A
C555   C557    1.413   .     A
C556   C558    1.413   .     A
C556   C562    1.400   .     A
C557   C559    1.419   .     A
C557   C498    1.402   1_655 S
C558   C560    1.418   .     A
C561   H569    1.084   .     S
C561   C483    1.394   1_655 S
C562   H570    1.084   .     S
Cu563  Cu564   2.709   .     S
Cu563  O578    1.946   .     S
Cu563  O575    1.950   .     S
Cu563  O582    1.946   .     S
Cu563  O579    1.956   .     S
Cu563  N574    2.035   .     S
Cu564  N573    2.035   .     S
Cu564  O577    1.946   .     S
Cu564  O581    1.946   .     S
Cu564  O576    1.950   .     S
Cu564  O580    1.956   .     S
H571   C665    1.086   .     S
N574   N933    1.292   .     S
N574   O953    1.349   .     S
O585   C586    1.402   .     S
O585   N933    1.349   .     S
C586   C589    1.522   .     S
C586   H947    1.113   .     S
C586   H948    1.107   .     S
C589   H592    1.110   .     S
C589   H591    1.111   .     S
C589   H590    1.111   .     S
O593   C594    1.403   .     S
C594   H595    1.112   .     S
C594   C597    1.522   .     S
H596   C954    1.106   .     S
C597   H598    1.111   .     S
C597   H599    1.110   .     S
C597   H600    1.110   .     S
C601   O637    1.292   .     A
C601   C605    1.425   .     S
C601   O635    1.297   .     A
C602   O638    1.291   .     A
C602   C606    1.426   .     S
C602   O636    1.298   .     A
C603   C620    1.411   .     A
C603   Br643   1.923   .     S
C603   C681    1.394   1_455 S
C604   C619    1.411   .     A
C604   Br644   1.923   .     S
C604   C682    1.395   .     S
C606   C365    1.328   1_565 S
C606   H392    1.088   1_565 S
C607   O641    1.297   .     A
C607   C612    1.441   .     S
C607   O639    1.299   .     A
C608   C611    1.441   .     S
C608   O642    1.298   .     A
C608   O640    1.298   .     A
C609   C611    1.395   .     A
C609   H625    1.083   .     S
C609   C619    1.398   .     A
C610   H626    1.083   .     S
C610   C612    1.395   .     A
C610   C620    1.398   .     A
C611   C613    1.393   .     A
C612   C614    1.394   .     A
C613   C615    1.392   .     A
C613   H627    1.085   .     S
C614   H628    1.085   .     S
C614   C616    1.392   .     A
C615   C621    1.400   .     A
C615   C617    1.413   .     A
C616   C618    1.413   .     A
C616   C622    1.400   .     A
C617   C619    1.419   .     A
C617   C678    1.402   .     S
C618   C620    1.418   .     A
C618   C677    1.402   1_455 S
C621   H629    1.084   .     S
C621   C663    1.394   .     S
C622   H630    1.084   .     S
C622   C664    1.395   1_455 S
Cu623  Cu624   2.709   .     S
Cu623  O638    1.946   .     S
Cu623  O635    1.950   .     S
Cu623  O642    1.946   .     S
Cu623  O639    1.956   .     S
Cu623  N634    2.035   .     S
Cu624  N633    2.035   .     S
Cu624  O637    1.946   .     S
Cu624  O641    1.946   .     S
Cu624  O636    1.950   .     S
Cu624  O640    1.956   .     S
H631   C365    1.086   1_565 S
N634   N993    1.292   .     S
N634   O1013   1.349   .     S
O645   C646    1.402   .     S
O645   N993    1.349   .     S
C646   C649    1.522   .     S
C646   H1007   1.113   .     S
C646   H1008   1.107   .     S
C649   H652    1.110   .     S
C649   H651    1.111   .     S
C649   H650    1.111   .     S
O653   C654    1.403   .     S
C654   H655    1.112   .     S
C654   C657    1.522   .     S
H656   C1014   1.106   .     S
C657   H658    1.111   .     S
C657   H659    1.110   .     S
C657   H660    1.110   .     S
C661   O697    1.292   .     A
C661   C665    1.425   .     S
C661   O695    1.297   .     A
C662   O698    1.291   .     A
C662   C666    1.426   .     S
C662   O696    1.298   .     A
C663   C680    1.411   .     A
C663   Br703   1.923   .     S
C664   C679    1.411   .     A
C664   Br704   1.923   .     S
C664   C622    1.395   1_655 S
C666   C425    1.328   1_565 S
C666   H452    1.088   1_565 S
C667   O701    1.297   .     A
C667   C672    1.441   .     S
C667   O699    1.299   .     A
C668   C671    1.441   .     S
C668   O702    1.298   .     A
C668   O700    1.298   .     A
C669   C671    1.395   .     A
C669   H685    1.083   .     S
C669   C679    1.398   .     A
C670   H686    1.083   .     S
C670   C672    1.395   .     A
C670   C680    1.398   .     A
C671   C673    1.393   .     A
C672   C674    1.394   .     A
C673   C675    1.392   .     A
C673   H687    1.085   .     S
C674   H688    1.085   .     S
C674   C676    1.392   .     A
C675   C681    1.400   .     A
C675   C677    1.413   .     A
C676   C678    1.413   .     A
C676   C682    1.400   .     A
C677   C679    1.419   .     A
C677   C618    1.402   1_655 S
C678   C680    1.418   .     A
C681   H689    1.084   .     S
C681   C603    1.394   1_655 S
C682   H690    1.084   .     S
Cu683  Cu684   2.709   .     S
Cu683  O698    1.946   .     S
Cu683  O695    1.950   .     S
Cu683  O702    1.946   .     S
Cu683  O699    1.956   .     S
Cu683  N694    2.035   .     S
Cu684  N693    2.035   .     S
Cu684  O697    1.946   .     S
Cu684  O701    1.946   .     S
Cu684  O696    1.950   .     S
Cu684  O700    1.956   .     S
H691   C425    1.086   1_565 S
N694   N1053   1.292   .     S
N694   O1073   1.349   .     S
O705   C706    1.402   .     S
O705   N1053   1.349   .     S
C706   C709    1.522   .     S
C706   H1067   1.113   .     S
C706   H1068   1.107   .     S
C709   H712    1.110   .     S
C709   H711    1.111   .     S
C709   H710    1.111   .     S
O713   C714    1.403   .     S
C714   H715    1.112   .     S
C714   C717    1.522   .     S
H716   C1074   1.106   .     S
C717   H718    1.111   .     S
C717   H719    1.110   .     S
C717   H720    1.110   .     S
C721   O757    1.292   .     A
C721   C725    1.425   .     S
C721   O755    1.297   .     A
C722   O758    1.291   .     A
C722   C726    1.426   .     S
C722   O756    1.298   .     A
C723   C740    1.411   .     A
C723   Br763   1.923   .     S
C723   C801    1.394   1_455 S
C724   C739    1.411   .     A
C724   Br764   1.923   .     S
C724   C802    1.395   .     S
C725   C966    1.328   1_545 S
C725   H991    1.086   1_545 S
C726   C845    1.328   .     S
C726   H872    1.088   .     S
C727   O761    1.297   .     A
C727   C732    1.441   .     S
C727   O759    1.299   .     A
C728   C731    1.441   .     S
C728   O762    1.298   .     A
C728   O760    1.298   .     A
C729   C731    1.395   .     A
C729   H745    1.083   .     S
C729   C739    1.398   .     A
C730   H746    1.083   .     S
C730   C732    1.395   .     A
C730   C740    1.398   .     A
C731   C733    1.393   .     A
C732   C734    1.394   .     A
C733   C735    1.392   .     A
C733   H747    1.085   .     S
C734   H748    1.085   .     S
C734   C736    1.392   .     A
C735   C741    1.400   .     A
C735   C737    1.413   .     A
C736   C738    1.413   .     A
C736   C742    1.400   .     A
C737   C739    1.419   .     A
C737   C798    1.402   .     S
C738   C740    1.418   .     A
C738   C797    1.402   1_455 S
C741   H749    1.084   .     S
C741   C783    1.394   .     S
C742   H750    1.084   .     S
C742   C784    1.395   1_455 S
Cu743  Cu744   2.709   .     S
Cu743  O758    1.946   .     S
Cu743  O755    1.950   .     S
Cu743  O762    1.946   .     S
Cu743  O759    1.956   .     S
Cu743  N754    2.035   .     S
Cu744  N753    2.035   .     S
Cu744  O757    1.946   .     S
Cu744  O761    1.946   .     S
Cu744  O756    1.950   .     S
Cu744  O760    1.956   .     S
H751   C845    1.086   .     S
H752   C966    1.088   1_545 S
N754   N33     1.292   1_556 S
N754   O53     1.349   1_556 S
O765   C766    1.402   .     S
O765   N33     1.349   1_556 S
C766   C769    1.522   .     S
C766   H47     1.113   1_556 S
C766   H48     1.107   1_556 S
C769   H772    1.110   .     S
C769   H771    1.111   .     S
C769   H770    1.111   .     S
O773   C774    1.403   .     S
C774   H775    1.112   .     S
C774   C777    1.522   .     S
H776   C54     1.106   1_556 S
C777   H778    1.111   .     S
C777   H779    1.110   .     S
C777   H780    1.110   .     S
C781   O817    1.292   .     A
C781   C785    1.425   .     S
C781   O815    1.297   .     A
C782   O818    1.291   .     A
C782   C786    1.426   .     S
C782   O816    1.298   .     A
C783   C800    1.411   .     A
C783   Br823   1.923   .     S
C784   C799    1.411   .     A
C784   Br824   1.923   .     S
C784   C742    1.395   1_655 S
C785   C1026   1.328   1_545 S
C785   H1051   1.086   1_545 S
C786   C905    1.328   .     S
C786   H932    1.088   .     S
C787   O821    1.297   .     A
C787   C792    1.441   .     S
C787   O819    1.299   .     A
C788   C791    1.441   .     S
C788   O822    1.298   .     A
C788   O820    1.298   .     A
C789   C791    1.395   .     A
C789   H805    1.083   .     S
C789   C799    1.398   .     A
C790   H806    1.083   .     S
C790   C792    1.395   .     A
C790   C800    1.398   .     A
C791   C793    1.393   .     A
C792   C794    1.394   .     A
C793   C795    1.392   .     A
C793   H807    1.085   .     S
C794   H808    1.085   .     S
C794   C796    1.392   .     A
C795   C801    1.400   .     A
C795   C797    1.413   .     A
C796   C798    1.413   .     A
C796   C802    1.400   .     A
C797   C799    1.419   .     A
C797   C738    1.402   1_655 S
C798   C800    1.418   .     A
C801   H809    1.084   .     S
C801   C723    1.394   1_655 S
C802   H810    1.084   .     S
Cu803  Cu804   2.709   .     S
Cu803  O818    1.946   .     S
Cu803  O815    1.950   .     S
Cu803  O822    1.946   .     S
Cu803  O819    1.956   .     S
Cu803  N814    2.035   .     S
Cu804  N813    2.035   .     S
Cu804  O817    1.946   .     S
Cu804  O821    1.946   .     S
Cu804  O816    1.950   .     S
Cu804  O820    1.956   .     S
H811   C905    1.086   .     S
H812   C1026   1.088   1_545 S
N814   N93     1.292   1_556 S
N814   O113    1.349   1_556 S
O825   C826    1.402   .     S
O825   N93     1.349   1_556 S
C826   C829    1.522   .     S
C826   H107    1.113   1_556 S
C826   H108    1.107   1_556 S
C829   H832    1.110   .     S
C829   H831    1.111   .     S
C829   H830    1.111   .     S
O833   C834    1.403   .     S
C834   H835    1.112   .     S
C834   C837    1.522   .     S
H836   C114    1.106   1_556 S
C837   H838    1.111   .     S
C837   H839    1.110   .     S
C837   H840    1.110   .     S
C841   O877    1.292   .     A
C841   C845    1.425   .     S
C841   O875    1.297   .     A
C842   O878    1.291   .     A
C842   C846    1.426   .     S
C842   O876    1.298   .     A
C843   C860    1.411   .     A
C843   Br883   1.923   .     S
C843   C921    1.394   1_455 S
C844   C859    1.411   .     A
C844   Br884   1.923   .     S
C844   C922    1.395   .     S
C846   C965    1.328   .     S
C846   H992    1.088   .     S
C847   O881    1.297   .     A
C847   C852    1.441   .     S
C847   O879    1.299   .     A
C848   C851    1.441   .     S
C848   O882    1.298   .     A
C848   O880    1.298   .     A
C849   C851    1.395   .     A
C849   H865    1.083   .     S
C849   C859    1.398   .     A
C850   H866    1.083   .     S
C850   C852    1.395   .     A
C850   C860    1.398   .     A
C851   C853    1.393   .     A
C852   C854    1.394   .     A
C853   C855    1.392   .     A
C853   H867    1.085   .     S
C854   H868    1.085   .     S
C854   C856    1.392   .     A
C855   C861    1.400   .     A
C855   C857    1.413   .     A
C856   C858    1.413   .     A
C856   C862    1.400   .     A
C857   C859    1.419   .     A
C857   C918    1.402   .     S
C858   C860    1.418   .     A
C858   C917    1.402   1_455 S
C861   H869    1.084   .     S
C861   C903    1.394   .     S
C862   H870    1.084   .     S
C862   C904    1.395   1_455 S
Cu863  Cu864   2.709   .     S
Cu863  O878    1.946   .     S
Cu863  O875    1.950   .     S
Cu863  O882    1.946   .     S
Cu863  O879    1.956   .     S
Cu863  N874    2.035   .     S
Cu864  N873    2.035   .     S
Cu864  O877    1.946   .     S
Cu864  O881    1.946   .     S
Cu864  O876    1.950   .     S
Cu864  O880    1.956   .     S
H871   C965    1.086   .     S
N874   N153    1.292   1_556 S
N874   O173    1.349   1_556 S
O885   C886    1.402   .     S
O885   N153    1.349   1_556 S
C886   C889    1.522   .     S
C886   H167    1.113   1_556 S
C886   H168    1.107   1_556 S
C889   H892    1.110   .     S
C889   H891    1.111   .     S
C889   H890    1.111   .     S
O893   C894    1.403   .     S
C894   H895    1.112   .     S
C894   C897    1.522   .     S
H896   C174    1.106   1_556 S
C897   H898    1.111   .     S
C897   H899    1.110   .     S
C897   H900    1.110   .     S
C901   O937    1.292   .     A
C901   C905    1.425   .     S
C901   O935    1.297   .     A
C902   O938    1.291   .     A
C902   C906    1.426   .     S
C902   O936    1.298   .     A
C903   C920    1.411   .     A
C903   Br943   1.923   .     S
C904   C919    1.411   .     A
C904   Br944   1.923   .     S
C904   C862    1.395   1_655 S
C906   C1025   1.328   .     S
C906   H1052   1.088   .     S
C907   O941    1.297   .     A
C907   C912    1.441   .     S
C907   O939    1.299   .     A
C908   C911    1.441   .     S
C908   O942    1.298   .     A
C908   O940    1.298   .     A
C909   C911    1.395   .     A
C909   H925    1.083   .     S
C909   C919    1.398   .     A
C910   H926    1.083   .     S
C910   C912    1.395   .     A
C910   C920    1.398   .     A
C911   C913    1.393   .     A
C912   C914    1.394   .     A
C913   C915    1.392   .     A
C913   H927    1.085   .     S
C914   H928    1.085   .     S
C914   C916    1.392   .     A
C915   C921    1.400   .     A
C915   C917    1.413   .     A
C916   C918    1.413   .     A
C916   C922    1.400   .     A
C917   C919    1.419   .     A
C917   C858    1.402   1_655 S
C918   C920    1.418   .     A
C921   H929    1.084   .     S
C921   C843    1.394   1_655 S
C922   H930    1.084   .     S
Cu923  Cu924   2.709   .     S
Cu923  O938    1.946   .     S
Cu923  O935    1.950   .     S
Cu923  O942    1.946   .     S
Cu923  O939    1.956   .     S
Cu923  N934    2.035   .     S
Cu924  N933    2.035   .     S
Cu924  O937    1.946   .     S
Cu924  O941    1.946   .     S
Cu924  O936    1.950   .     S
Cu924  O940    1.956   .     S
H931   C1025   1.086   .     S
N934   N213    1.292   1_556 S
N934   O233    1.349   1_556 S
O945   C946    1.402   .     S
O945   N213    1.349   1_556 S
C946   C949    1.522   .     S
C946   H227    1.113   1_556 S
C946   H228    1.107   1_556 S
C949   H952    1.110   .     S
C949   H951    1.111   .     S
C949   H950    1.111   .     S
O953   C954    1.403   .     S
C954   H955    1.112   .     S
C954   C957    1.522   .     S
H956   C234    1.106   1_556 S
C957   H958    1.111   .     S
C957   H959    1.110   .     S
C957   H960    1.110   .     S
C961   O997    1.292   .     A
C961   C965    1.425   .     S
C961   O995    1.297   .     A
C962   O998    1.291   .     A
C962   C966    1.426   .     S
C962   O996    1.298   .     A
C963   C980    1.411   .     A
C963   Br1003  1.923   .     S
C963   C1041   1.394   1_455 S
C964   C979    1.411   .     A
C964   Br1004  1.923   .     S
C964   C1042   1.395   .     S
C966   C725    1.328   1_565 S
C966   H752    1.088   1_565 S
C967   O1001   1.297   .     A
C967   C972    1.441   .     S
C967   O999    1.299   .     A
C968   C971    1.441   .     S
C968   O1002   1.298   .     A
C968   O1000   1.298   .     A
C969   C971    1.395   .     A
C969   H985    1.083   .     S
C969   C979    1.398   .     A
C970   H986    1.083   .     S
C970   C972    1.395   .     A
C970   C980    1.398   .     A
C971   C973    1.393   .     A
C972   C974    1.394   .     A
C973   C975    1.392   .     A
C973   H987    1.085   .     S
C974   H988    1.085   .     S
C974   C976    1.392   .     A
C975   C981    1.400   .     A
C975   C977    1.413   .     A
C976   C978    1.413   .     A
C976   C982    1.400   .     A
C977   C979    1.419   .     A
C977   C1038   1.402   .     S
C978   C980    1.418   .     A
C978   C1037   1.402   1_455 S
C981   H989    1.084   .     S
C981   C1023   1.394   .     S
C982   H990    1.084   .     S
C982   C1024   1.395   1_455 S
Cu983  Cu984   2.709   .     S
Cu983  O998    1.946   .     S
Cu983  O995    1.950   .     S
Cu983  O1002   1.946   .     S
Cu983  O999    1.956   .     S
Cu983  N994    2.035   .     S
Cu984  N993    2.035   .     S
Cu984  O997    1.946   .     S
Cu984  O1001   1.946   .     S
Cu984  O996    1.950   .     S
Cu984  O1000   1.956   .     S
H991   C725    1.086   1_565 S
N994   N273    1.292   1_556 S
N994   O293    1.349   1_556 S
O1005  C1006   1.402   .     S
O1005  N273    1.349   1_556 S
C1006  C1009   1.522   .     S
C1006  H287    1.113   1_556 S
C1006  H288    1.107   1_556 S
C1009  H1012   1.110   .     S
C1009  H1011   1.111   .     S
C1009  H1010   1.111   .     S
O1013  C1014   1.403   .     S
C1014  H1015   1.112   .     S
C1014  C1017   1.522   .     S
H1016  C294    1.106   1_556 S
C1017  H1018   1.111   .     S
C1017  H1019   1.110   .     S
C1017  H1020   1.110   .     S
C1021  O1057   1.292   .     A
C1021  C1025   1.425   .     S
C1021  O1055   1.297   .     A
C1022  O1058   1.291   .     A
C1022  C1026   1.426   .     S
C1022  O1056   1.298   .     A
C1023  C1040   1.411   .     A
C1023  Br1063  1.923   .     S
C1024  C1039   1.411   .     A
C1024  Br1064  1.923   .     S
C1024  C982    1.395   1_655 S
C1026  C785    1.328   1_565 S
C1026  H812    1.088   1_565 S
C1027  O1061   1.297   .     A
C1027  C1032   1.441   .     S
C1027  O1059   1.299   .     A
C1028  C1031   1.441   .     S
C1028  O1062   1.298   .     A
C1028  O1060   1.298   .     A
C1029  C1031   1.395   .     A
C1029  H1045   1.083   .     S
C1029  C1039   1.398   .     A
C1030  H1046   1.083   .     S
C1030  C1032   1.395   .     A
C1030  C1040   1.398   .     A
C1031  C1033   1.393   .     A
C1032  C1034   1.394   .     A
C1033  C1035   1.392   .     A
C1033  H1047   1.085   .     S
C1034  H1048   1.085   .     S
C1034  C1036   1.392   .     A
C1035  C1041   1.400   .     A
C1035  C1037   1.413   .     A
C1036  C1038   1.413   .     A
C1036  C1042   1.400   .     A
C1037  C1039   1.419   .     A
C1037  C978    1.402   1_655 S
C1038  C1040   1.418   .     A
C1041  H1049   1.084   .     S
C1041  C963    1.394   1_655 S
C1042  H1050   1.084   .     S
Cu1043 Cu1044  2.709   .     S
Cu1043 O1058   1.946   .     S
Cu1043 O1055   1.950   .     S
Cu1043 O1062   1.946   .     S
Cu1043 O1059   1.956   .     S
Cu1043 N1054   2.035   .     S
Cu1044 N1053   2.035   .     S
Cu1044 O1057   1.946   .     S
Cu1044 O1061   1.946   .     S
Cu1044 O1056   1.950   .     S
Cu1044 O1060   1.956   .     S
H1051  C785    1.086   1_565 S
N1054  N333    1.292   1_556 S
N1054  O353    1.349   1_556 S
O1065  C1066   1.402   .     S
O1065  N333    1.349   1_556 S
C1066  C1069   1.522   .     S
C1066  H347    1.113   1_556 S
C1066  H348    1.107   1_556 S
C1069  H1072   1.110   .     S
C1069  H1071   1.111   .     S
C1069  H1070   1.111   .     S
O1073  C1074   1.403   .     S
C1074  H1075   1.112   .     S
C1074  C1077   1.522   .     S
H1076  C354    1.106   1_556 S
C1077  H1078   1.111   .     S
C1077  H1079   1.110   .     S
C1077  H1080   1.110   .     S
