data_str_m2_o10_o17_pcu_sym.127
_audit_creation_date              2020-01-03
_audit_creation_method            'Materials Studio'
_symmetry_space_group_name_H-M    'P1'
_symmetry_Int_Tables_number       1
_symmetry_cell_setting            triclinic
loop_
_symmetry_equiv_pos_as_xyz
  x,y,z
_cell_length_a                    29.9173
_cell_length_b                    26.0119
_cell_length_c                    22.5913
_cell_angle_alpha                 103.2189
_cell_angle_beta                  94.7936
_cell_angle_gamma                 93.7028
loop_
_atom_site_label
_atom_site_type_symbol
_atom_site_fract_x
_atom_site_fract_y
_atom_site_fract_z
_atom_site_U_iso_or_equiv
_atom_site_adp_type
_atom_site_occupancy
C1     C     0.24860   0.06662   0.15102   0.00000  Uiso   1.00
C2     C     0.25140   0.26671   0.18231   0.00000  Uiso   1.00
C3     C     0.01446   0.06943   0.13953   0.00000  Uiso   1.00
C4     C     0.48554   0.26391   0.19381   0.00000  Uiso   1.00
C5     C     0.24767   0.01046   0.14244   0.00000  Uiso   1.00
C6     C     0.25233   0.32287   0.19089   0.00000  Uiso   1.00
C7     C     0.16466   0.16605   0.16702   0.00000  Uiso   1.00
C8     C     0.33534   0.16728   0.16631   0.00000  Uiso   1.00
C9     C     0.41020   0.21689   0.17970   0.00000  Uiso   1.00
C10    C     0.08980   0.11645   0.15363   0.00000  Uiso   1.00
C11    C     0.38351   0.16840   0.16553   0.00000  Uiso   1.00
C12    C     0.11649   0.16493   0.16780   0.00000  Uiso   1.00
C13    C     0.40252   0.12013   0.15168   0.00000  Uiso   1.00
C14    C     0.09748   0.21320   0.18165   0.00000  Uiso   1.00
C15    C     0.44891   0.11914   0.15220   0.00000  Uiso   1.00
C16    C     0.05109   0.21419   0.18114   0.00000  Uiso   1.00
C17    C     0.47652   0.16728   0.16638   0.00000  Uiso   1.00
C18    C     0.02348   0.16606   0.16695   0.00000  Uiso   1.00
C19    C     0.45723   0.21654   0.18004   0.00000  Uiso   1.00
C20    C     0.04277   0.11680   0.15329   0.00000  Uiso   1.00
C21    C     0.46802   0.07067   0.13899   0.00000  Uiso   1.00
C22    C     0.03198   0.26267   0.19434   0.00000  Uiso   1.00
Cu23   Cu    0.25501   0.17246   0.22813   0.00000  Uiso   1.00
Cu24   Cu    0.24500   0.16087   0.10521   0.00000  Uiso   1.00
H25    H     0.38100   0.08332   0.14111   0.00000  Uiso   1.00
H26    H     0.11901   0.25001   0.19222   0.00000  Uiso   1.00
H27    H     0.44698   0.03356   0.12821   0.00000  Uiso   1.00
H28    H     0.05302   0.29977   0.20512   0.00000  Uiso   1.00
H29    H     0.02768   0.03104   0.12898   0.00000  Uiso   1.00
H30    H     0.47233   0.30230   0.20436   0.00000  Uiso   1.00
H31    H     0.24304   0.31959   0.09592   0.00000  Uiso   1.00
H32    H     0.25696   0.01374   0.23742   0.00000  Uiso   1.00
N33    N     0.23745   0.15214   0.01284   0.00000  Uiso   1.00
N34    N     0.26256   0.18119   0.32049   0.00000  Uiso   1.00
O35    O     0.25326   0.09538   0.20659   0.00000  Uiso   1.00
O36    O     0.24675   0.23796   0.12674   0.00000  Uiso   1.00
O37    O     0.24480   0.08559   0.10279   0.00000  Uiso   1.00
O38    O     0.25520   0.24774   0.23055   0.00000  Uiso   1.00
O39    O     0.18936   0.17155   0.21857   0.00000  Uiso   1.00
O40    O     0.31065   0.16179   0.11476   0.00000  Uiso   1.00
O41    O     0.18090   0.16176   0.11477   0.00000  Uiso   1.00
O42    O     0.31910   0.17157   0.21857   0.00000  Uiso   1.00
Br43   Br    0.38154   0.28251   0.19811   0.00000  Uiso   1.00
Br44   Br    0.11846   0.05082   0.13523   0.00000  Uiso   1.00
Br45   Br    0.19226   0.10138   0.30091   0.00000  Uiso   1.00
Br46   Br    0.30774   0.23195   0.03243   0.00000  Uiso   1.00
C47    C     0.74860   0.06662   0.15102   0.00000  Uiso   1.00
C48    C     0.75140   0.26671   0.18231   0.00000  Uiso   1.00
C49    C     0.51446   0.06943   0.13953   0.00000  Uiso   1.00
C50    C     0.98554   0.26391   0.19381   0.00000  Uiso   1.00
C51    C     0.74767   0.01046   0.14244   0.00000  Uiso   1.00
C52    C     0.75233   0.32287   0.19089   0.00000  Uiso   1.00
C53    C     0.66466   0.16605   0.16702   0.00000  Uiso   1.00
C54    C     0.83534   0.16728   0.16631   0.00000  Uiso   1.00
C55    C     0.91020   0.21689   0.17970   0.00000  Uiso   1.00
C56    C     0.58980   0.11645   0.15363   0.00000  Uiso   1.00
C57    C     0.88351   0.16840   0.16553   0.00000  Uiso   1.00
C58    C     0.61649   0.16493   0.16780   0.00000  Uiso   1.00
C59    C     0.90252   0.12013   0.15168   0.00000  Uiso   1.00
C60    C     0.59748   0.21320   0.18165   0.00000  Uiso   1.00
C61    C     0.94891   0.11914   0.15220   0.00000  Uiso   1.00
C62    C     0.55109   0.21419   0.18114   0.00000  Uiso   1.00
C63    C     0.97652   0.16728   0.16638   0.00000  Uiso   1.00
C64    C     0.52348   0.16606   0.16695   0.00000  Uiso   1.00
C65    C     0.95723   0.21654   0.18004   0.00000  Uiso   1.00
C66    C     0.54277   0.11680   0.15329   0.00000  Uiso   1.00
C67    C     0.96802   0.07067   0.13899   0.00000  Uiso   1.00
C68    C     0.53198   0.26267   0.19434   0.00000  Uiso   1.00
Cu69   Cu    0.75501   0.17246   0.22813   0.00000  Uiso   1.00
Cu70   Cu    0.74500   0.16087   0.10521   0.00000  Uiso   1.00
H71    H     0.88100   0.08332   0.14111   0.00000  Uiso   1.00
H72    H     0.61901   0.25001   0.19222   0.00000  Uiso   1.00
H73    H     0.94698   0.03356   0.12821   0.00000  Uiso   1.00
H74    H     0.55302   0.29977   0.20512   0.00000  Uiso   1.00
H75    H     0.52768   0.03104   0.12898   0.00000  Uiso   1.00
H76    H     0.97233   0.30230   0.20436   0.00000  Uiso   1.00
H77    H     0.74304   0.31959   0.09592   0.00000  Uiso   1.00
H78    H     0.75696   0.01374   0.23742   0.00000  Uiso   1.00
N79    N     0.73745   0.15214   0.01284   0.00000  Uiso   1.00
N80    N     0.76256   0.18119   0.32049   0.00000  Uiso   1.00
O81    O     0.75326   0.09538   0.20659   0.00000  Uiso   1.00
O82    O     0.74675   0.23796   0.12674   0.00000  Uiso   1.00
O83    O     0.74480   0.08559   0.10279   0.00000  Uiso   1.00
O84    O     0.75520   0.24774   0.23055   0.00000  Uiso   1.00
O85    O     0.68936   0.17155   0.21857   0.00000  Uiso   1.00
O86    O     0.81065   0.16179   0.11476   0.00000  Uiso   1.00
O87    O     0.68090   0.16176   0.11477   0.00000  Uiso   1.00
O88    O     0.81910   0.17157   0.21857   0.00000  Uiso   1.00
Br89   Br    0.88154   0.28251   0.19811   0.00000  Uiso   1.00
Br90   Br    0.61846   0.05082   0.13523   0.00000  Uiso   1.00
Br91   Br    0.69226   0.10138   0.30091   0.00000  Uiso   1.00
Br92   Br    0.80774   0.23195   0.03243   0.00000  Uiso   1.00
C93    C     0.24860   0.39995   0.15102   0.00000  Uiso   1.00
C94    C     0.25140   0.60005   0.18231   0.00000  Uiso   1.00
C95    C     0.01446   0.40276   0.13953   0.00000  Uiso   1.00
C96    C     0.48554   0.59724   0.19381   0.00000  Uiso   1.00
C97    C     0.24767   0.34379   0.14244   0.00000  Uiso   1.00
C98    C     0.25233   0.65620   0.19089   0.00000  Uiso   1.00
C99    C     0.16466   0.49938   0.16702   0.00000  Uiso   1.00
C100   C     0.33534   0.50062   0.16631   0.00000  Uiso   1.00
C101   C     0.41020   0.55022   0.17970   0.00000  Uiso   1.00
C102   C     0.08980   0.44978   0.15363   0.00000  Uiso   1.00
C103   C     0.38351   0.50173   0.16553   0.00000  Uiso   1.00
C104   C     0.11649   0.49827   0.16780   0.00000  Uiso   1.00
C105   C     0.40252   0.45347   0.15168   0.00000  Uiso   1.00
C106   C     0.09748   0.54653   0.18165   0.00000  Uiso   1.00
C107   C     0.44891   0.45248   0.15220   0.00000  Uiso   1.00
C108   C     0.05109   0.54752   0.18114   0.00000  Uiso   1.00
C109   C     0.47652   0.50061   0.16638   0.00000  Uiso   1.00
C110   C     0.02348   0.49939   0.16695   0.00000  Uiso   1.00
C111   C     0.45723   0.54987   0.18004   0.00000  Uiso   1.00
C112   C     0.04277   0.45013   0.15329   0.00000  Uiso   1.00
C113   C     0.46802   0.40400   0.13899   0.00000  Uiso   1.00
C114   C     0.03198   0.59600   0.19434   0.00000  Uiso   1.00
Cu115  Cu    0.25501   0.50579   0.22813   0.00000  Uiso   1.00
Cu116  Cu    0.24500   0.49421   0.10521   0.00000  Uiso   1.00
H117   H     0.38100   0.41665   0.14111   0.00000  Uiso   1.00
H118   H     0.11901   0.58335   0.19222   0.00000  Uiso   1.00
H119   H     0.44698   0.36690   0.12821   0.00000  Uiso   1.00
H120   H     0.05302   0.63310   0.20512   0.00000  Uiso   1.00
H121   H     0.02768   0.36437   0.12898   0.00000  Uiso   1.00
H122   H     0.47233   0.63563   0.20436   0.00000  Uiso   1.00
H123   H     0.24304   0.65293   0.09592   0.00000  Uiso   1.00
H124   H     0.25696   0.34707   0.23742   0.00000  Uiso   1.00
N125   N     0.23745   0.48547   0.01284   0.00000  Uiso   1.00
N126   N     0.26256   0.51453   0.32049   0.00000  Uiso   1.00
O127   O     0.25326   0.42871   0.20659   0.00000  Uiso   1.00
O128   O     0.24675   0.57129   0.12674   0.00000  Uiso   1.00
O129   O     0.24480   0.41892   0.10279   0.00000  Uiso   1.00
O130   O     0.25520   0.58108   0.23055   0.00000  Uiso   1.00
O131   O     0.18936   0.50488   0.21857   0.00000  Uiso   1.00
O132   O     0.31065   0.49512   0.11476   0.00000  Uiso   1.00
O133   O     0.18090   0.49510   0.11477   0.00000  Uiso   1.00
O134   O     0.31910   0.50490   0.21857   0.00000  Uiso   1.00
Br135  Br    0.38154   0.61585   0.19811   0.00000  Uiso   1.00
Br136  Br    0.11846   0.38415   0.13523   0.00000  Uiso   1.00
Br137  Br    0.19226   0.43472   0.30091   0.00000  Uiso   1.00
Br138  Br    0.30774   0.56528   0.03243   0.00000  Uiso   1.00
C139   C     0.74860   0.39995   0.15102   0.00000  Uiso   1.00
C140   C     0.75140   0.60005   0.18231   0.00000  Uiso   1.00
C141   C     0.51446   0.40276   0.13953   0.00000  Uiso   1.00
C142   C     0.98554   0.59724   0.19381   0.00000  Uiso   1.00
C143   C     0.74767   0.34379   0.14244   0.00000  Uiso   1.00
C144   C     0.75233   0.65620   0.19089   0.00000  Uiso   1.00
C145   C     0.66466   0.49938   0.16702   0.00000  Uiso   1.00
C146   C     0.83534   0.50062   0.16631   0.00000  Uiso   1.00
C147   C     0.91020   0.55022   0.17970   0.00000  Uiso   1.00
C148   C     0.58980   0.44978   0.15363   0.00000  Uiso   1.00
C149   C     0.88351   0.50173   0.16553   0.00000  Uiso   1.00
C150   C     0.61649   0.49827   0.16780   0.00000  Uiso   1.00
C151   C     0.90252   0.45347   0.15168   0.00000  Uiso   1.00
C152   C     0.59748   0.54653   0.18165   0.00000  Uiso   1.00
C153   C     0.94891   0.45248   0.15220   0.00000  Uiso   1.00
C154   C     0.55109   0.54752   0.18114   0.00000  Uiso   1.00
C155   C     0.97652   0.50061   0.16638   0.00000  Uiso   1.00
C156   C     0.52348   0.49939   0.16695   0.00000  Uiso   1.00
C157   C     0.95723   0.54987   0.18004   0.00000  Uiso   1.00
C158   C     0.54277   0.45013   0.15329   0.00000  Uiso   1.00
C159   C     0.96802   0.40400   0.13899   0.00000  Uiso   1.00
C160   C     0.53198   0.59600   0.19434   0.00000  Uiso   1.00
Cu161  Cu    0.75501   0.50579   0.22813   0.00000  Uiso   1.00
Cu162  Cu    0.74500   0.49421   0.10521   0.00000  Uiso   1.00
H163   H     0.88100   0.41665   0.14111   0.00000  Uiso   1.00
H164   H     0.61901   0.58335   0.19222   0.00000  Uiso   1.00
H165   H     0.94698   0.36690   0.12821   0.00000  Uiso   1.00
H166   H     0.55302   0.63310   0.20512   0.00000  Uiso   1.00
H167   H     0.52768   0.36437   0.12898   0.00000  Uiso   1.00
H168   H     0.97233   0.63563   0.20436   0.00000  Uiso   1.00
H169   H     0.74304   0.65293   0.09592   0.00000  Uiso   1.00
H170   H     0.75696   0.34707   0.23742   0.00000  Uiso   1.00
N171   N     0.73745   0.48547   0.01284   0.00000  Uiso   1.00
N172   N     0.76256   0.51453   0.32049   0.00000  Uiso   1.00
O173   O     0.75326   0.42871   0.20659   0.00000  Uiso   1.00
O174   O     0.74675   0.57129   0.12674   0.00000  Uiso   1.00
O175   O     0.74480   0.41892   0.10279   0.00000  Uiso   1.00
O176   O     0.75520   0.58108   0.23055   0.00000  Uiso   1.00
O177   O     0.68936   0.50488   0.21857   0.00000  Uiso   1.00
O178   O     0.81065   0.49512   0.11476   0.00000  Uiso   1.00
O179   O     0.68090   0.49510   0.11477   0.00000  Uiso   1.00
O180   O     0.81910   0.50490   0.21857   0.00000  Uiso   1.00
Br181  Br    0.88154   0.61585   0.19811   0.00000  Uiso   1.00
Br182  Br    0.61846   0.38415   0.13523   0.00000  Uiso   1.00
Br183  Br    0.69226   0.43472   0.30091   0.00000  Uiso   1.00
Br184  Br    0.80774   0.56528   0.03243   0.00000  Uiso   1.00
C185   C     0.24860   0.73328   0.15102   0.00000  Uiso   1.00
C186   C     0.25140   0.93338   0.18231   0.00000  Uiso   1.00
C187   C     0.01446   0.73609   0.13953   0.00000  Uiso   1.00
C188   C     0.48554   0.93057   0.19381   0.00000  Uiso   1.00
C189   C     0.24767   0.67713   0.14244   0.00000  Uiso   1.00
C190   C     0.25233   0.98954   0.19089   0.00000  Uiso   1.00
C191   C     0.16466   0.83272   0.16702   0.00000  Uiso   1.00
C192   C     0.33534   0.83395   0.16631   0.00000  Uiso   1.00
C193   C     0.41020   0.88355   0.17970   0.00000  Uiso   1.00
C194   C     0.08980   0.78311   0.15363   0.00000  Uiso   1.00
C195   C     0.38351   0.83507   0.16553   0.00000  Uiso   1.00
C196   C     0.11649   0.83160   0.16780   0.00000  Uiso   1.00
C197   C     0.40252   0.78680   0.15168   0.00000  Uiso   1.00
C198   C     0.09748   0.87987   0.18165   0.00000  Uiso   1.00
C199   C     0.44891   0.78581   0.15220   0.00000  Uiso   1.00
C200   C     0.05109   0.88086   0.18114   0.00000  Uiso   1.00
C201   C     0.47652   0.83394   0.16638   0.00000  Uiso   1.00
C202   C     0.02348   0.83272   0.16695   0.00000  Uiso   1.00
C203   C     0.45723   0.88320   0.18004   0.00000  Uiso   1.00
C204   C     0.04277   0.78346   0.15329   0.00000  Uiso   1.00
C205   C     0.46802   0.73733   0.13899   0.00000  Uiso   1.00
C206   C     0.03198   0.92933   0.19434   0.00000  Uiso   1.00
Cu207  Cu    0.25501   0.83913   0.22813   0.00000  Uiso   1.00
Cu208  Cu    0.24500   0.82754   0.10521   0.00000  Uiso   1.00
H209   H     0.38100   0.74998   0.14111   0.00000  Uiso   1.00
H210   H     0.11901   0.91668   0.19222   0.00000  Uiso   1.00
H211   H     0.44698   0.70023   0.12821   0.00000  Uiso   1.00
H212   H     0.05302   0.96644   0.20512   0.00000  Uiso   1.00
H213   H     0.02768   0.69770   0.12898   0.00000  Uiso   1.00
H214   H     0.47233   0.96896   0.20436   0.00000  Uiso   1.00
H215   H     0.24304   0.98626   0.09592   0.00000  Uiso   1.00
H216   H     0.25696   0.68041   0.23742   0.00000  Uiso   1.00
N217   N     0.23745   0.81881   0.01284   0.00000  Uiso   1.00
N218   N     0.26256   0.84786   0.32049   0.00000  Uiso   1.00
O219   O     0.25326   0.76204   0.20659   0.00000  Uiso   1.00
O220   O     0.24675   0.90462   0.12674   0.00000  Uiso   1.00
O221   O     0.24480   0.75226   0.10279   0.00000  Uiso   1.00
O222   O     0.25520   0.91441   0.23055   0.00000  Uiso   1.00
O223   O     0.18936   0.83821   0.21857   0.00000  Uiso   1.00
O224   O     0.31065   0.82845   0.11476   0.00000  Uiso   1.00
O225   O     0.18090   0.82843   0.11477   0.00000  Uiso   1.00
O226   O     0.31910   0.83824   0.21857   0.00000  Uiso   1.00
Br227  Br    0.38154   0.94918   0.19811   0.00000  Uiso   1.00
Br228  Br    0.11846   0.71749   0.13523   0.00000  Uiso   1.00
Br229  Br    0.19226   0.76805   0.30091   0.00000  Uiso   1.00
Br230  Br    0.30774   0.89862   0.03243   0.00000  Uiso   1.00
C231   C     0.74860   0.73328   0.15102   0.00000  Uiso   1.00
C232   C     0.75140   0.93338   0.18231   0.00000  Uiso   1.00
C233   C     0.51446   0.73609   0.13953   0.00000  Uiso   1.00
C234   C     0.98554   0.93057   0.19381   0.00000  Uiso   1.00
C235   C     0.74767   0.67713   0.14244   0.00000  Uiso   1.00
C236   C     0.75233   0.98954   0.19089   0.00000  Uiso   1.00
C237   C     0.66466   0.83272   0.16702   0.00000  Uiso   1.00
C238   C     0.83534   0.83395   0.16631   0.00000  Uiso   1.00
C239   C     0.91020   0.88355   0.17970   0.00000  Uiso   1.00
C240   C     0.58980   0.78311   0.15363   0.00000  Uiso   1.00
C241   C     0.88351   0.83507   0.16553   0.00000  Uiso   1.00
C242   C     0.61649   0.83160   0.16780   0.00000  Uiso   1.00
C243   C     0.90252   0.78680   0.15168   0.00000  Uiso   1.00
C244   C     0.59748   0.87987   0.18165   0.00000  Uiso   1.00
C245   C     0.94891   0.78581   0.15220   0.00000  Uiso   1.00
C246   C     0.55109   0.88086   0.18114   0.00000  Uiso   1.00
C247   C     0.97652   0.83394   0.16638   0.00000  Uiso   1.00
C248   C     0.52348   0.83272   0.16695   0.00000  Uiso   1.00
C249   C     0.95723   0.88320   0.18004   0.00000  Uiso   1.00
C250   C     0.54277   0.78346   0.15329   0.00000  Uiso   1.00
C251   C     0.96802   0.73733   0.13899   0.00000  Uiso   1.00
C252   C     0.53198   0.92933   0.19434   0.00000  Uiso   1.00
Cu253  Cu    0.75501   0.83913   0.22813   0.00000  Uiso   1.00
Cu254  Cu    0.74500   0.82754   0.10521   0.00000  Uiso   1.00
H255   H     0.88100   0.74998   0.14111   0.00000  Uiso   1.00
H256   H     0.61901   0.91668   0.19222   0.00000  Uiso   1.00
H257   H     0.94698   0.70023   0.12821   0.00000  Uiso   1.00
H258   H     0.55302   0.96644   0.20512   0.00000  Uiso   1.00
H259   H     0.52768   0.69770   0.12898   0.00000  Uiso   1.00
H260   H     0.97233   0.96896   0.20436   0.00000  Uiso   1.00
H261   H     0.74304   0.98626   0.09592   0.00000  Uiso   1.00
H262   H     0.75696   0.68041   0.23742   0.00000  Uiso   1.00
N263   N     0.73745   0.81881   0.01284   0.00000  Uiso   1.00
N264   N     0.76256   0.84786   0.32049   0.00000  Uiso   1.00
O265   O     0.75326   0.76204   0.20659   0.00000  Uiso   1.00
O266   O     0.74675   0.90462   0.12674   0.00000  Uiso   1.00
O267   O     0.74480   0.75226   0.10279   0.00000  Uiso   1.00
O268   O     0.75520   0.91441   0.23055   0.00000  Uiso   1.00
O269   O     0.68936   0.83821   0.21857   0.00000  Uiso   1.00
O270   O     0.81065   0.82845   0.11476   0.00000  Uiso   1.00
O271   O     0.68090   0.82843   0.11477   0.00000  Uiso   1.00
O272   O     0.81910   0.83824   0.21857   0.00000  Uiso   1.00
Br273  Br    0.88154   0.94918   0.19811   0.00000  Uiso   1.00
Br274  Br    0.61846   0.71749   0.13523   0.00000  Uiso   1.00
Br275  Br    0.69226   0.76805   0.30091   0.00000  Uiso   1.00
Br276  Br    0.80774   0.89862   0.03243   0.00000  Uiso   1.00
C277   C     0.24860   0.06662   0.48435   0.00000  Uiso   1.00
C278   C     0.25140   0.26671   0.51565   0.00000  Uiso   1.00
C279   C     0.01446   0.06943   0.47286   0.00000  Uiso   1.00
C280   C     0.48554   0.26391   0.52714   0.00000  Uiso   1.00
C281   C     0.24767   0.01046   0.47577   0.00000  Uiso   1.00
C282   C     0.25233   0.32287   0.52423   0.00000  Uiso   1.00
C283   C     0.16466   0.16605   0.50036   0.00000  Uiso   1.00
C284   C     0.33534   0.16728   0.49964   0.00000  Uiso   1.00
C285   C     0.41020   0.21689   0.51303   0.00000  Uiso   1.00
C286   C     0.08980   0.11645   0.48696   0.00000  Uiso   1.00
C287   C     0.38351   0.16840   0.49887   0.00000  Uiso   1.00
C288   C     0.11649   0.16493   0.50113   0.00000  Uiso   1.00
C289   C     0.40252   0.12013   0.48501   0.00000  Uiso   1.00
C290   C     0.09748   0.21320   0.51499   0.00000  Uiso   1.00
C291   C     0.44891   0.11914   0.48553   0.00000  Uiso   1.00
C292   C     0.05109   0.21419   0.51447   0.00000  Uiso   1.00
C293   C     0.47652   0.16728   0.49972   0.00000  Uiso   1.00
C294   C     0.02348   0.16606   0.50028   0.00000  Uiso   1.00
C295   C     0.45723   0.21654   0.51337   0.00000  Uiso   1.00
C296   C     0.04277   0.11680   0.48663   0.00000  Uiso   1.00
C297   C     0.46802   0.07067   0.47233   0.00000  Uiso   1.00
C298   C     0.03198   0.26267   0.52767   0.00000  Uiso   1.00
Cu299  Cu    0.25501   0.17246   0.56146   0.00000  Uiso   1.00
Cu300  Cu    0.24500   0.16087   0.43854   0.00000  Uiso   1.00
H301   H     0.38100   0.08332   0.47444   0.00000  Uiso   1.00
H302   H     0.11901   0.25001   0.52556   0.00000  Uiso   1.00
H303   H     0.44698   0.03356   0.46154   0.00000  Uiso   1.00
H304   H     0.05302   0.29977   0.53846   0.00000  Uiso   1.00
H305   H     0.02768   0.03104   0.46231   0.00000  Uiso   1.00
H306   H     0.47233   0.30230   0.53769   0.00000  Uiso   1.00
H307   H     0.24304   0.31959   0.42925   0.00000  Uiso   1.00
H308   H     0.25696   0.01374   0.57075   0.00000  Uiso   1.00
N309   N     0.23745   0.15214   0.34617   0.00000  Uiso   1.00
N310   N     0.26256   0.18119   0.65383   0.00000  Uiso   1.00
O311   O     0.25326   0.09538   0.53992   0.00000  Uiso   1.00
O312   O     0.24675   0.23796   0.46008   0.00000  Uiso   1.00
O313   O     0.24480   0.08559   0.43612   0.00000  Uiso   1.00
O314   O     0.25520   0.24774   0.56388   0.00000  Uiso   1.00
O315   O     0.18936   0.17155   0.55191   0.00000  Uiso   1.00
O316   O     0.31065   0.16179   0.44809   0.00000  Uiso   1.00
O317   O     0.18090   0.16176   0.44810   0.00000  Uiso   1.00
O318   O     0.31910   0.17157   0.55190   0.00000  Uiso   1.00
Br319  Br    0.38154   0.28251   0.53144   0.00000  Uiso   1.00
Br320  Br    0.11846   0.05082   0.46856   0.00000  Uiso   1.00
Br321  Br    0.19226   0.10138   0.63424   0.00000  Uiso   1.00
Br322  Br    0.30774   0.23195   0.36576   0.00000  Uiso   1.00
C323   C     0.74860   0.06662   0.48435   0.00000  Uiso   1.00
C324   C     0.75140   0.26671   0.51565   0.00000  Uiso   1.00
C325   C     0.51446   0.06943   0.47286   0.00000  Uiso   1.00
C326   C     0.98554   0.26391   0.52714   0.00000  Uiso   1.00
C327   C     0.74767   0.01046   0.47577   0.00000  Uiso   1.00
C328   C     0.75233   0.32287   0.52423   0.00000  Uiso   1.00
C329   C     0.66466   0.16605   0.50036   0.00000  Uiso   1.00
C330   C     0.83534   0.16728   0.49964   0.00000  Uiso   1.00
C331   C     0.91020   0.21689   0.51303   0.00000  Uiso   1.00
C332   C     0.58980   0.11645   0.48696   0.00000  Uiso   1.00
C333   C     0.88351   0.16840   0.49887   0.00000  Uiso   1.00
C334   C     0.61649   0.16493   0.50113   0.00000  Uiso   1.00
C335   C     0.90252   0.12013   0.48501   0.00000  Uiso   1.00
C336   C     0.59748   0.21320   0.51499   0.00000  Uiso   1.00
C337   C     0.94891   0.11914   0.48553   0.00000  Uiso   1.00
C338   C     0.55109   0.21419   0.51447   0.00000  Uiso   1.00
C339   C     0.97652   0.16728   0.49972   0.00000  Uiso   1.00
C340   C     0.52348   0.16606   0.50028   0.00000  Uiso   1.00
C341   C     0.95723   0.21654   0.51337   0.00000  Uiso   1.00
C342   C     0.54277   0.11680   0.48663   0.00000  Uiso   1.00
C343   C     0.96802   0.07067   0.47233   0.00000  Uiso   1.00
C344   C     0.53198   0.26267   0.52767   0.00000  Uiso   1.00
Cu345  Cu    0.75501   0.17246   0.56146   0.00000  Uiso   1.00
Cu346  Cu    0.74500   0.16087   0.43854   0.00000  Uiso   1.00
H347   H     0.88100   0.08332   0.47444   0.00000  Uiso   1.00
H348   H     0.61901   0.25001   0.52556   0.00000  Uiso   1.00
H349   H     0.94698   0.03356   0.46154   0.00000  Uiso   1.00
H350   H     0.55302   0.29977   0.53846   0.00000  Uiso   1.00
H351   H     0.52768   0.03104   0.46231   0.00000  Uiso   1.00
H352   H     0.97233   0.30230   0.53769   0.00000  Uiso   1.00
H353   H     0.74304   0.31959   0.42925   0.00000  Uiso   1.00
H354   H     0.75696   0.01374   0.57075   0.00000  Uiso   1.00
N355   N     0.73745   0.15214   0.34617   0.00000  Uiso   1.00
N356   N     0.76256   0.18119   0.65383   0.00000  Uiso   1.00
O357   O     0.75326   0.09538   0.53992   0.00000  Uiso   1.00
O358   O     0.74675   0.23796   0.46008   0.00000  Uiso   1.00
O359   O     0.74480   0.08559   0.43612   0.00000  Uiso   1.00
O360   O     0.75520   0.24774   0.56388   0.00000  Uiso   1.00
O361   O     0.68936   0.17155   0.55191   0.00000  Uiso   1.00
O362   O     0.81065   0.16179   0.44809   0.00000  Uiso   1.00
O363   O     0.68090   0.16176   0.44810   0.00000  Uiso   1.00
O364   O     0.81910   0.17157   0.55190   0.00000  Uiso   1.00
Br365  Br    0.88154   0.28251   0.53144   0.00000  Uiso   1.00
Br366  Br    0.61846   0.05082   0.46856   0.00000  Uiso   1.00
Br367  Br    0.69226   0.10138   0.63424   0.00000  Uiso   1.00
Br368  Br    0.80774   0.23195   0.36576   0.00000  Uiso   1.00
C369   C     0.24860   0.39995   0.48435   0.00000  Uiso   1.00
C370   C     0.25140   0.60005   0.51565   0.00000  Uiso   1.00
C371   C     0.01446   0.40276   0.47286   0.00000  Uiso   1.00
C372   C     0.48554   0.59724   0.52714   0.00000  Uiso   1.00
C373   C     0.24767   0.34379   0.47577   0.00000  Uiso   1.00
C374   C     0.25233   0.65620   0.52423   0.00000  Uiso   1.00
C375   C     0.16466   0.49938   0.50036   0.00000  Uiso   1.00
C376   C     0.33534   0.50062   0.49964   0.00000  Uiso   1.00
C377   C     0.41020   0.55022   0.51303   0.00000  Uiso   1.00
C378   C     0.08980   0.44978   0.48696   0.00000  Uiso   1.00
C379   C     0.38351   0.50173   0.49887   0.00000  Uiso   1.00
C380   C     0.11649   0.49827   0.50113   0.00000  Uiso   1.00
C381   C     0.40252   0.45347   0.48501   0.00000  Uiso   1.00
C382   C     0.09748   0.54653   0.51499   0.00000  Uiso   1.00
C383   C     0.44891   0.45248   0.48553   0.00000  Uiso   1.00
C384   C     0.05109   0.54752   0.51447   0.00000  Uiso   1.00
C385   C     0.47652   0.50061   0.49972   0.00000  Uiso   1.00
C386   C     0.02348   0.49939   0.50028   0.00000  Uiso   1.00
C387   C     0.45723   0.54987   0.51337   0.00000  Uiso   1.00
C388   C     0.04277   0.45013   0.48663   0.00000  Uiso   1.00
C389   C     0.46802   0.40400   0.47233   0.00000  Uiso   1.00
C390   C     0.03198   0.59600   0.52767   0.00000  Uiso   1.00
Cu391  Cu    0.25501   0.50579   0.56146   0.00000  Uiso   1.00
Cu392  Cu    0.24500   0.49421   0.43854   0.00000  Uiso   1.00
H393   H     0.38100   0.41665   0.47444   0.00000  Uiso   1.00
H394   H     0.11901   0.58335   0.52556   0.00000  Uiso   1.00
H395   H     0.44698   0.36690   0.46154   0.00000  Uiso   1.00
H396   H     0.05302   0.63310   0.53846   0.00000  Uiso   1.00
H397   H     0.02768   0.36437   0.46231   0.00000  Uiso   1.00
H398   H     0.47233   0.63563   0.53769   0.00000  Uiso   1.00
H399   H     0.24304   0.65293   0.42925   0.00000  Uiso   1.00
H400   H     0.25696   0.34707   0.57075   0.00000  Uiso   1.00
N401   N     0.23745   0.48547   0.34617   0.00000  Uiso   1.00
N402   N     0.26256   0.51453   0.65383   0.00000  Uiso   1.00
O403   O     0.25326   0.42871   0.53992   0.00000  Uiso   1.00
O404   O     0.24675   0.57129   0.46008   0.00000  Uiso   1.00
O405   O     0.24480   0.41892   0.43612   0.00000  Uiso   1.00
O406   O     0.25520   0.58108   0.56388   0.00000  Uiso   1.00
O407   O     0.18936   0.50488   0.55191   0.00000  Uiso   1.00
O408   O     0.31065   0.49512   0.44809   0.00000  Uiso   1.00
O409   O     0.18090   0.49510   0.44810   0.00000  Uiso   1.00
O410   O     0.31910   0.50490   0.55190   0.00000  Uiso   1.00
Br411  Br    0.38154   0.61585   0.53144   0.00000  Uiso   1.00
Br412  Br    0.11846   0.38415   0.46856   0.00000  Uiso   1.00
Br413  Br    0.19226   0.43472   0.63424   0.00000  Uiso   1.00
Br414  Br    0.30774   0.56528   0.36576   0.00000  Uiso   1.00
C415   C     0.74860   0.39995   0.48435   0.00000  Uiso   1.00
C416   C     0.75140   0.60005   0.51565   0.00000  Uiso   1.00
C417   C     0.51446   0.40276   0.47286   0.00000  Uiso   1.00
C418   C     0.98554   0.59724   0.52714   0.00000  Uiso   1.00
C419   C     0.74767   0.34379   0.47577   0.00000  Uiso   1.00
C420   C     0.75233   0.65620   0.52423   0.00000  Uiso   1.00
C421   C     0.66466   0.49938   0.50036   0.00000  Uiso   1.00
C422   C     0.83534   0.50062   0.49964   0.00000  Uiso   1.00
C423   C     0.91020   0.55022   0.51303   0.00000  Uiso   1.00
C424   C     0.58980   0.44978   0.48696   0.00000  Uiso   1.00
C425   C     0.88351   0.50173   0.49887   0.00000  Uiso   1.00
C426   C     0.61649   0.49827   0.50113   0.00000  Uiso   1.00
C427   C     0.90252   0.45347   0.48501   0.00000  Uiso   1.00
C428   C     0.59748   0.54653   0.51499   0.00000  Uiso   1.00
C429   C     0.94891   0.45248   0.48553   0.00000  Uiso   1.00
C430   C     0.55109   0.54752   0.51447   0.00000  Uiso   1.00
C431   C     0.97652   0.50061   0.49972   0.00000  Uiso   1.00
C432   C     0.52348   0.49939   0.50028   0.00000  Uiso   1.00
C433   C     0.95723   0.54987   0.51337   0.00000  Uiso   1.00
C434   C     0.54277   0.45013   0.48663   0.00000  Uiso   1.00
C435   C     0.96802   0.40400   0.47233   0.00000  Uiso   1.00
C436   C     0.53198   0.59600   0.52767   0.00000  Uiso   1.00
Cu437  Cu    0.75501   0.50579   0.56146   0.00000  Uiso   1.00
Cu438  Cu    0.74500   0.49421   0.43854   0.00000  Uiso   1.00
H439   H     0.88100   0.41665   0.47444   0.00000  Uiso   1.00
H440   H     0.61901   0.58335   0.52556   0.00000  Uiso   1.00
H441   H     0.94698   0.36690   0.46154   0.00000  Uiso   1.00
H442   H     0.55302   0.63310   0.53846   0.00000  Uiso   1.00
H443   H     0.52768   0.36437   0.46231   0.00000  Uiso   1.00
H444   H     0.97233   0.63563   0.53769   0.00000  Uiso   1.00
H445   H     0.74304   0.65293   0.42925   0.00000  Uiso   1.00
H446   H     0.75696   0.34707   0.57075   0.00000  Uiso   1.00
N447   N     0.73745   0.48547   0.34617   0.00000  Uiso   1.00
N448   N     0.76256   0.51453   0.65383   0.00000  Uiso   1.00
O449   O     0.75326   0.42871   0.53992   0.00000  Uiso   1.00
O450   O     0.74675   0.57129   0.46008   0.00000  Uiso   1.00
O451   O     0.74480   0.41892   0.43612   0.00000  Uiso   1.00
O452   O     0.75520   0.58108   0.56388   0.00000  Uiso   1.00
O453   O     0.68936   0.50488   0.55191   0.00000  Uiso   1.00
O454   O     0.81065   0.49512   0.44809   0.00000  Uiso   1.00
O455   O     0.68090   0.49510   0.44810   0.00000  Uiso   1.00
O456   O     0.81910   0.50490   0.55190   0.00000  Uiso   1.00
Br457  Br    0.88154   0.61585   0.53144   0.00000  Uiso   1.00
Br458  Br    0.61846   0.38415   0.46856   0.00000  Uiso   1.00
Br459  Br    0.69226   0.43472   0.63424   0.00000  Uiso   1.00
Br460  Br    0.80774   0.56528   0.36576   0.00000  Uiso   1.00
C461   C     0.24860   0.73328   0.48435   0.00000  Uiso   1.00
C462   C     0.25140   0.93338   0.51565   0.00000  Uiso   1.00
C463   C     0.01446   0.73609   0.47286   0.00000  Uiso   1.00
C464   C     0.48554   0.93057   0.52714   0.00000  Uiso   1.00
C465   C     0.24767   0.67713   0.47577   0.00000  Uiso   1.00
C466   C     0.25233   0.98954   0.52423   0.00000  Uiso   1.00
C467   C     0.16466   0.83272   0.50036   0.00000  Uiso   1.00
C468   C     0.33534   0.83395   0.49964   0.00000  Uiso   1.00
C469   C     0.41020   0.88355   0.51303   0.00000  Uiso   1.00
C470   C     0.08980   0.78311   0.48696   0.00000  Uiso   1.00
C471   C     0.38351   0.83507   0.49887   0.00000  Uiso   1.00
C472   C     0.11649   0.83160   0.50113   0.00000  Uiso   1.00
C473   C     0.40252   0.78680   0.48501   0.00000  Uiso   1.00
C474   C     0.09748   0.87987   0.51499   0.00000  Uiso   1.00
C475   C     0.44891   0.78581   0.48553   0.00000  Uiso   1.00
C476   C     0.05109   0.88086   0.51447   0.00000  Uiso   1.00
C477   C     0.47652   0.83394   0.49972   0.00000  Uiso   1.00
C478   C     0.02348   0.83272   0.50028   0.00000  Uiso   1.00
C479   C     0.45723   0.88320   0.51337   0.00000  Uiso   1.00
C480   C     0.04277   0.78346   0.48663   0.00000  Uiso   1.00
C481   C     0.46802   0.73733   0.47233   0.00000  Uiso   1.00
C482   C     0.03198   0.92933   0.52767   0.00000  Uiso   1.00
Cu483  Cu    0.25501   0.83913   0.56146   0.00000  Uiso   1.00
Cu484  Cu    0.24500   0.82754   0.43854   0.00000  Uiso   1.00
H485   H     0.38100   0.74998   0.47444   0.00000  Uiso   1.00
H486   H     0.11901   0.91668   0.52556   0.00000  Uiso   1.00
H487   H     0.44698   0.70023   0.46154   0.00000  Uiso   1.00
H488   H     0.05302   0.96644   0.53846   0.00000  Uiso   1.00
H489   H     0.02768   0.69770   0.46231   0.00000  Uiso   1.00
H490   H     0.47233   0.96896   0.53769   0.00000  Uiso   1.00
H491   H     0.24304   0.98626   0.42925   0.00000  Uiso   1.00
H492   H     0.25696   0.68041   0.57075   0.00000  Uiso   1.00
N493   N     0.23745   0.81881   0.34617   0.00000  Uiso   1.00
N494   N     0.26256   0.84786   0.65383   0.00000  Uiso   1.00
O495   O     0.25326   0.76204   0.53992   0.00000  Uiso   1.00
O496   O     0.24675   0.90462   0.46008   0.00000  Uiso   1.00
O497   O     0.24480   0.75226   0.43612   0.00000  Uiso   1.00
O498   O     0.25520   0.91441   0.56388   0.00000  Uiso   1.00
O499   O     0.18936   0.83821   0.55191   0.00000  Uiso   1.00
O500   O     0.31065   0.82845   0.44809   0.00000  Uiso   1.00
O501   O     0.18090   0.82843   0.44810   0.00000  Uiso   1.00
O502   O     0.31910   0.83824   0.55190   0.00000  Uiso   1.00
Br503  Br    0.38154   0.94918   0.53144   0.00000  Uiso   1.00
Br504  Br    0.11846   0.71749   0.46856   0.00000  Uiso   1.00
Br505  Br    0.19226   0.76805   0.63424   0.00000  Uiso   1.00
Br506  Br    0.30774   0.89862   0.36576   0.00000  Uiso   1.00
C507   C     0.74860   0.73328   0.48435   0.00000  Uiso   1.00
C508   C     0.75140   0.93338   0.51565   0.00000  Uiso   1.00
C509   C     0.51446   0.73609   0.47286   0.00000  Uiso   1.00
C510   C     0.98554   0.93057   0.52714   0.00000  Uiso   1.00
C511   C     0.74767   0.67713   0.47577   0.00000  Uiso   1.00
C512   C     0.75233   0.98954   0.52423   0.00000  Uiso   1.00
C513   C     0.66466   0.83272   0.50036   0.00000  Uiso   1.00
C514   C     0.83534   0.83395   0.49964   0.00000  Uiso   1.00
C515   C     0.91020   0.88355   0.51303   0.00000  Uiso   1.00
C516   C     0.58980   0.78311   0.48696   0.00000  Uiso   1.00
C517   C     0.88351   0.83507   0.49887   0.00000  Uiso   1.00
C518   C     0.61649   0.83160   0.50113   0.00000  Uiso   1.00
C519   C     0.90252   0.78680   0.48501   0.00000  Uiso   1.00
C520   C     0.59748   0.87987   0.51499   0.00000  Uiso   1.00
C521   C     0.94891   0.78581   0.48553   0.00000  Uiso   1.00
C522   C     0.55109   0.88086   0.51447   0.00000  Uiso   1.00
C523   C     0.97652   0.83394   0.49972   0.00000  Uiso   1.00
C524   C     0.52348   0.83272   0.50028   0.00000  Uiso   1.00
C525   C     0.95723   0.88320   0.51337   0.00000  Uiso   1.00
C526   C     0.54277   0.78346   0.48663   0.00000  Uiso   1.00
C527   C     0.96802   0.73733   0.47233   0.00000  Uiso   1.00
C528   C     0.53198   0.92933   0.52767   0.00000  Uiso   1.00
Cu529  Cu    0.75501   0.83913   0.56146   0.00000  Uiso   1.00
Cu530  Cu    0.74500   0.82754   0.43854   0.00000  Uiso   1.00
H531   H     0.88100   0.74998   0.47444   0.00000  Uiso   1.00
H532   H     0.61901   0.91668   0.52556   0.00000  Uiso   1.00
H533   H     0.94698   0.70023   0.46154   0.00000  Uiso   1.00
H534   H     0.55302   0.96644   0.53846   0.00000  Uiso   1.00
H535   H     0.52768   0.69770   0.46231   0.00000  Uiso   1.00
H536   H     0.97233   0.96896   0.53769   0.00000  Uiso   1.00
H537   H     0.74304   0.98626   0.42925   0.00000  Uiso   1.00
H538   H     0.75696   0.68041   0.57075   0.00000  Uiso   1.00
N539   N     0.73745   0.81881   0.34617   0.00000  Uiso   1.00
N540   N     0.76256   0.84786   0.65383   0.00000  Uiso   1.00
O541   O     0.75326   0.76204   0.53992   0.00000  Uiso   1.00
O542   O     0.74675   0.90462   0.46008   0.00000  Uiso   1.00
O543   O     0.74480   0.75226   0.43612   0.00000  Uiso   1.00
O544   O     0.75520   0.91441   0.56388   0.00000  Uiso   1.00
O545   O     0.68936   0.83821   0.55191   0.00000  Uiso   1.00
O546   O     0.81065   0.82845   0.44809   0.00000  Uiso   1.00
O547   O     0.68090   0.82843   0.44810   0.00000  Uiso   1.00
O548   O     0.81910   0.83824   0.55190   0.00000  Uiso   1.00
Br549  Br    0.88154   0.94918   0.53144   0.00000  Uiso   1.00
Br550  Br    0.61846   0.71749   0.46856   0.00000  Uiso   1.00
Br551  Br    0.69226   0.76805   0.63424   0.00000  Uiso   1.00
Br552  Br    0.80774   0.89862   0.36576   0.00000  Uiso   1.00
C553   C     0.24860   0.06662   0.81769   0.00000  Uiso   1.00
C554   C     0.25140   0.26671   0.84898   0.00000  Uiso   1.00
C555   C     0.01446   0.06943   0.80619   0.00000  Uiso   1.00
C556   C     0.48554   0.26391   0.86047   0.00000  Uiso   1.00
C557   C     0.24767   0.01046   0.80911   0.00000  Uiso   1.00
C558   C     0.25233   0.32287   0.85756   0.00000  Uiso   1.00
C559   C     0.16466   0.16605   0.83369   0.00000  Uiso   1.00
C560   C     0.33534   0.16728   0.83298   0.00000  Uiso   1.00
C561   C     0.41020   0.21689   0.84637   0.00000  Uiso   1.00
C562   C     0.08980   0.11645   0.82030   0.00000  Uiso   1.00
C563   C     0.38351   0.16840   0.83220   0.00000  Uiso   1.00
C564   C     0.11649   0.16493   0.83447   0.00000  Uiso   1.00
C565   C     0.40252   0.12013   0.81835   0.00000  Uiso   1.00
C566   C     0.09748   0.21320   0.84832   0.00000  Uiso   1.00
C567   C     0.44891   0.11914   0.81886   0.00000  Uiso   1.00
C568   C     0.05109   0.21419   0.84780   0.00000  Uiso   1.00
C569   C     0.47652   0.16728   0.83305   0.00000  Uiso   1.00
C570   C     0.02348   0.16606   0.83362   0.00000  Uiso   1.00
C571   C     0.45723   0.21654   0.84671   0.00000  Uiso   1.00
C572   C     0.04277   0.11680   0.81996   0.00000  Uiso   1.00
C573   C     0.46802   0.07067   0.80566   0.00000  Uiso   1.00
C574   C     0.03198   0.26267   0.86101   0.00000  Uiso   1.00
Cu575  Cu    0.25501   0.17246   0.89479   0.00000  Uiso   1.00
Cu576  Cu    0.24500   0.16087   0.77187   0.00000  Uiso   1.00
H577   H     0.38100   0.08332   0.80778   0.00000  Uiso   1.00
H578   H     0.11901   0.25001   0.85889   0.00000  Uiso   1.00
H579   H     0.44698   0.03356   0.79488   0.00000  Uiso   1.00
H580   H     0.05302   0.29977   0.87179   0.00000  Uiso   1.00
H581   H     0.02768   0.03104   0.79564   0.00000  Uiso   1.00
H582   H     0.47233   0.30230   0.87102   0.00000  Uiso   1.00
H583   H     0.24304   0.31959   0.76258   0.00000  Uiso   1.00
H584   H     0.25696   0.01374   0.90408   0.00000  Uiso   1.00
N585   N     0.23745   0.15214   0.67951   0.00000  Uiso   1.00
N586   N     0.26256   0.18119   0.98716   0.00000  Uiso   1.00
O587   O     0.25326   0.09538   0.87326   0.00000  Uiso   1.00
O588   O     0.24675   0.23796   0.79341   0.00000  Uiso   1.00
O589   O     0.24480   0.08559   0.76945   0.00000  Uiso   1.00
O590   O     0.25520   0.24774   0.89721   0.00000  Uiso   1.00
O591   O     0.18936   0.17155   0.88524   0.00000  Uiso   1.00
O592   O     0.31065   0.16179   0.78143   0.00000  Uiso   1.00
O593   O     0.18090   0.16176   0.78143   0.00000  Uiso   1.00
O594   O     0.31910   0.17157   0.88523   0.00000  Uiso   1.00
Br595  Br    0.38154   0.28251   0.86477   0.00000  Uiso   1.00
Br596  Br    0.11846   0.05082   0.80189   0.00000  Uiso   1.00
Br597  Br    0.19226   0.10138   0.96757   0.00000  Uiso   1.00
Br598  Br    0.30774   0.23195   0.69909   0.00000  Uiso   1.00
C599   C     0.74860   0.06662   0.81769   0.00000  Uiso   1.00
C600   C     0.75140   0.26671   0.84898   0.00000  Uiso   1.00
C601   C     0.51446   0.06943   0.80619   0.00000  Uiso   1.00
C602   C     0.98554   0.26391   0.86047   0.00000  Uiso   1.00
C603   C     0.74767   0.01046   0.80911   0.00000  Uiso   1.00
C604   C     0.75233   0.32287   0.85756   0.00000  Uiso   1.00
C605   C     0.66466   0.16605   0.83369   0.00000  Uiso   1.00
C606   C     0.83534   0.16728   0.83298   0.00000  Uiso   1.00
C607   C     0.91020   0.21689   0.84637   0.00000  Uiso   1.00
C608   C     0.58980   0.11645   0.82030   0.00000  Uiso   1.00
C609   C     0.88351   0.16840   0.83220   0.00000  Uiso   1.00
C610   C     0.61649   0.16493   0.83447   0.00000  Uiso   1.00
C611   C     0.90252   0.12013   0.81835   0.00000  Uiso   1.00
C612   C     0.59748   0.21320   0.84832   0.00000  Uiso   1.00
C613   C     0.94891   0.11914   0.81886   0.00000  Uiso   1.00
C614   C     0.55109   0.21419   0.84780   0.00000  Uiso   1.00
C615   C     0.97652   0.16728   0.83305   0.00000  Uiso   1.00
C616   C     0.52348   0.16606   0.83362   0.00000  Uiso   1.00
C617   C     0.95723   0.21654   0.84671   0.00000  Uiso   1.00
C618   C     0.54277   0.11680   0.81996   0.00000  Uiso   1.00
C619   C     0.96802   0.07067   0.80566   0.00000  Uiso   1.00
C620   C     0.53198   0.26267   0.86101   0.00000  Uiso   1.00
Cu621  Cu    0.75501   0.17246   0.89479   0.00000  Uiso   1.00
Cu622  Cu    0.74500   0.16087   0.77187   0.00000  Uiso   1.00
H623   H     0.88100   0.08332   0.80778   0.00000  Uiso   1.00
H624   H     0.61901   0.25001   0.85889   0.00000  Uiso   1.00
H625   H     0.94698   0.03356   0.79488   0.00000  Uiso   1.00
H626   H     0.55302   0.29977   0.87179   0.00000  Uiso   1.00
H627   H     0.52768   0.03104   0.79564   0.00000  Uiso   1.00
H628   H     0.97233   0.30230   0.87102   0.00000  Uiso   1.00
H629   H     0.74304   0.31959   0.76258   0.00000  Uiso   1.00
H630   H     0.75696   0.01374   0.90408   0.00000  Uiso   1.00
N631   N     0.73745   0.15214   0.67951   0.00000  Uiso   1.00
N632   N     0.76256   0.18119   0.98716   0.00000  Uiso   1.00
O633   O     0.75326   0.09538   0.87326   0.00000  Uiso   1.00
O634   O     0.74675   0.23796   0.79341   0.00000  Uiso   1.00
O635   O     0.74480   0.08559   0.76945   0.00000  Uiso   1.00
O636   O     0.75520   0.24774   0.89721   0.00000  Uiso   1.00
O637   O     0.68936   0.17155   0.88524   0.00000  Uiso   1.00
O638   O     0.81065   0.16179   0.78143   0.00000  Uiso   1.00
O639   O     0.68090   0.16176   0.78143   0.00000  Uiso   1.00
O640   O     0.81910   0.17157   0.88523   0.00000  Uiso   1.00
Br641  Br    0.88154   0.28251   0.86477   0.00000  Uiso   1.00
Br642  Br    0.61846   0.05082   0.80189   0.00000  Uiso   1.00
Br643  Br    0.69226   0.10138   0.96757   0.00000  Uiso   1.00
Br644  Br    0.80774   0.23195   0.69909   0.00000  Uiso   1.00
C645   C     0.24860   0.39995   0.81769   0.00000  Uiso   1.00
C646   C     0.25140   0.60005   0.84898   0.00000  Uiso   1.00
C647   C     0.01446   0.40276   0.80619   0.00000  Uiso   1.00
C648   C     0.48554   0.59724   0.86047   0.00000  Uiso   1.00
C649   C     0.24767   0.34379   0.80911   0.00000  Uiso   1.00
C650   C     0.25233   0.65620   0.85756   0.00000  Uiso   1.00
C651   C     0.16466   0.49938   0.83369   0.00000  Uiso   1.00
C652   C     0.33534   0.50062   0.83298   0.00000  Uiso   1.00
C653   C     0.41020   0.55022   0.84637   0.00000  Uiso   1.00
C654   C     0.08980   0.44978   0.82030   0.00000  Uiso   1.00
C655   C     0.38351   0.50173   0.83220   0.00000  Uiso   1.00
C656   C     0.11649   0.49827   0.83447   0.00000  Uiso   1.00
C657   C     0.40252   0.45347   0.81835   0.00000  Uiso   1.00
C658   C     0.09748   0.54653   0.84832   0.00000  Uiso   1.00
C659   C     0.44891   0.45248   0.81886   0.00000  Uiso   1.00
C660   C     0.05109   0.54752   0.84780   0.00000  Uiso   1.00
C661   C     0.47652   0.50061   0.83305   0.00000  Uiso   1.00
C662   C     0.02348   0.49939   0.83362   0.00000  Uiso   1.00
C663   C     0.45723   0.54987   0.84671   0.00000  Uiso   1.00
C664   C     0.04277   0.45013   0.81996   0.00000  Uiso   1.00
C665   C     0.46802   0.40400   0.80566   0.00000  Uiso   1.00
C666   C     0.03198   0.59600   0.86101   0.00000  Uiso   1.00
Cu667  Cu    0.25501   0.50579   0.89479   0.00000  Uiso   1.00
Cu668  Cu    0.24500   0.49421   0.77187   0.00000  Uiso   1.00
H669   H     0.38100   0.41665   0.80778   0.00000  Uiso   1.00
H670   H     0.11901   0.58335   0.85889   0.00000  Uiso   1.00
H671   H     0.44698   0.36690   0.79488   0.00000  Uiso   1.00
H672   H     0.05302   0.63310   0.87179   0.00000  Uiso   1.00
H673   H     0.02768   0.36437   0.79564   0.00000  Uiso   1.00
H674   H     0.47233   0.63563   0.87102   0.00000  Uiso   1.00
H675   H     0.24304   0.65293   0.76258   0.00000  Uiso   1.00
H676   H     0.25696   0.34707   0.90408   0.00000  Uiso   1.00
N677   N     0.23745   0.48547   0.67951   0.00000  Uiso   1.00
N678   N     0.26256   0.51453   0.98716   0.00000  Uiso   1.00
O679   O     0.25326   0.42871   0.87326   0.00000  Uiso   1.00
O680   O     0.24675   0.57129   0.79341   0.00000  Uiso   1.00
O681   O     0.24480   0.41892   0.76945   0.00000  Uiso   1.00
O682   O     0.25520   0.58108   0.89721   0.00000  Uiso   1.00
O683   O     0.18936   0.50488   0.88524   0.00000  Uiso   1.00
O684   O     0.31065   0.49512   0.78143   0.00000  Uiso   1.00
O685   O     0.18090   0.49510   0.78143   0.00000  Uiso   1.00
O686   O     0.31910   0.50490   0.88523   0.00000  Uiso   1.00
Br687  Br    0.38154   0.61585   0.86477   0.00000  Uiso   1.00
Br688  Br    0.11846   0.38415   0.80189   0.00000  Uiso   1.00
Br689  Br    0.19226   0.43472   0.96757   0.00000  Uiso   1.00
Br690  Br    0.30774   0.56528   0.69909   0.00000  Uiso   1.00
C691   C     0.74860   0.39995   0.81769   0.00000  Uiso   1.00
C692   C     0.75140   0.60005   0.84898   0.00000  Uiso   1.00
C693   C     0.51446   0.40276   0.80619   0.00000  Uiso   1.00
C694   C     0.98554   0.59724   0.86047   0.00000  Uiso   1.00
C695   C     0.74767   0.34379   0.80911   0.00000  Uiso   1.00
C696   C     0.75233   0.65620   0.85756   0.00000  Uiso   1.00
C697   C     0.66466   0.49938   0.83369   0.00000  Uiso   1.00
C698   C     0.83534   0.50062   0.83298   0.00000  Uiso   1.00
C699   C     0.91020   0.55022   0.84637   0.00000  Uiso   1.00
C700   C     0.58980   0.44978   0.82030   0.00000  Uiso   1.00
C701   C     0.88351   0.50173   0.83220   0.00000  Uiso   1.00
C702   C     0.61649   0.49827   0.83447   0.00000  Uiso   1.00
C703   C     0.90252   0.45347   0.81835   0.00000  Uiso   1.00
C704   C     0.59748   0.54653   0.84832   0.00000  Uiso   1.00
C705   C     0.94891   0.45248   0.81886   0.00000  Uiso   1.00
C706   C     0.55109   0.54752   0.84780   0.00000  Uiso   1.00
C707   C     0.97652   0.50061   0.83305   0.00000  Uiso   1.00
C708   C     0.52348   0.49939   0.83362   0.00000  Uiso   1.00
C709   C     0.95723   0.54987   0.84671   0.00000  Uiso   1.00
C710   C     0.54277   0.45013   0.81996   0.00000  Uiso   1.00
C711   C     0.96802   0.40400   0.80566   0.00000  Uiso   1.00
C712   C     0.53198   0.59600   0.86101   0.00000  Uiso   1.00
Cu713  Cu    0.75501   0.50579   0.89479   0.00000  Uiso   1.00
Cu714  Cu    0.74500   0.49421   0.77187   0.00000  Uiso   1.00
H715   H     0.88100   0.41665   0.80778   0.00000  Uiso   1.00
H716   H     0.61901   0.58335   0.85889   0.00000  Uiso   1.00
H717   H     0.94698   0.36690   0.79488   0.00000  Uiso   1.00
H718   H     0.55302   0.63310   0.87179   0.00000  Uiso   1.00
H719   H     0.52768   0.36437   0.79564   0.00000  Uiso   1.00
H720   H     0.97233   0.63563   0.87102   0.00000  Uiso   1.00
H721   H     0.74304   0.65293   0.76258   0.00000  Uiso   1.00
H722   H     0.75696   0.34707   0.90408   0.00000  Uiso   1.00
N723   N     0.73745   0.48547   0.67951   0.00000  Uiso   1.00
N724   N     0.76256   0.51453   0.98716   0.00000  Uiso   1.00
O725   O     0.75326   0.42871   0.87326   0.00000  Uiso   1.00
O726   O     0.74675   0.57129   0.79341   0.00000  Uiso   1.00
O727   O     0.74480   0.41892   0.76945   0.00000  Uiso   1.00
O728   O     0.75520   0.58108   0.89721   0.00000  Uiso   1.00
O729   O     0.68936   0.50488   0.88524   0.00000  Uiso   1.00
O730   O     0.81065   0.49512   0.78143   0.00000  Uiso   1.00
O731   O     0.68090   0.49510   0.78143   0.00000  Uiso   1.00
O732   O     0.81910   0.50490   0.88523   0.00000  Uiso   1.00
Br733  Br    0.88154   0.61585   0.86477   0.00000  Uiso   1.00
Br734  Br    0.61846   0.38415   0.80189   0.00000  Uiso   1.00
Br735  Br    0.69226   0.43472   0.96757   0.00000  Uiso   1.00
Br736  Br    0.80774   0.56528   0.69909   0.00000  Uiso   1.00
C737   C     0.24860   0.73328   0.81769   0.00000  Uiso   1.00
C738   C     0.25140   0.93338   0.84898   0.00000  Uiso   1.00
C739   C     0.01446   0.73609   0.80619   0.00000  Uiso   1.00
C740   C     0.48554   0.93057   0.86047   0.00000  Uiso   1.00
C741   C     0.24767   0.67713   0.80911   0.00000  Uiso   1.00
C742   C     0.25233   0.98954   0.85756   0.00000  Uiso   1.00
C743   C     0.16466   0.83272   0.83369   0.00000  Uiso   1.00
C744   C     0.33534   0.83395   0.83298   0.00000  Uiso   1.00
C745   C     0.41020   0.88355   0.84637   0.00000  Uiso   1.00
C746   C     0.08980   0.78311   0.82030   0.00000  Uiso   1.00
C747   C     0.38351   0.83507   0.83220   0.00000  Uiso   1.00
C748   C     0.11649   0.83160   0.83447   0.00000  Uiso   1.00
C749   C     0.40252   0.78680   0.81835   0.00000  Uiso   1.00
C750   C     0.09748   0.87987   0.84832   0.00000  Uiso   1.00
C751   C     0.44891   0.78581   0.81886   0.00000  Uiso   1.00
C752   C     0.05109   0.88086   0.84780   0.00000  Uiso   1.00
C753   C     0.47652   0.83394   0.83305   0.00000  Uiso   1.00
C754   C     0.02348   0.83272   0.83362   0.00000  Uiso   1.00
C755   C     0.45723   0.88320   0.84671   0.00000  Uiso   1.00
C756   C     0.04277   0.78346   0.81996   0.00000  Uiso   1.00
C757   C     0.46802   0.73733   0.80566   0.00000  Uiso   1.00
C758   C     0.03198   0.92933   0.86101   0.00000  Uiso   1.00
Cu759  Cu    0.25501   0.83913   0.89479   0.00000  Uiso   1.00
Cu760  Cu    0.24500   0.82754   0.77187   0.00000  Uiso   1.00
H761   H     0.38100   0.74998   0.80778   0.00000  Uiso   1.00
H762   H     0.11901   0.91668   0.85889   0.00000  Uiso   1.00
H763   H     0.44698   0.70023   0.79488   0.00000  Uiso   1.00
H764   H     0.05302   0.96644   0.87179   0.00000  Uiso   1.00
H765   H     0.02768   0.69770   0.79564   0.00000  Uiso   1.00
H766   H     0.47233   0.96896   0.87102   0.00000  Uiso   1.00
H767   H     0.24304   0.98626   0.76258   0.00000  Uiso   1.00
H768   H     0.25696   0.68041   0.90408   0.00000  Uiso   1.00
N769   N     0.23745   0.81881   0.67951   0.00000  Uiso   1.00
N770   N     0.26256   0.84786   0.98716   0.00000  Uiso   1.00
O771   O     0.25326   0.76204   0.87326   0.00000  Uiso   1.00
O772   O     0.24675   0.90462   0.79341   0.00000  Uiso   1.00
O773   O     0.24480   0.75226   0.76945   0.00000  Uiso   1.00
O774   O     0.25520   0.91441   0.89721   0.00000  Uiso   1.00
O775   O     0.18936   0.83821   0.88524   0.00000  Uiso   1.00
O776   O     0.31065   0.82845   0.78143   0.00000  Uiso   1.00
O777   O     0.18090   0.82843   0.78143   0.00000  Uiso   1.00
O778   O     0.31910   0.83824   0.88523   0.00000  Uiso   1.00
Br779  Br    0.38154   0.94918   0.86477   0.00000  Uiso   1.00
Br780  Br    0.11846   0.71749   0.80189   0.00000  Uiso   1.00
Br781  Br    0.19226   0.76805   0.96757   0.00000  Uiso   1.00
Br782  Br    0.30774   0.89862   0.69909   0.00000  Uiso   1.00
C783   C     0.74860   0.73328   0.81769   0.00000  Uiso   1.00
C784   C     0.75140   0.93338   0.84898   0.00000  Uiso   1.00
C785   C     0.51446   0.73609   0.80619   0.00000  Uiso   1.00
C786   C     0.98554   0.93057   0.86047   0.00000  Uiso   1.00
C787   C     0.74767   0.67713   0.80911   0.00000  Uiso   1.00
C788   C     0.75233   0.98954   0.85756   0.00000  Uiso   1.00
C789   C     0.66466   0.83272   0.83369   0.00000  Uiso   1.00
C790   C     0.83534   0.83395   0.83298   0.00000  Uiso   1.00
C791   C     0.91020   0.88355   0.84637   0.00000  Uiso   1.00
C792   C     0.58980   0.78311   0.82030   0.00000  Uiso   1.00
C793   C     0.88351   0.83507   0.83220   0.00000  Uiso   1.00
C794   C     0.61649   0.83160   0.83447   0.00000  Uiso   1.00
C795   C     0.90252   0.78680   0.81835   0.00000  Uiso   1.00
C796   C     0.59748   0.87987   0.84832   0.00000  Uiso   1.00
C797   C     0.94891   0.78581   0.81886   0.00000  Uiso   1.00
C798   C     0.55109   0.88086   0.84780   0.00000  Uiso   1.00
C799   C     0.97652   0.83394   0.83305   0.00000  Uiso   1.00
C800   C     0.52348   0.83272   0.83362   0.00000  Uiso   1.00
C801   C     0.95723   0.88320   0.84671   0.00000  Uiso   1.00
C802   C     0.54277   0.78346   0.81996   0.00000  Uiso   1.00
C803   C     0.96802   0.73733   0.80566   0.00000  Uiso   1.00
C804   C     0.53198   0.92933   0.86101   0.00000  Uiso   1.00
Cu805  Cu    0.75501   0.83913   0.89479   0.00000  Uiso   1.00
Cu806  Cu    0.74500   0.82754   0.77187   0.00000  Uiso   1.00
H807   H     0.88100   0.74998   0.80778   0.00000  Uiso   1.00
H808   H     0.61901   0.91668   0.85889   0.00000  Uiso   1.00
H809   H     0.94698   0.70023   0.79488   0.00000  Uiso   1.00
H810   H     0.55302   0.96644   0.87179   0.00000  Uiso   1.00
H811   H     0.52768   0.69770   0.79564   0.00000  Uiso   1.00
H812   H     0.97233   0.96896   0.87102   0.00000  Uiso   1.00
H813   H     0.74304   0.98626   0.76258   0.00000  Uiso   1.00
H814   H     0.75696   0.68041   0.90408   0.00000  Uiso   1.00
N815   N     0.73745   0.81881   0.67951   0.00000  Uiso   1.00
N816   N     0.76256   0.84786   0.98716   0.00000  Uiso   1.00
O817   O     0.75326   0.76204   0.87326   0.00000  Uiso   1.00
O818   O     0.74675   0.90462   0.79341   0.00000  Uiso   1.00
O819   O     0.74480   0.75226   0.76945   0.00000  Uiso   1.00
O820   O     0.75520   0.91441   0.89721   0.00000  Uiso   1.00
O821   O     0.68936   0.83821   0.88524   0.00000  Uiso   1.00
O822   O     0.81065   0.82845   0.78143   0.00000  Uiso   1.00
O823   O     0.68090   0.82843   0.78143   0.00000  Uiso   1.00
O824   O     0.81910   0.83824   0.88523   0.00000  Uiso   1.00
Br825  Br    0.88154   0.94918   0.86477   0.00000  Uiso   1.00
Br826  Br    0.61846   0.71749   0.80189   0.00000  Uiso   1.00
Br827  Br    0.69226   0.76805   0.96757   0.00000  Uiso   1.00
Br828  Br    0.80774   0.89862   0.69909   0.00000  Uiso   1.00
loop_
_geom_bond_atom_site_label_1
_geom_bond_atom_site_label_2
_geom_bond_distance
_geom_bond_site_symmetry_2
_ccdc_geom_bond_type
C1     O37     1.295   .     A
C1     C5      1.427   .     S
C1     O35     1.297   .     A
C2     O38     1.295   .     A
C2     O36     1.297   .     A
C2     C6      1.427   .     S
C3     C20     1.407   .     A
C3     H29     1.081   .     S
C3     C67     1.391   1_455 S
C4     C19     1.407   .     A
C4     H30     1.081   .     S
C4     C68     1.391   .     S
C5     C190    1.331   1_545 S
C5     H215    1.087   1_545 S
C6     C97     1.331   .     S
C6     H124    1.087   .     S
C7     O41     1.298   .     A
C7     C12     1.441   .     S
C7     O39     1.300   .     A
C8     C11     1.441   .     S
C8     O42     1.298   .     A
C8     O40     1.300   .     A
C9     C11     1.405   .     A
C9     Br43    1.935   .     S
C9     C19     1.407   .     A
C10    C12     1.405   .     A
C10    Br44    1.935   .     S
C10    C20     1.407   .     A
C11    C13     1.393   .     A
C12    C14     1.393   .     A
C13    C15     1.389   .     A
C13    H25     1.086   .     S
C14    H26     1.086   .     S
C14    C16     1.389   .     A
C15    C17     1.411   .     A
C15    C21     1.398   .     A
C16    C18     1.411   .     A
C16    C22     1.398   .     A
C17    C19     1.419   .     A
C17    C64     1.406   .     S
C18    C20     1.419   .     A
C18    C63     1.406   1_455 S
C21    H27     1.084   .     S
C21    C49     1.391   .     S
C22    H28     1.084   .     S
C22    C50     1.391   1_455 S
Cu23   Cu24    2.713   .     S
Cu23   O38     1.946   .     S
Cu23   O35     1.948   .     S
Cu23   N34     2.038   .     S
Cu23   O42     1.949   .     S
Cu23   O39     1.956   .     S
Cu24   N33     2.038   .     S
Cu24   O37     1.946   .     S
Cu24   O41     1.949   .     S
Cu24   O36     1.948   .     S
Cu24   O40     1.956   .     S
H31    C97     1.087   .     S
H32    C190    1.087   1_545 S
N33    N586    1.293   1_554 S
N33    Br597   1.881   1_554 S
N34    N309    1.293   .     S
N34    Br322   1.881   .     S
Br45   N309    1.881   .     S
Br46   N586    1.881   1_554 S
C47    O83     1.295   .     A
C47    C51     1.427   .     S
C47    O81     1.297   .     A
C48    O84     1.295   .     A
C48    O82     1.297   .     A
C48    C52     1.427   .     S
C49    C66     1.407   .     A
C49    H75     1.081   .     S
C50    C65     1.407   .     A
C50    H76     1.081   .     S
C50    C22     1.391   1_655 S
C51    C236    1.331   1_545 S
C51    H261    1.087   1_545 S
C52    C143    1.331   .     S
C52    H170    1.087   .     S
C53    O87     1.298   .     A
C53    C58     1.441   .     S
C53    O85     1.300   .     A
C54    C57     1.441   .     S
C54    O88     1.298   .     A
C54    O86     1.300   .     A
C55    C57     1.405   .     A
C55    Br89    1.935   .     S
C55    C65     1.407   .     A
C56    C58     1.405   .     A
C56    Br90    1.935   .     S
C56    C66     1.407   .     A
C57    C59     1.393   .     A
C58    C60     1.393   .     A
C59    C61     1.389   .     A
C59    H71     1.086   .     S
C60    H72     1.086   .     S
C60    C62     1.389   .     A
C61    C63     1.411   .     A
C61    C67     1.398   .     A
C62    C64     1.411   .     A
C62    C68     1.398   .     A
C63    C65     1.419   .     A
C63    C18     1.406   1_655 S
C64    C66     1.419   .     A
C67    H73     1.084   .     S
C67    C3      1.391   1_655 S
C68    H74     1.084   .     S
Cu69   Cu70    2.713   .     S
Cu69   O84     1.946   .     S
Cu69   O81     1.948   .     S
Cu69   N80     2.038   .     S
Cu69   O88     1.949   .     S
Cu69   O85     1.956   .     S
Cu70   N79     2.038   .     S
Cu70   O83     1.946   .     S
Cu70   O87     1.949   .     S
Cu70   O82     1.948   .     S
Cu70   O86     1.956   .     S
H77    C143    1.087   .     S
H78    C236    1.087   1_545 S
N79    N632    1.293   1_554 S
N79    Br643   1.881   1_554 S
N80    N355    1.293   .     S
N80    Br368   1.881   .     S
Br91   N355    1.881   .     S
Br92   N632    1.881   1_554 S
C93    O129    1.295   .     A
C93    C97     1.427   .     S
C93    O127    1.297   .     A
C94    O130    1.295   .     A
C94    O128    1.297   .     A
C94    C98     1.427   .     S
C95    C112    1.407   .     A
C95    H121    1.081   .     S
C95    C159    1.391   1_455 S
C96    C111    1.407   .     A
C96    H122    1.081   .     S
C96    C160    1.391   .     S
C98    C189    1.331   .     S
C98    H216    1.087   .     S
C99    O133    1.298   .     A
C99    C104    1.441   .     S
C99    O131    1.300   .     A
C100   C103    1.441   .     S
C100   O134    1.298   .     A
C100   O132    1.300   .     A
C101   C103    1.405   .     A
C101   Br135   1.935   .     S
C101   C111    1.407   .     A
C102   C104    1.405   .     A
C102   Br136   1.935   .     S
C102   C112    1.407   .     A
C103   C105    1.393   .     A
C104   C106    1.393   .     A
C105   C107    1.389   .     A
C105   H117    1.086   .     S
C106   H118    1.086   .     S
C106   C108    1.389   .     A
C107   C109    1.411   .     A
C107   C113    1.398   .     A
C108   C110    1.411   .     A
C108   C114    1.398   .     A
C109   C111    1.419   .     A
C109   C156    1.406   .     S
C110   C112    1.419   .     A
C110   C155    1.406   1_455 S
C113   H119    1.084   .     S
C113   C141    1.391   .     S
C114   H120    1.084   .     S
C114   C142    1.391   1_455 S
Cu115  Cu116   2.713   .     S
Cu115  O130    1.946   .     S
Cu115  O127    1.948   .     S
Cu115  N126    2.038   .     S
Cu115  O134    1.949   .     S
Cu115  O131    1.956   .     S
Cu116  N125    2.038   .     S
Cu116  O129    1.946   .     S
Cu116  O133    1.949   .     S
Cu116  O128    1.948   .     S
Cu116  O132    1.956   .     S
H123   C189    1.087   .     S
N125   N678    1.293   1_554 S
N125   Br689   1.881   1_554 S
N126   N401    1.293   .     S
N126   Br414   1.881   .     S
Br137  N401    1.881   .     S
Br138  N678    1.881   1_554 S
C139   O175    1.295   .     A
C139   C143    1.427   .     S
C139   O173    1.297   .     A
C140   O176    1.295   .     A
C140   O174    1.297   .     A
C140   C144    1.427   .     S
C141   C158    1.407   .     A
C141   H167    1.081   .     S
C142   C157    1.407   .     A
C142   H168    1.081   .     S
C142   C114    1.391   1_655 S
C144   C235    1.331   .     S
C144   H262    1.087   .     S
C145   O179    1.298   .     A
C145   C150    1.441   .     S
C145   O177    1.300   .     A
C146   C149    1.441   .     S
C146   O180    1.298   .     A
C146   O178    1.300   .     A
C147   C149    1.405   .     A
C147   Br181   1.935   .     S
C147   C157    1.407   .     A
C148   C150    1.405   .     A
C148   Br182   1.935   .     S
C148   C158    1.407   .     A
C149   C151    1.393   .     A
C150   C152    1.393   .     A
C151   C153    1.389   .     A
C151   H163    1.086   .     S
C152   H164    1.086   .     S
C152   C154    1.389   .     A
C153   C155    1.411   .     A
C153   C159    1.398   .     A
C154   C156    1.411   .     A
C154   C160    1.398   .     A
C155   C157    1.419   .     A
C155   C110    1.406   1_655 S
C156   C158    1.419   .     A
C159   H165    1.084   .     S
C159   C95     1.391   1_655 S
C160   H166    1.084   .     S
Cu161  Cu162   2.713   .     S
Cu161  O176    1.946   .     S
Cu161  O173    1.948   .     S
Cu161  N172    2.038   .     S
Cu161  O180    1.949   .     S
Cu161  O177    1.956   .     S
Cu162  N171    2.038   .     S
Cu162  O175    1.946   .     S
Cu162  O179    1.949   .     S
Cu162  O174    1.948   .     S
Cu162  O178    1.956   .     S
H169   C235    1.087   .     S
N171   N724    1.293   1_554 S
N171   Br735   1.881   1_554 S
N172   N447    1.293   .     S
N172   Br460   1.881   .     S
Br183  N447    1.881   .     S
Br184  N724    1.881   1_554 S
C185   O221    1.295   .     A
C185   C189    1.427   .     S
C185   O219    1.297   .     A
C186   O222    1.295   .     A
C186   O220    1.297   .     A
C186   C190    1.427   .     S
C187   C204    1.407   .     A
C187   H213    1.081   .     S
C187   C251    1.391   1_455 S
C188   C203    1.407   .     A
C188   H214    1.081   .     S
C188   C252    1.391   .     S
C190   C5      1.331   1_565 S
C190   H32     1.087   1_565 S
C191   O225    1.298   .     A
C191   C196    1.441   .     S
C191   O223    1.300   .     A
C192   C195    1.441   .     S
C192   O226    1.298   .     A
C192   O224    1.300   .     A
C193   C195    1.405   .     A
C193   Br227   1.935   .     S
C193   C203    1.407   .     A
C194   C196    1.405   .     A
C194   Br228   1.935   .     S
C194   C204    1.407   .     A
C195   C197    1.393   .     A
C196   C198    1.393   .     A
C197   C199    1.389   .     A
C197   H209    1.086   .     S
C198   H210    1.086   .     S
C198   C200    1.389   .     A
C199   C201    1.411   .     A
C199   C205    1.398   .     A
C200   C202    1.411   .     A
C200   C206    1.398   .     A
C201   C203    1.419   .     A
C201   C248    1.406   .     S
C202   C204    1.419   .     A
C202   C247    1.406   1_455 S
C205   H211    1.084   .     S
C205   C233    1.391   .     S
C206   H212    1.084   .     S
C206   C234    1.391   1_455 S
Cu207  Cu208   2.713   .     S
Cu207  O222    1.946   .     S
Cu207  O219    1.948   .     S
Cu207  N218    2.038   .     S
Cu207  O226    1.949   .     S
Cu207  O223    1.956   .     S
Cu208  N217    2.038   .     S
Cu208  O221    1.946   .     S
Cu208  O225    1.949   .     S
Cu208  O220    1.948   .     S
Cu208  O224    1.956   .     S
H215   C5      1.087   1_565 S
N217   N770    1.293   1_554 S
N217   Br781   1.881   1_554 S
N218   N493    1.293   .     S
N218   Br506   1.881   .     S
Br229  N493    1.881   .     S
Br230  N770    1.881   1_554 S
C231   O267    1.295   .     A
C231   C235    1.427   .     S
C231   O265    1.297   .     A
C232   O268    1.295   .     A
C232   O266    1.297   .     A
C232   C236    1.427   .     S
C233   C250    1.407   .     A
C233   H259    1.081   .     S
C234   C249    1.407   .     A
C234   H260    1.081   .     S
C234   C206    1.391   1_655 S
C236   C51     1.331   1_565 S
C236   H78     1.087   1_565 S
C237   O271    1.298   .     A
C237   C242    1.441   .     S
C237   O269    1.300   .     A
C238   C241    1.441   .     S
C238   O272    1.298   .     A
C238   O270    1.300   .     A
C239   C241    1.405   .     A
C239   Br273   1.935   .     S
C239   C249    1.407   .     A
C240   C242    1.405   .     A
C240   Br274   1.935   .     S
C240   C250    1.407   .     A
C241   C243    1.393   .     A
C242   C244    1.393   .     A
C243   C245    1.389   .     A
C243   H255    1.086   .     S
C244   H256    1.086   .     S
C244   C246    1.389   .     A
C245   C247    1.411   .     A
C245   C251    1.398   .     A
C246   C248    1.411   .     A
C246   C252    1.398   .     A
C247   C249    1.419   .     A
C247   C202    1.406   1_655 S
C248   C250    1.419   .     A
C251   H257    1.084   .     S
C251   C187    1.391   1_655 S
C252   H258    1.084   .     S
Cu253  Cu254   2.713   .     S
Cu253  O268    1.946   .     S
Cu253  O265    1.948   .     S
Cu253  N264    2.038   .     S
Cu253  O272    1.949   .     S
Cu253  O269    1.956   .     S
Cu254  N263    2.038   .     S
Cu254  O267    1.946   .     S
Cu254  O271    1.949   .     S
Cu254  O266    1.948   .     S
Cu254  O270    1.956   .     S
H261   C51     1.087   1_565 S
N263   N816    1.293   1_554 S
N263   Br827   1.881   1_554 S
N264   N539    1.293   .     S
N264   Br552   1.881   .     S
Br275  N539    1.881   .     S
Br276  N816    1.881   1_554 S
C277   O313    1.295   .     A
C277   C281    1.427   .     S
C277   O311    1.297   .     A
C278   O314    1.295   .     A
C278   O312    1.297   .     A
C278   C282    1.427   .     S
C279   C296    1.407   .     A
C279   H305    1.081   .     S
C279   C343    1.391   1_455 S
C280   C295    1.407   .     A
C280   H306    1.081   .     S
C280   C344    1.391   .     S
C281   C466    1.331   1_545 S
C281   H491    1.087   1_545 S
C282   C373    1.331   .     S
C282   H400    1.087   .     S
C283   O317    1.298   .     A
C283   C288    1.441   .     S
C283   O315    1.300   .     A
C284   C287    1.441   .     S
C284   O318    1.298   .     A
C284   O316    1.300   .     A
C285   C287    1.405   .     A
C285   Br319   1.935   .     S
C285   C295    1.407   .     A
C286   C288    1.405   .     A
C286   Br320   1.935   .     S
C286   C296    1.407   .     A
C287   C289    1.393   .     A
C288   C290    1.393   .     A
C289   C291    1.389   .     A
C289   H301    1.086   .     S
C290   H302    1.086   .     S
C290   C292    1.389   .     A
C291   C293    1.411   .     A
C291   C297    1.398   .     A
C292   C294    1.411   .     A
C292   C298    1.398   .     A
C293   C295    1.419   .     A
C293   C340    1.406   .     S
C294   C296    1.419   .     A
C294   C339    1.406   1_455 S
C297   H303    1.084   .     S
C297   C325    1.391   .     S
C298   H304    1.084   .     S
C298   C326    1.391   1_455 S
Cu299  Cu300   2.713   .     S
Cu299  O314    1.946   .     S
Cu299  O311    1.948   .     S
Cu299  N310    2.038   .     S
Cu299  O318    1.949   .     S
Cu299  O315    1.956   .     S
Cu300  N309    2.038   .     S
Cu300  O313    1.946   .     S
Cu300  O317    1.949   .     S
Cu300  O312    1.948   .     S
Cu300  O316    1.956   .     S
H307   C373    1.087   .     S
H308   C466    1.087   1_545 S
N310   N585    1.293   .     S
N310   Br598   1.881   .     S
Br321  N585    1.881   .     S
C323   O359    1.295   .     A
C323   C327    1.427   .     S
C323   O357    1.297   .     A
C324   O360    1.295   .     A
C324   O358    1.297   .     A
C324   C328    1.427   .     S
C325   C342    1.407   .     A
C325   H351    1.081   .     S
C326   C341    1.407   .     A
C326   H352    1.081   .     S
C326   C298    1.391   1_655 S
C327   C512    1.331   1_545 S
C327   H537    1.087   1_545 S
C328   C419    1.331   .     S
C328   H446    1.087   .     S
C329   O363    1.298   .     A
C329   C334    1.441   .     S
C329   O361    1.300   .     A
C330   C333    1.441   .     S
C330   O364    1.298   .     A
C330   O362    1.300   .     A
C331   C333    1.405   .     A
C331   Br365   1.935   .     S
C331   C341    1.407   .     A
C332   C334    1.405   .     A
C332   Br366   1.935   .     S
C332   C342    1.407   .     A
C333   C335    1.393   .     A
C334   C336    1.393   .     A
C335   C337    1.389   .     A
C335   H347    1.086   .     S
C336   H348    1.086   .     S
C336   C338    1.389   .     A
C337   C339    1.411   .     A
C337   C343    1.398   .     A
C338   C340    1.411   .     A
C338   C344    1.398   .     A
C339   C341    1.419   .     A
C339   C294    1.406   1_655 S
C340   C342    1.419   .     A
C343   H349    1.084   .     S
C343   C279    1.391   1_655 S
C344   H350    1.084   .     S
Cu345  Cu346   2.713   .     S
Cu345  O360    1.946   .     S
Cu345  O357    1.948   .     S
Cu345  N356    2.038   .     S
Cu345  O364    1.949   .     S
Cu345  O361    1.956   .     S
Cu346  N355    2.038   .     S
Cu346  O359    1.946   .     S
Cu346  O363    1.949   .     S
Cu346  O358    1.948   .     S
Cu346  O362    1.956   .     S
H353   C419    1.087   .     S
H354   C512    1.087   1_545 S
N356   N631    1.293   .     S
N356   Br644   1.881   .     S
Br367  N631    1.881   .     S
C369   O405    1.295   .     A
C369   C373    1.427   .     S
C369   O403    1.297   .     A
C370   O406    1.295   .     A
C370   O404    1.297   .     A
C370   C374    1.427   .     S
C371   C388    1.407   .     A
C371   H397    1.081   .     S
C371   C435    1.391   1_455 S
C372   C387    1.407   .     A
C372   H398    1.081   .     S
C372   C436    1.391   .     S
C374   C465    1.331   .     S
C374   H492    1.087   .     S
C375   O409    1.298   .     A
C375   C380    1.441   .     S
C375   O407    1.300   .     A
C376   C379    1.441   .     S
C376   O410    1.298   .     A
C376   O408    1.300   .     A
C377   C379    1.405   .     A
C377   Br411   1.935   .     S
C377   C387    1.407   .     A
C378   C380    1.405   .     A
C378   Br412   1.935   .     S
C378   C388    1.407   .     A
C379   C381    1.393   .     A
C380   C382    1.393   .     A
C381   C383    1.389   .     A
C381   H393    1.086   .     S
C382   H394    1.086   .     S
C382   C384    1.389   .     A
C383   C385    1.411   .     A
C383   C389    1.398   .     A
C384   C386    1.411   .     A
C384   C390    1.398   .     A
C385   C387    1.419   .     A
C385   C432    1.406   .     S
C386   C388    1.419   .     A
C386   C431    1.406   1_455 S
C389   H395    1.084   .     S
C389   C417    1.391   .     S
C390   H396    1.084   .     S
C390   C418    1.391   1_455 S
Cu391  Cu392   2.713   .     S
Cu391  O406    1.946   .     S
Cu391  O403    1.948   .     S
Cu391  N402    2.038   .     S
Cu391  O410    1.949   .     S
Cu391  O407    1.956   .     S
Cu392  N401    2.038   .     S
Cu392  O405    1.946   .     S
Cu392  O409    1.949   .     S
Cu392  O404    1.948   .     S
Cu392  O408    1.956   .     S
H399   C465    1.087   .     S
N402   N677    1.293   .     S
N402   Br690   1.881   .     S
Br413  N677    1.881   .     S
C415   O451    1.295   .     A
C415   C419    1.427   .     S
C415   O449    1.297   .     A
C416   O452    1.295   .     A
C416   O450    1.297   .     A
C416   C420    1.427   .     S
C417   C434    1.407   .     A
C417   H443    1.081   .     S
C418   C433    1.407   .     A
C418   H444    1.081   .     S
C418   C390    1.391   1_655 S
C420   C511    1.331   .     S
C420   H538    1.087   .     S
C421   O455    1.298   .     A
C421   C426    1.441   .     S
C421   O453    1.300   .     A
C422   C425    1.441   .     S
C422   O456    1.298   .     A
C422   O454    1.300   .     A
C423   C425    1.405   .     A
C423   Br457   1.935   .     S
C423   C433    1.407   .     A
C424   C426    1.405   .     A
C424   Br458   1.935   .     S
C424   C434    1.407   .     A
C425   C427    1.393   .     A
C426   C428    1.393   .     A
C427   C429    1.389   .     A
C427   H439    1.086   .     S
C428   H440    1.086   .     S
C428   C430    1.389   .     A
C429   C431    1.411   .     A
C429   C435    1.398   .     A
C430   C432    1.411   .     A
C430   C436    1.398   .     A
C431   C433    1.419   .     A
C431   C386    1.406   1_655 S
C432   C434    1.419   .     A
C435   H441    1.084   .     S
C435   C371    1.391   1_655 S
C436   H442    1.084   .     S
Cu437  Cu438   2.713   .     S
Cu437  O452    1.946   .     S
Cu437  O449    1.948   .     S
Cu437  N448    2.038   .     S
Cu437  O456    1.949   .     S
Cu437  O453    1.956   .     S
Cu438  N447    2.038   .     S
Cu438  O451    1.946   .     S
Cu438  O455    1.949   .     S
Cu438  O450    1.948   .     S
Cu438  O454    1.956   .     S
H445   C511    1.087   .     S
N448   N723    1.293   .     S
N448   Br736   1.881   .     S
Br459  N723    1.881   .     S
C461   O497    1.295   .     A
C461   C465    1.427   .     S
C461   O495    1.297   .     A
C462   O498    1.295   .     A
C462   O496    1.297   .     A
C462   C466    1.427   .     S
C463   C480    1.407   .     A
C463   H489    1.081   .     S
C463   C527    1.391   1_455 S
C464   C479    1.407   .     A
C464   H490    1.081   .     S
C464   C528    1.391   .     S
C466   C281    1.331   1_565 S
C466   H308    1.087   1_565 S
C467   O501    1.298   .     A
C467   C472    1.441   .     S
C467   O499    1.300   .     A
C468   C471    1.441   .     S
C468   O502    1.298   .     A
C468   O500    1.300   .     A
C469   C471    1.405   .     A
C469   Br503   1.935   .     S
C469   C479    1.407   .     A
C470   C472    1.405   .     A
C470   Br504   1.935   .     S
C470   C480    1.407   .     A
C471   C473    1.393   .     A
C472   C474    1.393   .     A
C473   C475    1.389   .     A
C473   H485    1.086   .     S
C474   H486    1.086   .     S
C474   C476    1.389   .     A
C475   C477    1.411   .     A
C475   C481    1.398   .     A
C476   C478    1.411   .     A
C476   C482    1.398   .     A
C477   C479    1.419   .     A
C477   C524    1.406   .     S
C478   C480    1.419   .     A
C478   C523    1.406   1_455 S
C481   H487    1.084   .     S
C481   C509    1.391   .     S
C482   H488    1.084   .     S
C482   C510    1.391   1_455 S
Cu483  Cu484   2.713   .     S
Cu483  O498    1.946   .     S
Cu483  O495    1.948   .     S
Cu483  N494    2.038   .     S
Cu483  O502    1.949   .     S
Cu483  O499    1.956   .     S
Cu484  N493    2.038   .     S
Cu484  O497    1.946   .     S
Cu484  O501    1.949   .     S
Cu484  O496    1.948   .     S
Cu484  O500    1.956   .     S
H491   C281    1.087   1_565 S
N494   N769    1.293   .     S
N494   Br782   1.881   .     S
Br505  N769    1.881   .     S
C507   O543    1.295   .     A
C507   C511    1.427   .     S
C507   O541    1.297   .     A
C508   O544    1.295   .     A
C508   O542    1.297   .     A
C508   C512    1.427   .     S
C509   C526    1.407   .     A
C509   H535    1.081   .     S
C510   C525    1.407   .     A
C510   H536    1.081   .     S
C510   C482    1.391   1_655 S
C512   C327    1.331   1_565 S
C512   H354    1.087   1_565 S
C513   O547    1.298   .     A
C513   C518    1.441   .     S
C513   O545    1.300   .     A
C514   C517    1.441   .     S
C514   O548    1.298   .     A
C514   O546    1.300   .     A
C515   C517    1.405   .     A
C515   Br549   1.935   .     S
C515   C525    1.407   .     A
C516   C518    1.405   .     A
C516   Br550   1.935   .     S
C516   C526    1.407   .     A
C517   C519    1.393   .     A
C518   C520    1.393   .     A
C519   C521    1.389   .     A
C519   H531    1.086   .     S
C520   H532    1.086   .     S
C520   C522    1.389   .     A
C521   C523    1.411   .     A
C521   C527    1.398   .     A
C522   C524    1.411   .     A
C522   C528    1.398   .     A
C523   C525    1.419   .     A
C523   C478    1.406   1_655 S
C524   C526    1.419   .     A
C527   H533    1.084   .     S
C527   C463    1.391   1_655 S
C528   H534    1.084   .     S
Cu529  Cu530   2.713   .     S
Cu529  O544    1.946   .     S
Cu529  O541    1.948   .     S
Cu529  N540    2.038   .     S
Cu529  O548    1.949   .     S
Cu529  O545    1.956   .     S
Cu530  N539    2.038   .     S
Cu530  O543    1.946   .     S
Cu530  O547    1.949   .     S
Cu530  O542    1.948   .     S
Cu530  O546    1.956   .     S
H537   C327    1.087   1_565 S
N540   N815    1.293   .     S
N540   Br828   1.881   .     S
Br551  N815    1.881   .     S
C553   O589    1.295   .     A
C553   C557    1.427   .     S
C553   O587    1.297   .     A
C554   O590    1.295   .     A
C554   O588    1.297   .     A
C554   C558    1.427   .     S
C555   C572    1.407   .     A
C555   H581    1.081   .     S
C555   C619    1.391   1_455 S
C556   C571    1.407   .     A
C556   H582    1.081   .     S
C556   C620    1.391   .     S
C557   C742    1.331   1_545 S
C557   H767    1.087   1_545 S
C558   C649    1.331   .     S
C558   H676    1.087   .     S
C559   O593    1.298   .     A
C559   C564    1.441   .     S
C559   O591    1.300   .     A
C560   C563    1.441   .     S
C560   O594    1.298   .     A
C560   O592    1.300   .     A
C561   C563    1.405   .     A
C561   Br595   1.935   .     S
C561   C571    1.407   .     A
C562   C564    1.405   .     A
C562   Br596   1.935   .     S
C562   C572    1.407   .     A
C563   C565    1.393   .     A
C564   C566    1.393   .     A
C565   C567    1.389   .     A
C565   H577    1.086   .     S
C566   H578    1.086   .     S
C566   C568    1.389   .     A
C567   C569    1.411   .     A
C567   C573    1.398   .     A
C568   C570    1.411   .     A
C568   C574    1.398   .     A
C569   C571    1.419   .     A
C569   C616    1.406   .     S
C570   C572    1.419   .     A
C570   C615    1.406   1_455 S
C573   H579    1.084   .     S
C573   C601    1.391   .     S
C574   H580    1.084   .     S
C574   C602    1.391   1_455 S
Cu575  Cu576   2.713   .     S
Cu575  O590    1.946   .     S
Cu575  O587    1.948   .     S
Cu575  N586    2.038   .     S
Cu575  O594    1.949   .     S
Cu575  O591    1.956   .     S
Cu576  N585    2.038   .     S
Cu576  O589    1.946   .     S
Cu576  O593    1.949   .     S
Cu576  O588    1.948   .     S
Cu576  O592    1.956   .     S
H583   C649    1.087   .     S
H584   C742    1.087   1_545 S
N586   N33     1.293   1_556 S
N586   Br46    1.881   1_556 S
Br597  N33     1.881   1_556 S
C599   O635    1.295   .     A
C599   C603    1.427   .     S
C599   O633    1.297   .     A
C600   O636    1.295   .     A
C600   O634    1.297   .     A
C600   C604    1.427   .     S
C601   C618    1.407   .     A
C601   H627    1.081   .     S
C602   C617    1.407   .     A
C602   H628    1.081   .     S
C602   C574    1.391   1_655 S
C603   C788    1.331   1_545 S
C603   H813    1.087   1_545 S
C604   C695    1.331   .     S
C604   H722    1.087   .     S
C605   O639    1.298   .     A
C605   C610    1.441   .     S
C605   O637    1.300   .     A
C606   C609    1.441   .     S
C606   O640    1.298   .     A
C606   O638    1.300   .     A
C607   C609    1.405   .     A
C607   Br641   1.935   .     S
C607   C617    1.407   .     A
C608   C610    1.405   .     A
C608   Br642   1.935   .     S
C608   C618    1.407   .     A
C609   C611    1.393   .     A
C610   C612    1.393   .     A
C611   C613    1.389   .     A
C611   H623    1.086   .     S
C612   H624    1.086   .     S
C612   C614    1.389   .     A
C613   C615    1.411   .     A
C613   C619    1.398   .     A
C614   C616    1.411   .     A
C614   C620    1.398   .     A
C615   C617    1.419   .     A
C615   C570    1.406   1_655 S
C616   C618    1.419   .     A
C619   H625    1.084   .     S
C619   C555    1.391   1_655 S
C620   H626    1.084   .     S
Cu621  Cu622   2.713   .     S
Cu621  O636    1.946   .     S
Cu621  O633    1.948   .     S
Cu621  N632    2.038   .     S
Cu621  O640    1.949   .     S
Cu621  O637    1.956   .     S
Cu622  N631    2.038   .     S
Cu622  O635    1.946   .     S
Cu622  O639    1.949   .     S
Cu622  O634    1.948   .     S
Cu622  O638    1.956   .     S
H629   C695    1.087   .     S
H630   C788    1.087   1_545 S
N632   N79     1.293   1_556 S
N632   Br92    1.881   1_556 S
Br643  N79     1.881   1_556 S
C645   O681    1.295   .     A
C645   C649    1.427   .     S
C645   O679    1.297   .     A
C646   O682    1.295   .     A
C646   O680    1.297   .     A
C646   C650    1.427   .     S
C647   C664    1.407   .     A
C647   H673    1.081   .     S
C647   C711    1.391   1_455 S
C648   C663    1.407   .     A
C648   H674    1.081   .     S
C648   C712    1.391   .     S
C650   C741    1.331   .     S
C650   H768    1.087   .     S
C651   O685    1.298   .     A
C651   C656    1.441   .     S
C651   O683    1.300   .     A
C652   C655    1.441   .     S
C652   O686    1.298   .     A
C652   O684    1.300   .     A
C653   C655    1.405   .     A
C653   Br687   1.935   .     S
C653   C663    1.407   .     A
C654   C656    1.405   .     A
C654   Br688   1.935   .     S
C654   C664    1.407   .     A
C655   C657    1.393   .     A
C656   C658    1.393   .     A
C657   C659    1.389   .     A
C657   H669    1.086   .     S
C658   H670    1.086   .     S
C658   C660    1.389   .     A
C659   C661    1.411   .     A
C659   C665    1.398   .     A
C660   C662    1.411   .     A
C660   C666    1.398   .     A
C661   C663    1.419   .     A
C661   C708    1.406   .     S
C662   C664    1.419   .     A
C662   C707    1.406   1_455 S
C665   H671    1.084   .     S
C665   C693    1.391   .     S
C666   H672    1.084   .     S
C666   C694    1.391   1_455 S
Cu667  Cu668   2.713   .     S
Cu667  O682    1.946   .     S
Cu667  O679    1.948   .     S
Cu667  N678    2.038   .     S
Cu667  O686    1.949   .     S
Cu667  O683    1.956   .     S
Cu668  N677    2.038   .     S
Cu668  O681    1.946   .     S
Cu668  O685    1.949   .     S
Cu668  O680    1.948   .     S
Cu668  O684    1.956   .     S
H675   C741    1.087   .     S
N678   N125    1.293   1_556 S
N678   Br138   1.881   1_556 S
Br689  N125    1.881   1_556 S
C691   O727    1.295   .     A
C691   C695    1.427   .     S
C691   O725    1.297   .     A
C692   O728    1.295   .     A
C692   O726    1.297   .     A
C692   C696    1.427   .     S
C693   C710    1.407   .     A
C693   H719    1.081   .     S
C694   C709    1.407   .     A
C694   H720    1.081   .     S
C694   C666    1.391   1_655 S
C696   C787    1.331   .     S
C696   H814    1.087   .     S
C697   O731    1.298   .     A
C697   C702    1.441   .     S
C697   O729    1.300   .     A
C698   C701    1.441   .     S
C698   O732    1.298   .     A
C698   O730    1.300   .     A
C699   C701    1.405   .     A
C699   Br733   1.935   .     S
C699   C709    1.407   .     A
C700   C702    1.405   .     A
C700   Br734   1.935   .     S
C700   C710    1.407   .     A
C701   C703    1.393   .     A
C702   C704    1.393   .     A
C703   C705    1.389   .     A
C703   H715    1.086   .     S
C704   H716    1.086   .     S
C704   C706    1.389   .     A
C705   C707    1.411   .     A
C705   C711    1.398   .     A
C706   C708    1.411   .     A
C706   C712    1.398   .     A
C707   C709    1.419   .     A
C707   C662    1.406   1_655 S
C708   C710    1.419   .     A
C711   H717    1.084   .     S
C711   C647    1.391   1_655 S
C712   H718    1.084   .     S
Cu713  Cu714   2.713   .     S
Cu713  O728    1.946   .     S
Cu713  O725    1.948   .     S
Cu713  N724    2.038   .     S
Cu713  O732    1.949   .     S
Cu713  O729    1.956   .     S
Cu714  N723    2.038   .     S
Cu714  O727    1.946   .     S
Cu714  O731    1.949   .     S
Cu714  O726    1.948   .     S
Cu714  O730    1.956   .     S
H721   C787    1.087   .     S
N724   N171    1.293   1_556 S
N724   Br184   1.881   1_556 S
Br735  N171    1.881   1_556 S
C737   O773    1.295   .     A
C737   C741    1.427   .     S
C737   O771    1.297   .     A
C738   O774    1.295   .     A
C738   O772    1.297   .     A
C738   C742    1.427   .     S
C739   C756    1.407   .     A
C739   H765    1.081   .     S
C739   C803    1.391   1_455 S
C740   C755    1.407   .     A
C740   H766    1.081   .     S
C740   C804    1.391   .     S
C742   C557    1.331   1_565 S
C742   H584    1.087   1_565 S
C743   O777    1.298   .     A
C743   C748    1.441   .     S
C743   O775    1.300   .     A
C744   C747    1.441   .     S
C744   O778    1.298   .     A
C744   O776    1.300   .     A
C745   C747    1.405   .     A
C745   Br779   1.935   .     S
C745   C755    1.407   .     A
C746   C748    1.405   .     A
C746   Br780   1.935   .     S
C746   C756    1.407   .     A
C747   C749    1.393   .     A
C748   C750    1.393   .     A
C749   C751    1.389   .     A
C749   H761    1.086   .     S
C750   H762    1.086   .     S
C750   C752    1.389   .     A
C751   C753    1.411   .     A
C751   C757    1.398   .     A
C752   C754    1.411   .     A
C752   C758    1.398   .     A
C753   C755    1.419   .     A
C753   C800    1.406   .     S
C754   C756    1.419   .     A
C754   C799    1.406   1_455 S
C757   H763    1.084   .     S
C757   C785    1.391   .     S
C758   H764    1.084   .     S
C758   C786    1.391   1_455 S
Cu759  Cu760   2.713   .     S
Cu759  O774    1.946   .     S
Cu759  O771    1.948   .     S
Cu759  N770    2.038   .     S
Cu759  O778    1.949   .     S
Cu759  O775    1.956   .     S
Cu760  N769    2.038   .     S
Cu760  O773    1.946   .     S
Cu760  O777    1.949   .     S
Cu760  O772    1.948   .     S
Cu760  O776    1.956   .     S
H767   C557    1.087   1_565 S
N770   N217    1.293   1_556 S
N770   Br230   1.881   1_556 S
Br781  N217    1.881   1_556 S
C783   O819    1.295   .     A
C783   C787    1.427   .     S
C783   O817    1.297   .     A
C784   O820    1.295   .     A
C784   O818    1.297   .     A
C784   C788    1.427   .     S
C785   C802    1.407   .     A
C785   H811    1.081   .     S
C786   C801    1.407   .     A
C786   H812    1.081   .     S
C786   C758    1.391   1_655 S
C788   C603    1.331   1_565 S
C788   H630    1.087   1_565 S
C789   O823    1.298   .     A
C789   C794    1.441   .     S
C789   O821    1.300   .     A
C790   C793    1.441   .     S
C790   O824    1.298   .     A
C790   O822    1.300   .     A
C791   C793    1.405   .     A
C791   Br825   1.935   .     S
C791   C801    1.407   .     A
C792   C794    1.405   .     A
C792   Br826   1.935   .     S
C792   C802    1.407   .     A
C793   C795    1.393   .     A
C794   C796    1.393   .     A
C795   C797    1.389   .     A
C795   H807    1.086   .     S
C796   H808    1.086   .     S
C796   C798    1.389   .     A
C797   C799    1.411   .     A
C797   C803    1.398   .     A
C798   C800    1.411   .     A
C798   C804    1.398   .     A
C799   C801    1.419   .     A
C799   C754    1.406   1_655 S
C800   C802    1.419   .     A
C803   H809    1.084   .     S
C803   C739    1.391   1_655 S
C804   H810    1.084   .     S
Cu805  Cu806   2.713   .     S
Cu805  O820    1.946   .     S
Cu805  O817    1.948   .     S
Cu805  N816    2.038   .     S
Cu805  O824    1.949   .     S
Cu805  O821    1.956   .     S
Cu806  N815    2.038   .     S
Cu806  O819    1.946   .     S
Cu806  O823    1.949   .     S
Cu806  O818    1.948   .     S
Cu806  O822    1.956   .     S
H813   C603    1.087   1_565 S
N816   N263    1.293   1_556 S
N816   Br276   1.881   1_556 S
Br827  N263    1.881   1_556 S
