data_str_m2_o1_o17_pcu_sym.29
_audit_creation_date              2020-01-03
_audit_creation_method            'Materials Studio'
_symmetry_space_group_name_H-M    'P1'
_symmetry_Int_Tables_number       1
_symmetry_cell_setting            triclinic
loop_
_symmetry_equiv_pos_as_xyz
  x,y,z
_cell_length_a                    32.4035
_cell_length_b                    28.5348
_cell_length_c                    30.2241
_cell_angle_alpha                 89.9941
_cell_angle_beta                  89.9088
_cell_angle_gamma                 89.8328
loop_
_atom_site_label
_atom_site_type_symbol
_atom_site_fract_x
_atom_site_fract_y
_atom_site_fract_z
_atom_site_U_iso_or_equiv
_atom_site_adp_type
_atom_site_occupancy
C1     C     0.08736   0.16673   0.24972   0.00000  Uiso   1.00
C2     C     0.04276   0.16685   0.24944   0.00000  Uiso   1.00
C3     C     0.14057   0.02490   0.22307   0.00000  Uiso   1.00
C4     C     0.19276   0.30843   0.27693   0.00000  Uiso   1.00
C5     C     0.19274   0.02472   0.27696   0.00000  Uiso   1.00
C6     C     0.14060   0.30861   0.22304   0.00000  Uiso   1.00
C7     C     0.16667   0.16671   0.16454   0.00000  Uiso   1.00
C8     C     0.16667   0.16662   0.33546   0.00000  Uiso   1.00
C9     C     0.19766   0.19187   0.40650   0.00000  Uiso   1.00
C10    C     0.13567   0.14146   0.09350   0.00000  Uiso   1.00
C11    C     0.16707   0.16641   0.38372   0.00000  Uiso   1.00
C12    C     0.24597   0.16661   0.25028   0.00000  Uiso   1.00
C13    C     0.16626   0.16692   0.11627   0.00000  Uiso   1.00
C14    C     0.13617   0.14163   0.40670   0.00000  Uiso   1.00
C15    C     0.19716   0.19170   0.09330   0.00000  Uiso   1.00
C16    C     0.13563   0.14239   0.45322   0.00000  Uiso   1.00
C17    C     0.19770   0.19095   0.04678   0.00000  Uiso   1.00
C18    C     0.16670   0.16682   0.47655   0.00000  Uiso   1.00
C19    C     0.16663   0.16652   0.02345   0.00000  Uiso   1.00
C20    C     0.19794   0.19133   0.45321   0.00000  Uiso   1.00
C21    C     0.13539   0.14200   0.04679   0.00000  Uiso   1.00
C22    C     0.10442   0.11937   0.47697   0.00000  Uiso   1.00
C23    C     0.10402   0.11966   0.02274   0.00000  Uiso   1.00
C24    C     0.22892   0.21397   0.02303   0.00000  Uiso   1.00
C25    C     0.22951   0.21773   0.38062   0.00000  Uiso   1.00
C26    C     0.10382   0.11560   0.11938   0.00000  Uiso   1.00
C27    C     0.10348   0.11645   0.38185   0.00000  Uiso   1.00
C28    C     0.06621   0.13917   0.37169   0.00000  Uiso   1.00
C29    C     0.03504   0.11506   0.34937   0.00000  Uiso   1.00
C30    C     0.04118   0.06850   0.33645   0.00000  Uiso   1.00
C31    C     0.07834   0.04579   0.34629   0.00000  Uiso   1.00
C32    C     0.10931   0.06951   0.36930   0.00000  Uiso   1.00
C33    C     0.22986   0.21688   0.11815   0.00000  Uiso   1.00
C34    C     0.22931   0.21367   0.47726   0.00000  Uiso   1.00
C35    C     0.22403   0.26382   0.13070   0.00000  Uiso   1.00
C36    C     0.25499   0.28755   0.15371   0.00000  Uiso   1.00
C37    C     0.29215   0.26483   0.16355   0.00000  Uiso   1.00
C38    C     0.29829   0.21828   0.15063   0.00000  Uiso   1.00
C39    C     0.26712   0.19417   0.12831   0.00000  Uiso   1.00
C40    C     0.02145   0.12613   0.23758   0.00000  Uiso   1.00
C41    C     0.31188   0.20720   0.26242   0.00000  Uiso   1.00
C42    C     0.31211   0.12590   0.23828   0.00000  Uiso   1.00
C43    C     0.02122   0.20743   0.26172   0.00000  Uiso   1.00
C44    C     0.29057   0.16648   0.25056   0.00000  Uiso   1.00
Cu45   Cu    0.16667   0.21355   0.25000   0.00000  Uiso   1.00
Cu46   Cu    0.16667   0.11978   0.25000   0.00000  Uiso   1.00
H47    H     0.07967   0.10097   0.46046   0.00000  Uiso   1.00
H48    H     0.21368   0.28964   0.29846   0.00000  Uiso   1.00
H49    H     0.21360   0.04337   0.29856   0.00000  Uiso   1.00
H50    H     0.11974   0.28996   0.20144   0.00000  Uiso   1.00
H51    H     0.24458   0.20089   0.35271   0.00000  Uiso   1.00
H52    H     0.08876   0.13244   0.14729   0.00000  Uiso   1.00
H53    H     0.06126   0.17530   0.38135   0.00000  Uiso   1.00
H54    H     0.00623   0.13257   0.34181   0.00000  Uiso   1.00
H55    H     0.01716   0.05006   0.31879   0.00000  Uiso   1.00
H56    H     0.08308   0.00976   0.33624   0.00000  Uiso   1.00
H57    H     0.13789   0.05155   0.37706   0.00000  Uiso   1.00
H58    H     0.25366   0.23236   0.03954   0.00000  Uiso   1.00
H59    H     0.19545   0.28178   0.12293   0.00000  Uiso   1.00
H60    H     0.25025   0.32358   0.16376   0.00000  Uiso   1.00
H61    H     0.31617   0.28327   0.18121   0.00000  Uiso   1.00
H62    H     0.32711   0.20077   0.15819   0.00000  Uiso   1.00
H63    H     0.27207   0.15804   0.11865   0.00000  Uiso   1.00
H64    H     0.07839   0.10243   0.03872   0.00000  Uiso   1.00
H65    H     0.25494   0.23090   0.46128   0.00000  Uiso   1.00
H66    H     0.03772   0.09455   0.22781   0.00000  Uiso   1.00
H67    H     0.29562   0.23878   0.27219   0.00000  Uiso   1.00
H68    H     0.29604   0.09424   0.22876   0.00000  Uiso   1.00
H69    H     0.03730   0.23910   0.27123   0.00000  Uiso   1.00
H70    H     0.11965   0.04370   0.20154   0.00000  Uiso   1.00
N71    N     0.16667   0.28402   0.25000   0.00000  Uiso   1.00
N72    N     0.16667   0.04931   0.25000   0.00000  Uiso   1.00
O73    O     0.10655   0.20625   0.24999   0.00000  Uiso   1.00
O74    O     0.09603   0.07463   0.11138   0.00000  Uiso   1.00
O75    O     0.22679   0.12709   0.25000   0.00000  Uiso   1.00
O76    O     0.22679   0.20625   0.25000   0.00000  Uiso   1.00
O77    O     0.10655   0.12709   0.24999   0.00000  Uiso   1.00
O78    O     0.16666   0.20627   0.18513   0.00000  Uiso   1.00
O79    O     0.16668   0.12707   0.31487   0.00000  Uiso   1.00
O80    O     0.16668   0.20627   0.31487   0.00000  Uiso   1.00
O81    O     0.16666   0.12707   0.18513   0.00000  Uiso   1.00
O82    O     0.23730   0.25870   0.38862   0.00000  Uiso   1.00
C83    C     0.42070   0.16673   0.24972   0.00000  Uiso   1.00
C84    C     0.37609   0.16685   0.24944   0.00000  Uiso   1.00
C85    C     0.47391   0.02490   0.22307   0.00000  Uiso   1.00
C86    C     0.52609   0.30843   0.27693   0.00000  Uiso   1.00
C87    C     0.52607   0.02472   0.27696   0.00000  Uiso   1.00
C88    C     0.47393   0.30861   0.22304   0.00000  Uiso   1.00
C89    C     0.50000   0.16671   0.16454   0.00000  Uiso   1.00
C90    C     0.50000   0.16662   0.33546   0.00000  Uiso   1.00
C91    C     0.53100   0.19187   0.40650   0.00000  Uiso   1.00
C92    C     0.46900   0.14146   0.09350   0.00000  Uiso   1.00
C93    C     0.50041   0.16641   0.38372   0.00000  Uiso   1.00
C94    C     0.57930   0.16661   0.25028   0.00000  Uiso   1.00
C95    C     0.49959   0.16692   0.11627   0.00000  Uiso   1.00
C96    C     0.46950   0.14163   0.40670   0.00000  Uiso   1.00
C97    C     0.53050   0.19170   0.09330   0.00000  Uiso   1.00
C98    C     0.46897   0.14239   0.45322   0.00000  Uiso   1.00
C99    C     0.53103   0.19095   0.04678   0.00000  Uiso   1.00
C100   C     0.50004   0.16682   0.47655   0.00000  Uiso   1.00
C101   C     0.49996   0.16652   0.02345   0.00000  Uiso   1.00
C102   C     0.53127   0.19133   0.45321   0.00000  Uiso   1.00
C103   C     0.46873   0.14200   0.04679   0.00000  Uiso   1.00
C104   C     0.43775   0.11937   0.47697   0.00000  Uiso   1.00
C105   C     0.43735   0.11966   0.02274   0.00000  Uiso   1.00
C106   C     0.56225   0.21397   0.02303   0.00000  Uiso   1.00
C107   C     0.56284   0.21773   0.38062   0.00000  Uiso   1.00
C108   C     0.43716   0.11560   0.11938   0.00000  Uiso   1.00
C109   C     0.43681   0.11645   0.38185   0.00000  Uiso   1.00
C110   C     0.39954   0.13917   0.37169   0.00000  Uiso   1.00
C111   C     0.36837   0.11506   0.34937   0.00000  Uiso   1.00
C112   C     0.37451   0.06850   0.33645   0.00000  Uiso   1.00
C113   C     0.41167   0.04579   0.34629   0.00000  Uiso   1.00
C114   C     0.44264   0.06951   0.36930   0.00000  Uiso   1.00
C115   C     0.56319   0.21688   0.11815   0.00000  Uiso   1.00
C116   C     0.56265   0.21367   0.47726   0.00000  Uiso   1.00
C117   C     0.55736   0.26382   0.13070   0.00000  Uiso   1.00
C118   C     0.58833   0.28755   0.15371   0.00000  Uiso   1.00
C119   C     0.62548   0.26483   0.16355   0.00000  Uiso   1.00
C120   C     0.63162   0.21828   0.15063   0.00000  Uiso   1.00
C121   C     0.60046   0.19417   0.12831   0.00000  Uiso   1.00
C122   C     0.35478   0.12613   0.23758   0.00000  Uiso   1.00
C123   C     0.64522   0.20720   0.26242   0.00000  Uiso   1.00
C124   C     0.64544   0.12590   0.23828   0.00000  Uiso   1.00
C125   C     0.35456   0.20743   0.26172   0.00000  Uiso   1.00
C126   C     0.62390   0.16648   0.25056   0.00000  Uiso   1.00
Cu127  Cu    0.50000   0.21355   0.25000   0.00000  Uiso   1.00
Cu128  Cu    0.50000   0.11978   0.25000   0.00000  Uiso   1.00
H129   H     0.41300   0.10097   0.46046   0.00000  Uiso   1.00
H130   H     0.54701   0.28964   0.29846   0.00000  Uiso   1.00
H131   H     0.54693   0.04337   0.29856   0.00000  Uiso   1.00
H132   H     0.45307   0.28996   0.20144   0.00000  Uiso   1.00
H133   H     0.57791   0.20089   0.35271   0.00000  Uiso   1.00
H134   H     0.42209   0.13244   0.14729   0.00000  Uiso   1.00
H135   H     0.39460   0.17530   0.38135   0.00000  Uiso   1.00
H136   H     0.33956   0.13257   0.34181   0.00000  Uiso   1.00
H137   H     0.35049   0.05006   0.31879   0.00000  Uiso   1.00
H138   H     0.41641   0.00976   0.33624   0.00000  Uiso   1.00
H139   H     0.47122   0.05155   0.37706   0.00000  Uiso   1.00
H140   H     0.58700   0.23236   0.03954   0.00000  Uiso   1.00
H141   H     0.52878   0.28178   0.12293   0.00000  Uiso   1.00
H142   H     0.58358   0.32358   0.16376   0.00000  Uiso   1.00
H143   H     0.64950   0.28327   0.18121   0.00000  Uiso   1.00
H144   H     0.66044   0.20077   0.15819   0.00000  Uiso   1.00
H145   H     0.60540   0.15804   0.11865   0.00000  Uiso   1.00
H146   H     0.41172   0.10243   0.03872   0.00000  Uiso   1.00
H147   H     0.58828   0.23090   0.46128   0.00000  Uiso   1.00
H148   H     0.37105   0.09455   0.22781   0.00000  Uiso   1.00
H149   H     0.62895   0.23878   0.27219   0.00000  Uiso   1.00
H150   H     0.62937   0.09424   0.22876   0.00000  Uiso   1.00
H151   H     0.37063   0.23910   0.27123   0.00000  Uiso   1.00
H152   H     0.45299   0.04370   0.20154   0.00000  Uiso   1.00
N153   N     0.50000   0.28402   0.25000   0.00000  Uiso   1.00
N154   N     0.50000   0.04931   0.25000   0.00000  Uiso   1.00
O155   O     0.43988   0.20625   0.24999   0.00000  Uiso   1.00
O156   O     0.42936   0.07463   0.11138   0.00000  Uiso   1.00
O157   O     0.56012   0.12709   0.25000   0.00000  Uiso   1.00
O158   O     0.56012   0.20625   0.25000   0.00000  Uiso   1.00
O159   O     0.43988   0.12709   0.24999   0.00000  Uiso   1.00
O160   O     0.49999   0.20627   0.18513   0.00000  Uiso   1.00
O161   O     0.50001   0.12707   0.31487   0.00000  Uiso   1.00
O162   O     0.50001   0.20627   0.31487   0.00000  Uiso   1.00
O163   O     0.49999   0.12707   0.18513   0.00000  Uiso   1.00
O164   O     0.57064   0.25870   0.38862   0.00000  Uiso   1.00
C165   C     0.75403   0.16673   0.24972   0.00000  Uiso   1.00
C166   C     0.70943   0.16685   0.24944   0.00000  Uiso   1.00
C167   C     0.80724   0.02490   0.22307   0.00000  Uiso   1.00
C168   C     0.85943   0.30843   0.27693   0.00000  Uiso   1.00
C169   C     0.85940   0.02472   0.27696   0.00000  Uiso   1.00
C170   C     0.80726   0.30861   0.22304   0.00000  Uiso   1.00
C171   C     0.83333   0.16671   0.16454   0.00000  Uiso   1.00
C172   C     0.83333   0.16662   0.33546   0.00000  Uiso   1.00
C173   C     0.86433   0.19187   0.40650   0.00000  Uiso   1.00
C174   C     0.80234   0.14146   0.09350   0.00000  Uiso   1.00
C175   C     0.83374   0.16641   0.38372   0.00000  Uiso   1.00
C176   C     0.91264   0.16661   0.25028   0.00000  Uiso   1.00
C177   C     0.83293   0.16692   0.11627   0.00000  Uiso   1.00
C178   C     0.80284   0.14163   0.40670   0.00000  Uiso   1.00
C179   C     0.86383   0.19170   0.09330   0.00000  Uiso   1.00
C180   C     0.80230   0.14239   0.45322   0.00000  Uiso   1.00
C181   C     0.86437   0.19095   0.04678   0.00000  Uiso   1.00
C182   C     0.83337   0.16682   0.47655   0.00000  Uiso   1.00
C183   C     0.83330   0.16652   0.02345   0.00000  Uiso   1.00
C184   C     0.86461   0.19133   0.45321   0.00000  Uiso   1.00
C185   C     0.80206   0.14200   0.04679   0.00000  Uiso   1.00
C186   C     0.77108   0.11937   0.47697   0.00000  Uiso   1.00
C187   C     0.77069   0.11966   0.02274   0.00000  Uiso   1.00
C188   C     0.89558   0.21397   0.02303   0.00000  Uiso   1.00
C189   C     0.89618   0.21773   0.38062   0.00000  Uiso   1.00
C190   C     0.77049   0.11560   0.11938   0.00000  Uiso   1.00
C191   C     0.77014   0.11645   0.38185   0.00000  Uiso   1.00
C192   C     0.73287   0.13917   0.37169   0.00000  Uiso   1.00
C193   C     0.70171   0.11506   0.34937   0.00000  Uiso   1.00
C194   C     0.70785   0.06850   0.33645   0.00000  Uiso   1.00
C195   C     0.74500   0.04579   0.34629   0.00000  Uiso   1.00
C196   C     0.77597   0.06951   0.36930   0.00000  Uiso   1.00
C197   C     0.89652   0.21688   0.11815   0.00000  Uiso   1.00
C198   C     0.89598   0.21367   0.47726   0.00000  Uiso   1.00
C199   C     0.89069   0.26382   0.13070   0.00000  Uiso   1.00
C200   C     0.92166   0.28755   0.15371   0.00000  Uiso   1.00
C201   C     0.95882   0.26483   0.16355   0.00000  Uiso   1.00
C202   C     0.96496   0.21828   0.15063   0.00000  Uiso   1.00
C203   C     0.93379   0.19417   0.12831   0.00000  Uiso   1.00
C204   C     0.68812   0.12613   0.23758   0.00000  Uiso   1.00
C205   C     0.97855   0.20720   0.26242   0.00000  Uiso   1.00
C206   C     0.97878   0.12590   0.23828   0.00000  Uiso   1.00
C207   C     0.68789   0.20743   0.26172   0.00000  Uiso   1.00
C208   C     0.95724   0.16648   0.25056   0.00000  Uiso   1.00
Cu209  Cu    0.83333   0.21355   0.25000   0.00000  Uiso   1.00
Cu210  Cu    0.83333   0.11978   0.25000   0.00000  Uiso   1.00
H211   H     0.74634   0.10097   0.46046   0.00000  Uiso   1.00
H212   H     0.88035   0.28964   0.29846   0.00000  Uiso   1.00
H213   H     0.88026   0.04337   0.29856   0.00000  Uiso   1.00
H214   H     0.78640   0.28996   0.20144   0.00000  Uiso   1.00
H215   H     0.91124   0.20089   0.35271   0.00000  Uiso   1.00
H216   H     0.75542   0.13244   0.14729   0.00000  Uiso   1.00
H217   H     0.72793   0.17530   0.38135   0.00000  Uiso   1.00
H218   H     0.67289   0.13257   0.34181   0.00000  Uiso   1.00
H219   H     0.68383   0.05006   0.31879   0.00000  Uiso   1.00
H220   H     0.74975   0.00976   0.33624   0.00000  Uiso   1.00
H221   H     0.80455   0.05155   0.37706   0.00000  Uiso   1.00
H222   H     0.92033   0.23236   0.03954   0.00000  Uiso   1.00
H223   H     0.86211   0.28178   0.12293   0.00000  Uiso   1.00
H224   H     0.91692   0.32358   0.16376   0.00000  Uiso   1.00
H225   H     0.98284   0.28327   0.18121   0.00000  Uiso   1.00
H226   H     0.99377   0.20077   0.15819   0.00000  Uiso   1.00
H227   H     0.93874   0.15804   0.11865   0.00000  Uiso   1.00
H228   H     0.74506   0.10243   0.03872   0.00000  Uiso   1.00
H229   H     0.92161   0.23090   0.46128   0.00000  Uiso   1.00
H230   H     0.70438   0.09455   0.22781   0.00000  Uiso   1.00
H231   H     0.96228   0.23878   0.27219   0.00000  Uiso   1.00
H232   H     0.96270   0.09424   0.22876   0.00000  Uiso   1.00
H233   H     0.70396   0.23910   0.27123   0.00000  Uiso   1.00
H234   H     0.78632   0.04370   0.20154   0.00000  Uiso   1.00
N235   N     0.83333   0.28402   0.25000   0.00000  Uiso   1.00
N236   N     0.83333   0.04931   0.25000   0.00000  Uiso   1.00
O237   O     0.77321   0.20625   0.24999   0.00000  Uiso   1.00
O238   O     0.76270   0.07463   0.11138   0.00000  Uiso   1.00
O239   O     0.89345   0.12709   0.25000   0.00000  Uiso   1.00
O240   O     0.89345   0.20625   0.25000   0.00000  Uiso   1.00
O241   O     0.77321   0.12709   0.24999   0.00000  Uiso   1.00
O242   O     0.83332   0.20627   0.18513   0.00000  Uiso   1.00
O243   O     0.83334   0.12707   0.31487   0.00000  Uiso   1.00
O244   O     0.83334   0.20627   0.31487   0.00000  Uiso   1.00
O245   O     0.83332   0.12707   0.18513   0.00000  Uiso   1.00
O246   O     0.90397   0.25870   0.38862   0.00000  Uiso   1.00
C247   C     0.08736   0.50006   0.24972   0.00000  Uiso   1.00
C248   C     0.04276   0.50018   0.24944   0.00000  Uiso   1.00
C249   C     0.14057   0.35824   0.22307   0.00000  Uiso   1.00
C250   C     0.19276   0.64176   0.27693   0.00000  Uiso   1.00
C251   C     0.19274   0.35806   0.27696   0.00000  Uiso   1.00
C252   C     0.14060   0.64194   0.22304   0.00000  Uiso   1.00
C253   C     0.16667   0.50005   0.16454   0.00000  Uiso   1.00
C254   C     0.16667   0.49995   0.33546   0.00000  Uiso   1.00
C255   C     0.19766   0.52521   0.40650   0.00000  Uiso   1.00
C256   C     0.13567   0.47479   0.09350   0.00000  Uiso   1.00
C257   C     0.16707   0.49974   0.38372   0.00000  Uiso   1.00
C258   C     0.24597   0.49994   0.25028   0.00000  Uiso   1.00
C259   C     0.16626   0.50026   0.11627   0.00000  Uiso   1.00
C260   C     0.13617   0.47497   0.40670   0.00000  Uiso   1.00
C261   C     0.19716   0.52503   0.09330   0.00000  Uiso   1.00
C262   C     0.13563   0.47572   0.45322   0.00000  Uiso   1.00
C263   C     0.19770   0.52428   0.04678   0.00000  Uiso   1.00
C264   C     0.16670   0.50015   0.47655   0.00000  Uiso   1.00
C265   C     0.16663   0.49985   0.02345   0.00000  Uiso   1.00
C266   C     0.19794   0.52467   0.45321   0.00000  Uiso   1.00
C267   C     0.13539   0.47533   0.04679   0.00000  Uiso   1.00
C268   C     0.10442   0.45270   0.47697   0.00000  Uiso   1.00
C269   C     0.10402   0.45300   0.02274   0.00000  Uiso   1.00
C270   C     0.22892   0.54730   0.02303   0.00000  Uiso   1.00
C271   C     0.22951   0.55107   0.38062   0.00000  Uiso   1.00
C272   C     0.10382   0.44893   0.11938   0.00000  Uiso   1.00
C273   C     0.10348   0.44978   0.38185   0.00000  Uiso   1.00
C274   C     0.06621   0.47250   0.37169   0.00000  Uiso   1.00
C275   C     0.03504   0.44839   0.34937   0.00000  Uiso   1.00
C276   C     0.04118   0.40183   0.33645   0.00000  Uiso   1.00
C277   C     0.07834   0.37912   0.34629   0.00000  Uiso   1.00
C278   C     0.10931   0.40284   0.36930   0.00000  Uiso   1.00
C279   C     0.22986   0.55022   0.11815   0.00000  Uiso   1.00
C280   C     0.22931   0.54700   0.47726   0.00000  Uiso   1.00
C281   C     0.22403   0.59716   0.13070   0.00000  Uiso   1.00
C282   C     0.25499   0.62088   0.15371   0.00000  Uiso   1.00
C283   C     0.29215   0.59817   0.16355   0.00000  Uiso   1.00
C284   C     0.29829   0.55161   0.15063   0.00000  Uiso   1.00
C285   C     0.26712   0.52750   0.12831   0.00000  Uiso   1.00
C286   C     0.02145   0.45947   0.23758   0.00000  Uiso   1.00
C287   C     0.31188   0.54053   0.26242   0.00000  Uiso   1.00
C288   C     0.31211   0.45923   0.23828   0.00000  Uiso   1.00
C289   C     0.02122   0.54077   0.26172   0.00000  Uiso   1.00
C290   C     0.29057   0.49982   0.25056   0.00000  Uiso   1.00
Cu291  Cu    0.16667   0.54689   0.25000   0.00000  Uiso   1.00
Cu292  Cu    0.16667   0.45311   0.25000   0.00000  Uiso   1.00
H293   H     0.07967   0.43430   0.46046   0.00000  Uiso   1.00
H294   H     0.21368   0.62297   0.29846   0.00000  Uiso   1.00
H295   H     0.21360   0.37671   0.29856   0.00000  Uiso   1.00
H296   H     0.11974   0.62329   0.20144   0.00000  Uiso   1.00
H297   H     0.24458   0.53422   0.35271   0.00000  Uiso   1.00
H298   H     0.08876   0.46578   0.14729   0.00000  Uiso   1.00
H299   H     0.06126   0.50863   0.38135   0.00000  Uiso   1.00
H300   H     0.00623   0.46590   0.34181   0.00000  Uiso   1.00
H301   H     0.01716   0.38340   0.31879   0.00000  Uiso   1.00
H302   H     0.08308   0.34309   0.33624   0.00000  Uiso   1.00
H303   H     0.13789   0.38488   0.37706   0.00000  Uiso   1.00
H304   H     0.25366   0.56570   0.03954   0.00000  Uiso   1.00
H305   H     0.19545   0.61512   0.12293   0.00000  Uiso   1.00
H306   H     0.25025   0.65691   0.16376   0.00000  Uiso   1.00
H307   H     0.31617   0.61661   0.18121   0.00000  Uiso   1.00
H308   H     0.32711   0.53410   0.15819   0.00000  Uiso   1.00
H309   H     0.27207   0.49137   0.11865   0.00000  Uiso   1.00
H310   H     0.07839   0.43576   0.03872   0.00000  Uiso   1.00
H311   H     0.25494   0.56424   0.46128   0.00000  Uiso   1.00
H312   H     0.03772   0.42789   0.22781   0.00000  Uiso   1.00
H313   H     0.29562   0.57211   0.27219   0.00000  Uiso   1.00
H314   H     0.29604   0.42757   0.22876   0.00000  Uiso   1.00
H315   H     0.03730   0.57243   0.27123   0.00000  Uiso   1.00
H316   H     0.11965   0.37703   0.20154   0.00000  Uiso   1.00
N317   N     0.16667   0.61736   0.25000   0.00000  Uiso   1.00
N318   N     0.16667   0.38264   0.25000   0.00000  Uiso   1.00
O319   O     0.10655   0.53958   0.24999   0.00000  Uiso   1.00
O320   O     0.09603   0.40796   0.11138   0.00000  Uiso   1.00
O321   O     0.22679   0.46042   0.25000   0.00000  Uiso   1.00
O322   O     0.22679   0.53958   0.25000   0.00000  Uiso   1.00
O323   O     0.10655   0.46042   0.24999   0.00000  Uiso   1.00
O324   O     0.16666   0.53960   0.18513   0.00000  Uiso   1.00
O325   O     0.16668   0.46040   0.31487   0.00000  Uiso   1.00
O326   O     0.16668   0.53960   0.31487   0.00000  Uiso   1.00
O327   O     0.16666   0.46040   0.18513   0.00000  Uiso   1.00
O328   O     0.23730   0.59203   0.38862   0.00000  Uiso   1.00
C329   C     0.42070   0.50006   0.24972   0.00000  Uiso   1.00
C330   C     0.37609   0.50018   0.24944   0.00000  Uiso   1.00
C331   C     0.47391   0.35824   0.22307   0.00000  Uiso   1.00
C332   C     0.52609   0.64176   0.27693   0.00000  Uiso   1.00
C333   C     0.52607   0.35806   0.27696   0.00000  Uiso   1.00
C334   C     0.47393   0.64194   0.22304   0.00000  Uiso   1.00
C335   C     0.50000   0.50005   0.16454   0.00000  Uiso   1.00
C336   C     0.50000   0.49995   0.33546   0.00000  Uiso   1.00
C337   C     0.53100   0.52521   0.40650   0.00000  Uiso   1.00
C338   C     0.46900   0.47479   0.09350   0.00000  Uiso   1.00
C339   C     0.50041   0.49974   0.38372   0.00000  Uiso   1.00
C340   C     0.57930   0.49994   0.25028   0.00000  Uiso   1.00
C341   C     0.49959   0.50026   0.11627   0.00000  Uiso   1.00
C342   C     0.46950   0.47497   0.40670   0.00000  Uiso   1.00
C343   C     0.53050   0.52503   0.09330   0.00000  Uiso   1.00
C344   C     0.46897   0.47572   0.45322   0.00000  Uiso   1.00
C345   C     0.53103   0.52428   0.04678   0.00000  Uiso   1.00
C346   C     0.50004   0.50015   0.47655   0.00000  Uiso   1.00
C347   C     0.49996   0.49985   0.02345   0.00000  Uiso   1.00
C348   C     0.53127   0.52467   0.45321   0.00000  Uiso   1.00
C349   C     0.46873   0.47533   0.04679   0.00000  Uiso   1.00
C350   C     0.43775   0.45270   0.47697   0.00000  Uiso   1.00
C351   C     0.43735   0.45300   0.02274   0.00000  Uiso   1.00
C352   C     0.56225   0.54730   0.02303   0.00000  Uiso   1.00
C353   C     0.56284   0.55107   0.38062   0.00000  Uiso   1.00
C354   C     0.43716   0.44893   0.11938   0.00000  Uiso   1.00
C355   C     0.43681   0.44978   0.38185   0.00000  Uiso   1.00
C356   C     0.39954   0.47250   0.37169   0.00000  Uiso   1.00
C357   C     0.36837   0.44839   0.34937   0.00000  Uiso   1.00
C358   C     0.37451   0.40183   0.33645   0.00000  Uiso   1.00
C359   C     0.41167   0.37912   0.34629   0.00000  Uiso   1.00
C360   C     0.44264   0.40284   0.36930   0.00000  Uiso   1.00
C361   C     0.56319   0.55022   0.11815   0.00000  Uiso   1.00
C362   C     0.56265   0.54700   0.47726   0.00000  Uiso   1.00
C363   C     0.55736   0.59716   0.13070   0.00000  Uiso   1.00
C364   C     0.58833   0.62088   0.15371   0.00000  Uiso   1.00
C365   C     0.62548   0.59817   0.16355   0.00000  Uiso   1.00
C366   C     0.63162   0.55161   0.15063   0.00000  Uiso   1.00
C367   C     0.60046   0.52750   0.12831   0.00000  Uiso   1.00
C368   C     0.35478   0.45947   0.23758   0.00000  Uiso   1.00
C369   C     0.64522   0.54053   0.26242   0.00000  Uiso   1.00
C370   C     0.64544   0.45923   0.23828   0.00000  Uiso   1.00
C371   C     0.35456   0.54077   0.26172   0.00000  Uiso   1.00
C372   C     0.62390   0.49982   0.25056   0.00000  Uiso   1.00
Cu373  Cu    0.50000   0.54689   0.25000   0.00000  Uiso   1.00
Cu374  Cu    0.50000   0.45311   0.25000   0.00000  Uiso   1.00
H375   H     0.41300   0.43430   0.46046   0.00000  Uiso   1.00
H376   H     0.54701   0.62297   0.29846   0.00000  Uiso   1.00
H377   H     0.54693   0.37671   0.29856   0.00000  Uiso   1.00
H378   H     0.45307   0.62329   0.20144   0.00000  Uiso   1.00
H379   H     0.57791   0.53422   0.35271   0.00000  Uiso   1.00
H380   H     0.42209   0.46578   0.14729   0.00000  Uiso   1.00
H381   H     0.39460   0.50863   0.38135   0.00000  Uiso   1.00
H382   H     0.33956   0.46590   0.34181   0.00000  Uiso   1.00
H383   H     0.35049   0.38340   0.31879   0.00000  Uiso   1.00
H384   H     0.41641   0.34309   0.33624   0.00000  Uiso   1.00
H385   H     0.47122   0.38488   0.37706   0.00000  Uiso   1.00
H386   H     0.58700   0.56570   0.03954   0.00000  Uiso   1.00
H387   H     0.52878   0.61512   0.12293   0.00000  Uiso   1.00
H388   H     0.58358   0.65691   0.16376   0.00000  Uiso   1.00
H389   H     0.64950   0.61661   0.18121   0.00000  Uiso   1.00
H390   H     0.66044   0.53410   0.15819   0.00000  Uiso   1.00
H391   H     0.60540   0.49137   0.11865   0.00000  Uiso   1.00
H392   H     0.41172   0.43576   0.03872   0.00000  Uiso   1.00
H393   H     0.58828   0.56424   0.46128   0.00000  Uiso   1.00
H394   H     0.37105   0.42789   0.22781   0.00000  Uiso   1.00
H395   H     0.62895   0.57211   0.27219   0.00000  Uiso   1.00
H396   H     0.62937   0.42757   0.22876   0.00000  Uiso   1.00
H397   H     0.37063   0.57243   0.27123   0.00000  Uiso   1.00
H398   H     0.45299   0.37703   0.20154   0.00000  Uiso   1.00
N399   N     0.50000   0.61736   0.25000   0.00000  Uiso   1.00
N400   N     0.50000   0.38264   0.25000   0.00000  Uiso   1.00
O401   O     0.43988   0.53958   0.24999   0.00000  Uiso   1.00
O402   O     0.42936   0.40796   0.11138   0.00000  Uiso   1.00
O403   O     0.56012   0.46042   0.25000   0.00000  Uiso   1.00
O404   O     0.56012   0.53958   0.25000   0.00000  Uiso   1.00
O405   O     0.43988   0.46042   0.24999   0.00000  Uiso   1.00
O406   O     0.49999   0.53960   0.18513   0.00000  Uiso   1.00
O407   O     0.50001   0.46040   0.31487   0.00000  Uiso   1.00
O408   O     0.50001   0.53960   0.31487   0.00000  Uiso   1.00
O409   O     0.49999   0.46040   0.18513   0.00000  Uiso   1.00
O410   O     0.57064   0.59203   0.38862   0.00000  Uiso   1.00
C411   C     0.75403   0.50006   0.24972   0.00000  Uiso   1.00
C412   C     0.70943   0.50018   0.24944   0.00000  Uiso   1.00
C413   C     0.80724   0.35824   0.22307   0.00000  Uiso   1.00
C414   C     0.85943   0.64176   0.27693   0.00000  Uiso   1.00
C415   C     0.85940   0.35806   0.27696   0.00000  Uiso   1.00
C416   C     0.80726   0.64194   0.22304   0.00000  Uiso   1.00
C417   C     0.83333   0.50005   0.16454   0.00000  Uiso   1.00
C418   C     0.83333   0.49995   0.33546   0.00000  Uiso   1.00
C419   C     0.86433   0.52521   0.40650   0.00000  Uiso   1.00
C420   C     0.80234   0.47479   0.09350   0.00000  Uiso   1.00
C421   C     0.83374   0.49974   0.38372   0.00000  Uiso   1.00
C422   C     0.91264   0.49994   0.25028   0.00000  Uiso   1.00
C423   C     0.83293   0.50026   0.11627   0.00000  Uiso   1.00
C424   C     0.80284   0.47497   0.40670   0.00000  Uiso   1.00
C425   C     0.86383   0.52503   0.09330   0.00000  Uiso   1.00
C426   C     0.80230   0.47572   0.45322   0.00000  Uiso   1.00
C427   C     0.86437   0.52428   0.04678   0.00000  Uiso   1.00
C428   C     0.83337   0.50015   0.47655   0.00000  Uiso   1.00
C429   C     0.83330   0.49985   0.02345   0.00000  Uiso   1.00
C430   C     0.86461   0.52467   0.45321   0.00000  Uiso   1.00
C431   C     0.80206   0.47533   0.04679   0.00000  Uiso   1.00
C432   C     0.77108   0.45270   0.47697   0.00000  Uiso   1.00
C433   C     0.77069   0.45300   0.02274   0.00000  Uiso   1.00
C434   C     0.89558   0.54730   0.02303   0.00000  Uiso   1.00
C435   C     0.89618   0.55107   0.38062   0.00000  Uiso   1.00
C436   C     0.77049   0.44893   0.11938   0.00000  Uiso   1.00
C437   C     0.77014   0.44978   0.38185   0.00000  Uiso   1.00
C438   C     0.73287   0.47250   0.37169   0.00000  Uiso   1.00
C439   C     0.70171   0.44839   0.34937   0.00000  Uiso   1.00
C440   C     0.70785   0.40183   0.33645   0.00000  Uiso   1.00
C441   C     0.74500   0.37912   0.34629   0.00000  Uiso   1.00
C442   C     0.77597   0.40284   0.36930   0.00000  Uiso   1.00
C443   C     0.89652   0.55022   0.11815   0.00000  Uiso   1.00
C444   C     0.89598   0.54700   0.47726   0.00000  Uiso   1.00
C445   C     0.89069   0.59716   0.13070   0.00000  Uiso   1.00
C446   C     0.92166   0.62088   0.15371   0.00000  Uiso   1.00
C447   C     0.95882   0.59817   0.16355   0.00000  Uiso   1.00
C448   C     0.96496   0.55161   0.15063   0.00000  Uiso   1.00
C449   C     0.93379   0.52750   0.12831   0.00000  Uiso   1.00
C450   C     0.68812   0.45947   0.23758   0.00000  Uiso   1.00
C451   C     0.97855   0.54053   0.26242   0.00000  Uiso   1.00
C452   C     0.97878   0.45923   0.23828   0.00000  Uiso   1.00
C453   C     0.68789   0.54077   0.26172   0.00000  Uiso   1.00
C454   C     0.95724   0.49982   0.25056   0.00000  Uiso   1.00
Cu455  Cu    0.83333   0.54689   0.25000   0.00000  Uiso   1.00
Cu456  Cu    0.83333   0.45311   0.25000   0.00000  Uiso   1.00
H457   H     0.74634   0.43430   0.46046   0.00000  Uiso   1.00
H458   H     0.88035   0.62297   0.29846   0.00000  Uiso   1.00
H459   H     0.88026   0.37671   0.29856   0.00000  Uiso   1.00
H460   H     0.78640   0.62329   0.20144   0.00000  Uiso   1.00
H461   H     0.91124   0.53422   0.35271   0.00000  Uiso   1.00
H462   H     0.75542   0.46578   0.14729   0.00000  Uiso   1.00
H463   H     0.72793   0.50863   0.38135   0.00000  Uiso   1.00
H464   H     0.67289   0.46590   0.34181   0.00000  Uiso   1.00
H465   H     0.68383   0.38340   0.31879   0.00000  Uiso   1.00
H466   H     0.74975   0.34309   0.33624   0.00000  Uiso   1.00
H467   H     0.80455   0.38488   0.37706   0.00000  Uiso   1.00
H468   H     0.92033   0.56570   0.03954   0.00000  Uiso   1.00
H469   H     0.86211   0.61512   0.12293   0.00000  Uiso   1.00
H470   H     0.91692   0.65691   0.16376   0.00000  Uiso   1.00
H471   H     0.98284   0.61661   0.18121   0.00000  Uiso   1.00
H472   H     0.99377   0.53410   0.15819   0.00000  Uiso   1.00
H473   H     0.93874   0.49137   0.11865   0.00000  Uiso   1.00
H474   H     0.74506   0.43576   0.03872   0.00000  Uiso   1.00
H475   H     0.92161   0.56424   0.46128   0.00000  Uiso   1.00
H476   H     0.70438   0.42789   0.22781   0.00000  Uiso   1.00
H477   H     0.96228   0.57211   0.27219   0.00000  Uiso   1.00
H478   H     0.96270   0.42757   0.22876   0.00000  Uiso   1.00
H479   H     0.70396   0.57243   0.27123   0.00000  Uiso   1.00
H480   H     0.78632   0.37703   0.20154   0.00000  Uiso   1.00
N481   N     0.83333   0.61736   0.25000   0.00000  Uiso   1.00
N482   N     0.83333   0.38264   0.25000   0.00000  Uiso   1.00
O483   O     0.77321   0.53958   0.24999   0.00000  Uiso   1.00
O484   O     0.76270   0.40796   0.11138   0.00000  Uiso   1.00
O485   O     0.89345   0.46042   0.25000   0.00000  Uiso   1.00
O486   O     0.89345   0.53958   0.25000   0.00000  Uiso   1.00
O487   O     0.77321   0.46042   0.24999   0.00000  Uiso   1.00
O488   O     0.83332   0.53960   0.18513   0.00000  Uiso   1.00
O489   O     0.83334   0.46040   0.31487   0.00000  Uiso   1.00
O490   O     0.83334   0.53960   0.31487   0.00000  Uiso   1.00
O491   O     0.83332   0.46040   0.18513   0.00000  Uiso   1.00
O492   O     0.90397   0.59203   0.38862   0.00000  Uiso   1.00
C493   C     0.08736   0.83339   0.24972   0.00000  Uiso   1.00
C494   C     0.04276   0.83352   0.24944   0.00000  Uiso   1.00
C495   C     0.14057   0.69157   0.22307   0.00000  Uiso   1.00
C496   C     0.19276   0.97510   0.27693   0.00000  Uiso   1.00
C497   C     0.19274   0.69139   0.27696   0.00000  Uiso   1.00
C498   C     0.14060   0.97528   0.22304   0.00000  Uiso   1.00
C499   C     0.16667   0.83338   0.16454   0.00000  Uiso   1.00
C500   C     0.16667   0.83329   0.33546   0.00000  Uiso   1.00
C501   C     0.19766   0.85854   0.40650   0.00000  Uiso   1.00
C502   C     0.13567   0.80813   0.09350   0.00000  Uiso   1.00
C503   C     0.16707   0.83307   0.38372   0.00000  Uiso   1.00
C504   C     0.24597   0.83327   0.25028   0.00000  Uiso   1.00
C505   C     0.16626   0.83359   0.11627   0.00000  Uiso   1.00
C506   C     0.13617   0.80830   0.40670   0.00000  Uiso   1.00
C507   C     0.19716   0.85837   0.09330   0.00000  Uiso   1.00
C508   C     0.13563   0.80905   0.45322   0.00000  Uiso   1.00
C509   C     0.19770   0.85761   0.04678   0.00000  Uiso   1.00
C510   C     0.16670   0.83348   0.47655   0.00000  Uiso   1.00
C511   C     0.16663   0.83318   0.02345   0.00000  Uiso   1.00
C512   C     0.19794   0.85800   0.45321   0.00000  Uiso   1.00
C513   C     0.13539   0.80867   0.04679   0.00000  Uiso   1.00
C514   C     0.10442   0.78603   0.47697   0.00000  Uiso   1.00
C515   C     0.10402   0.78633   0.02274   0.00000  Uiso   1.00
C516   C     0.22892   0.88063   0.02303   0.00000  Uiso   1.00
C517   C     0.22951   0.88440   0.38062   0.00000  Uiso   1.00
C518   C     0.10382   0.78226   0.11938   0.00000  Uiso   1.00
C519   C     0.10348   0.78312   0.38185   0.00000  Uiso   1.00
C520   C     0.06621   0.80583   0.37169   0.00000  Uiso   1.00
C521   C     0.03504   0.78173   0.34937   0.00000  Uiso   1.00
C522   C     0.04118   0.73517   0.33645   0.00000  Uiso   1.00
C523   C     0.07834   0.71245   0.34629   0.00000  Uiso   1.00
C524   C     0.10931   0.73618   0.36930   0.00000  Uiso   1.00
C525   C     0.22986   0.88355   0.11815   0.00000  Uiso   1.00
C526   C     0.22931   0.88034   0.47726   0.00000  Uiso   1.00
C527   C     0.22403   0.93049   0.13070   0.00000  Uiso   1.00
C528   C     0.25499   0.95422   0.15371   0.00000  Uiso   1.00
C529   C     0.29215   0.93150   0.16355   0.00000  Uiso   1.00
C530   C     0.29829   0.88494   0.15063   0.00000  Uiso   1.00
C531   C     0.26712   0.86084   0.12831   0.00000  Uiso   1.00
C532   C     0.02145   0.79280   0.23758   0.00000  Uiso   1.00
C533   C     0.31188   0.87387   0.26242   0.00000  Uiso   1.00
C534   C     0.31211   0.79257   0.23828   0.00000  Uiso   1.00
C535   C     0.02122   0.87410   0.26172   0.00000  Uiso   1.00
C536   C     0.29057   0.83315   0.25056   0.00000  Uiso   1.00
Cu537  Cu    0.16667   0.88022   0.25000   0.00000  Uiso   1.00
Cu538  Cu    0.16667   0.78645   0.25000   0.00000  Uiso   1.00
H539   H     0.07967   0.76764   0.46046   0.00000  Uiso   1.00
H540   H     0.21368   0.95630   0.29846   0.00000  Uiso   1.00
H541   H     0.21360   0.71004   0.29856   0.00000  Uiso   1.00
H542   H     0.11974   0.95663   0.20144   0.00000  Uiso   1.00
H543   H     0.24458   0.86756   0.35271   0.00000  Uiso   1.00
H544   H     0.08876   0.79911   0.14729   0.00000  Uiso   1.00
H545   H     0.06126   0.84197   0.38135   0.00000  Uiso   1.00
H546   H     0.00623   0.79924   0.34181   0.00000  Uiso   1.00
H547   H     0.01716   0.71673   0.31879   0.00000  Uiso   1.00
H548   H     0.08308   0.67643   0.33624   0.00000  Uiso   1.00
H549   H     0.13789   0.71822   0.37706   0.00000  Uiso   1.00
H550   H     0.25366   0.89903   0.03954   0.00000  Uiso   1.00
H551   H     0.19545   0.94845   0.12293   0.00000  Uiso   1.00
H552   H     0.25025   0.99024   0.16376   0.00000  Uiso   1.00
H553   H     0.31617   0.94994   0.18121   0.00000  Uiso   1.00
H554   H     0.32711   0.86743   0.15819   0.00000  Uiso   1.00
H555   H     0.27207   0.82470   0.11865   0.00000  Uiso   1.00
H556   H     0.07839   0.76910   0.03872   0.00000  Uiso   1.00
H557   H     0.25494   0.89757   0.46128   0.00000  Uiso   1.00
H558   H     0.03772   0.76122   0.22781   0.00000  Uiso   1.00
H559   H     0.29562   0.90545   0.27219   0.00000  Uiso   1.00
H560   H     0.29604   0.76090   0.22876   0.00000  Uiso   1.00
H561   H     0.03730   0.90576   0.27123   0.00000  Uiso   1.00
H562   H     0.11965   0.71036   0.20154   0.00000  Uiso   1.00
N563   N     0.16667   0.95069   0.25000   0.00000  Uiso   1.00
N564   N     0.16667   0.71598   0.25000   0.00000  Uiso   1.00
O565   O     0.10655   0.87291   0.24999   0.00000  Uiso   1.00
O566   O     0.09603   0.74130   0.11138   0.00000  Uiso   1.00
O567   O     0.22679   0.79375   0.25000   0.00000  Uiso   1.00
O568   O     0.22679   0.87291   0.25000   0.00000  Uiso   1.00
O569   O     0.10655   0.79375   0.24999   0.00000  Uiso   1.00
O570   O     0.16666   0.87293   0.18513   0.00000  Uiso   1.00
O571   O     0.16668   0.79373   0.31487   0.00000  Uiso   1.00
O572   O     0.16668   0.87293   0.31487   0.00000  Uiso   1.00
O573   O     0.16666   0.79373   0.18513   0.00000  Uiso   1.00
O574   O     0.23730   0.92537   0.38862   0.00000  Uiso   1.00
C575   C     0.42070   0.83339   0.24972   0.00000  Uiso   1.00
C576   C     0.37609   0.83352   0.24944   0.00000  Uiso   1.00
C577   C     0.47391   0.69157   0.22307   0.00000  Uiso   1.00
C578   C     0.52609   0.97510   0.27693   0.00000  Uiso   1.00
C579   C     0.52607   0.69139   0.27696   0.00000  Uiso   1.00
C580   C     0.47393   0.97528   0.22304   0.00000  Uiso   1.00
C581   C     0.50000   0.83338   0.16454   0.00000  Uiso   1.00
C582   C     0.50000   0.83329   0.33546   0.00000  Uiso   1.00
C583   C     0.53100   0.85854   0.40650   0.00000  Uiso   1.00
C584   C     0.46900   0.80813   0.09350   0.00000  Uiso   1.00
C585   C     0.50041   0.83307   0.38372   0.00000  Uiso   1.00
C586   C     0.57930   0.83327   0.25028   0.00000  Uiso   1.00
C587   C     0.49959   0.83359   0.11627   0.00000  Uiso   1.00
C588   C     0.46950   0.80830   0.40670   0.00000  Uiso   1.00
C589   C     0.53050   0.85837   0.09330   0.00000  Uiso   1.00
C590   C     0.46897   0.80905   0.45322   0.00000  Uiso   1.00
C591   C     0.53103   0.85761   0.04678   0.00000  Uiso   1.00
C592   C     0.50004   0.83348   0.47655   0.00000  Uiso   1.00
C593   C     0.49996   0.83318   0.02345   0.00000  Uiso   1.00
C594   C     0.53127   0.85800   0.45321   0.00000  Uiso   1.00
C595   C     0.46873   0.80867   0.04679   0.00000  Uiso   1.00
C596   C     0.43775   0.78603   0.47697   0.00000  Uiso   1.00
C597   C     0.43735   0.78633   0.02274   0.00000  Uiso   1.00
C598   C     0.56225   0.88063   0.02303   0.00000  Uiso   1.00
C599   C     0.56284   0.88440   0.38062   0.00000  Uiso   1.00
C600   C     0.43716   0.78226   0.11938   0.00000  Uiso   1.00
C601   C     0.43681   0.78312   0.38185   0.00000  Uiso   1.00
C602   C     0.39954   0.80583   0.37169   0.00000  Uiso   1.00
C603   C     0.36837   0.78173   0.34937   0.00000  Uiso   1.00
C604   C     0.37451   0.73517   0.33645   0.00000  Uiso   1.00
C605   C     0.41167   0.71245   0.34629   0.00000  Uiso   1.00
C606   C     0.44264   0.73618   0.36930   0.00000  Uiso   1.00
C607   C     0.56319   0.88355   0.11815   0.00000  Uiso   1.00
C608   C     0.56265   0.88034   0.47726   0.00000  Uiso   1.00
C609   C     0.55736   0.93049   0.13070   0.00000  Uiso   1.00
C610   C     0.58833   0.95422   0.15371   0.00000  Uiso   1.00
C611   C     0.62548   0.93150   0.16355   0.00000  Uiso   1.00
C612   C     0.63162   0.88494   0.15063   0.00000  Uiso   1.00
C613   C     0.60046   0.86084   0.12831   0.00000  Uiso   1.00
C614   C     0.35478   0.79280   0.23758   0.00000  Uiso   1.00
C615   C     0.64522   0.87387   0.26242   0.00000  Uiso   1.00
C616   C     0.64544   0.79257   0.23828   0.00000  Uiso   1.00
C617   C     0.35456   0.87410   0.26172   0.00000  Uiso   1.00
C618   C     0.62390   0.83315   0.25056   0.00000  Uiso   1.00
Cu619  Cu    0.50000   0.88022   0.25000   0.00000  Uiso   1.00
Cu620  Cu    0.50000   0.78645   0.25000   0.00000  Uiso   1.00
H621   H     0.41300   0.76764   0.46046   0.00000  Uiso   1.00
H622   H     0.54701   0.95630   0.29846   0.00000  Uiso   1.00
H623   H     0.54693   0.71004   0.29856   0.00000  Uiso   1.00
H624   H     0.45307   0.95663   0.20144   0.00000  Uiso   1.00
H625   H     0.57791   0.86756   0.35271   0.00000  Uiso   1.00
H626   H     0.42209   0.79911   0.14729   0.00000  Uiso   1.00
H627   H     0.39460   0.84197   0.38135   0.00000  Uiso   1.00
H628   H     0.33956   0.79924   0.34181   0.00000  Uiso   1.00
H629   H     0.35049   0.71673   0.31879   0.00000  Uiso   1.00
H630   H     0.41641   0.67643   0.33624   0.00000  Uiso   1.00
H631   H     0.47122   0.71822   0.37706   0.00000  Uiso   1.00
H632   H     0.58700   0.89903   0.03954   0.00000  Uiso   1.00
H633   H     0.52878   0.94845   0.12293   0.00000  Uiso   1.00
H634   H     0.58358   0.99024   0.16376   0.00000  Uiso   1.00
H635   H     0.64950   0.94994   0.18121   0.00000  Uiso   1.00
H636   H     0.66044   0.86743   0.15819   0.00000  Uiso   1.00
H637   H     0.60540   0.82470   0.11865   0.00000  Uiso   1.00
H638   H     0.41172   0.76910   0.03872   0.00000  Uiso   1.00
H639   H     0.58828   0.89757   0.46128   0.00000  Uiso   1.00
H640   H     0.37105   0.76122   0.22781   0.00000  Uiso   1.00
H641   H     0.62895   0.90545   0.27219   0.00000  Uiso   1.00
H642   H     0.62937   0.76090   0.22876   0.00000  Uiso   1.00
H643   H     0.37063   0.90576   0.27123   0.00000  Uiso   1.00
H644   H     0.45299   0.71036   0.20154   0.00000  Uiso   1.00
N645   N     0.50000   0.95069   0.25000   0.00000  Uiso   1.00
N646   N     0.50000   0.71598   0.25000   0.00000  Uiso   1.00
O647   O     0.43988   0.87291   0.24999   0.00000  Uiso   1.00
O648   O     0.42936   0.74130   0.11138   0.00000  Uiso   1.00
O649   O     0.56012   0.79375   0.25000   0.00000  Uiso   1.00
O650   O     0.56012   0.87291   0.25000   0.00000  Uiso   1.00
O651   O     0.43988   0.79375   0.24999   0.00000  Uiso   1.00
O652   O     0.49999   0.87293   0.18513   0.00000  Uiso   1.00
O653   O     0.50001   0.79373   0.31487   0.00000  Uiso   1.00
O654   O     0.50001   0.87293   0.31487   0.00000  Uiso   1.00
O655   O     0.49999   0.79373   0.18513   0.00000  Uiso   1.00
O656   O     0.57064   0.92537   0.38862   0.00000  Uiso   1.00
C657   C     0.75403   0.83339   0.24972   0.00000  Uiso   1.00
C658   C     0.70943   0.83352   0.24944   0.00000  Uiso   1.00
C659   C     0.80724   0.69157   0.22307   0.00000  Uiso   1.00
C660   C     0.85943   0.97510   0.27693   0.00000  Uiso   1.00
C661   C     0.85940   0.69139   0.27696   0.00000  Uiso   1.00
C662   C     0.80726   0.97528   0.22304   0.00000  Uiso   1.00
C663   C     0.83333   0.83338   0.16454   0.00000  Uiso   1.00
C664   C     0.83333   0.83329   0.33546   0.00000  Uiso   1.00
C665   C     0.86433   0.85854   0.40650   0.00000  Uiso   1.00
C666   C     0.80234   0.80813   0.09350   0.00000  Uiso   1.00
C667   C     0.83374   0.83307   0.38372   0.00000  Uiso   1.00
C668   C     0.91264   0.83327   0.25028   0.00000  Uiso   1.00
C669   C     0.83293   0.83359   0.11627   0.00000  Uiso   1.00
C670   C     0.80284   0.80830   0.40670   0.00000  Uiso   1.00
C671   C     0.86383   0.85837   0.09330   0.00000  Uiso   1.00
C672   C     0.80230   0.80905   0.45322   0.00000  Uiso   1.00
C673   C     0.86437   0.85761   0.04678   0.00000  Uiso   1.00
C674   C     0.83337   0.83348   0.47655   0.00000  Uiso   1.00
C675   C     0.83330   0.83318   0.02345   0.00000  Uiso   1.00
C676   C     0.86461   0.85800   0.45321   0.00000  Uiso   1.00
C677   C     0.80206   0.80867   0.04679   0.00000  Uiso   1.00
C678   C     0.77108   0.78603   0.47697   0.00000  Uiso   1.00
C679   C     0.77069   0.78633   0.02274   0.00000  Uiso   1.00
C680   C     0.89558   0.88063   0.02303   0.00000  Uiso   1.00
C681   C     0.89618   0.88440   0.38062   0.00000  Uiso   1.00
C682   C     0.77049   0.78226   0.11938   0.00000  Uiso   1.00
C683   C     0.77014   0.78312   0.38185   0.00000  Uiso   1.00
C684   C     0.73287   0.80583   0.37169   0.00000  Uiso   1.00
C685   C     0.70171   0.78173   0.34937   0.00000  Uiso   1.00
C686   C     0.70785   0.73517   0.33645   0.00000  Uiso   1.00
C687   C     0.74500   0.71245   0.34629   0.00000  Uiso   1.00
C688   C     0.77597   0.73618   0.36930   0.00000  Uiso   1.00
C689   C     0.89652   0.88355   0.11815   0.00000  Uiso   1.00
C690   C     0.89598   0.88034   0.47726   0.00000  Uiso   1.00
C691   C     0.89069   0.93049   0.13070   0.00000  Uiso   1.00
C692   C     0.92166   0.95422   0.15371   0.00000  Uiso   1.00
C693   C     0.95882   0.93150   0.16355   0.00000  Uiso   1.00
C694   C     0.96496   0.88494   0.15063   0.00000  Uiso   1.00
C695   C     0.93379   0.86084   0.12831   0.00000  Uiso   1.00
C696   C     0.68812   0.79280   0.23758   0.00000  Uiso   1.00
C697   C     0.97855   0.87387   0.26242   0.00000  Uiso   1.00
C698   C     0.97878   0.79257   0.23828   0.00000  Uiso   1.00
C699   C     0.68789   0.87410   0.26172   0.00000  Uiso   1.00
C700   C     0.95724   0.83315   0.25056   0.00000  Uiso   1.00
Cu701  Cu    0.83333   0.88022   0.25000   0.00000  Uiso   1.00
Cu702  Cu    0.83333   0.78645   0.25000   0.00000  Uiso   1.00
H703   H     0.74634   0.76764   0.46046   0.00000  Uiso   1.00
H704   H     0.88035   0.95630   0.29846   0.00000  Uiso   1.00
H705   H     0.88026   0.71004   0.29856   0.00000  Uiso   1.00
H706   H     0.78640   0.95663   0.20144   0.00000  Uiso   1.00
H707   H     0.91124   0.86756   0.35271   0.00000  Uiso   1.00
H708   H     0.75542   0.79911   0.14729   0.00000  Uiso   1.00
H709   H     0.72793   0.84197   0.38135   0.00000  Uiso   1.00
H710   H     0.67289   0.79924   0.34181   0.00000  Uiso   1.00
H711   H     0.68383   0.71673   0.31879   0.00000  Uiso   1.00
H712   H     0.74975   0.67643   0.33624   0.00000  Uiso   1.00
H713   H     0.80455   0.71822   0.37706   0.00000  Uiso   1.00
H714   H     0.92033   0.89903   0.03954   0.00000  Uiso   1.00
H715   H     0.86211   0.94845   0.12293   0.00000  Uiso   1.00
H716   H     0.91692   0.99024   0.16376   0.00000  Uiso   1.00
H717   H     0.98284   0.94994   0.18121   0.00000  Uiso   1.00
H718   H     0.99377   0.86743   0.15819   0.00000  Uiso   1.00
H719   H     0.93874   0.82470   0.11865   0.00000  Uiso   1.00
H720   H     0.74506   0.76910   0.03872   0.00000  Uiso   1.00
H721   H     0.92161   0.89757   0.46128   0.00000  Uiso   1.00
H722   H     0.70438   0.76122   0.22781   0.00000  Uiso   1.00
H723   H     0.96228   0.90545   0.27219   0.00000  Uiso   1.00
H724   H     0.96270   0.76090   0.22876   0.00000  Uiso   1.00
H725   H     0.70396   0.90576   0.27123   0.00000  Uiso   1.00
H726   H     0.78632   0.71036   0.20154   0.00000  Uiso   1.00
N727   N     0.83333   0.95069   0.25000   0.00000  Uiso   1.00
N728   N     0.83333   0.71598   0.25000   0.00000  Uiso   1.00
O729   O     0.77321   0.87291   0.24999   0.00000  Uiso   1.00
O730   O     0.76270   0.74130   0.11138   0.00000  Uiso   1.00
O731   O     0.89345   0.79375   0.25000   0.00000  Uiso   1.00
O732   O     0.89345   0.87291   0.25000   0.00000  Uiso   1.00
O733   O     0.77321   0.79375   0.24999   0.00000  Uiso   1.00
O734   O     0.83332   0.87293   0.18513   0.00000  Uiso   1.00
O735   O     0.83334   0.79373   0.31487   0.00000  Uiso   1.00
O736   O     0.83334   0.87293   0.31487   0.00000  Uiso   1.00
O737   O     0.83332   0.79373   0.18513   0.00000  Uiso   1.00
O738   O     0.90397   0.92537   0.38862   0.00000  Uiso   1.00
C739   C     0.08736   0.16673   0.74972   0.00000  Uiso   1.00
C740   C     0.04276   0.16685   0.74944   0.00000  Uiso   1.00
C741   C     0.14057   0.02490   0.72307   0.00000  Uiso   1.00
C742   C     0.19276   0.30843   0.77693   0.00000  Uiso   1.00
C743   C     0.19274   0.02472   0.77696   0.00000  Uiso   1.00
C744   C     0.14060   0.30861   0.72304   0.00000  Uiso   1.00
C745   C     0.16667   0.16671   0.66454   0.00000  Uiso   1.00
C746   C     0.16667   0.16662   0.83546   0.00000  Uiso   1.00
C747   C     0.19766   0.19187   0.90650   0.00000  Uiso   1.00
C748   C     0.13567   0.14146   0.59350   0.00000  Uiso   1.00
C749   C     0.16707   0.16641   0.88372   0.00000  Uiso   1.00
C750   C     0.24597   0.16661   0.75028   0.00000  Uiso   1.00
C751   C     0.16626   0.16692   0.61627   0.00000  Uiso   1.00
C752   C     0.13617   0.14163   0.90670   0.00000  Uiso   1.00
C753   C     0.19716   0.19170   0.59330   0.00000  Uiso   1.00
C754   C     0.13563   0.14239   0.95322   0.00000  Uiso   1.00
C755   C     0.19770   0.19095   0.54678   0.00000  Uiso   1.00
C756   C     0.16670   0.16682   0.97655   0.00000  Uiso   1.00
C757   C     0.16663   0.16652   0.52345   0.00000  Uiso   1.00
C758   C     0.19794   0.19133   0.95321   0.00000  Uiso   1.00
C759   C     0.13539   0.14200   0.54679   0.00000  Uiso   1.00
C760   C     0.10442   0.11937   0.97697   0.00000  Uiso   1.00
C761   C     0.10402   0.11966   0.52274   0.00000  Uiso   1.00
C762   C     0.22892   0.21397   0.52303   0.00000  Uiso   1.00
C763   C     0.22951   0.21773   0.88062   0.00000  Uiso   1.00
C764   C     0.10382   0.11560   0.61938   0.00000  Uiso   1.00
C765   C     0.10348   0.11645   0.88185   0.00000  Uiso   1.00
C766   C     0.06621   0.13917   0.87169   0.00000  Uiso   1.00
C767   C     0.03504   0.11506   0.84937   0.00000  Uiso   1.00
C768   C     0.04118   0.06850   0.83645   0.00000  Uiso   1.00
C769   C     0.07834   0.04579   0.84629   0.00000  Uiso   1.00
C770   C     0.10931   0.06951   0.86930   0.00000  Uiso   1.00
C771   C     0.22986   0.21688   0.61815   0.00000  Uiso   1.00
C772   C     0.22931   0.21367   0.97726   0.00000  Uiso   1.00
C773   C     0.22403   0.26382   0.63070   0.00000  Uiso   1.00
C774   C     0.25499   0.28755   0.65371   0.00000  Uiso   1.00
C775   C     0.29215   0.26483   0.66355   0.00000  Uiso   1.00
C776   C     0.29829   0.21828   0.65063   0.00000  Uiso   1.00
C777   C     0.26712   0.19417   0.62831   0.00000  Uiso   1.00
C778   C     0.02145   0.12613   0.73758   0.00000  Uiso   1.00
C779   C     0.31188   0.20720   0.76242   0.00000  Uiso   1.00
C780   C     0.31211   0.12590   0.73828   0.00000  Uiso   1.00
C781   C     0.02122   0.20743   0.76172   0.00000  Uiso   1.00
C782   C     0.29057   0.16648   0.75056   0.00000  Uiso   1.00
Cu783  Cu    0.16667   0.21355   0.75000   0.00000  Uiso   1.00
Cu784  Cu    0.16667   0.11978   0.75000   0.00000  Uiso   1.00
H785   H     0.07967   0.10097   0.96046   0.00000  Uiso   1.00
H786   H     0.21368   0.28964   0.79846   0.00000  Uiso   1.00
H787   H     0.21360   0.04337   0.79856   0.00000  Uiso   1.00
H788   H     0.11974   0.28996   0.70144   0.00000  Uiso   1.00
H789   H     0.24458   0.20089   0.85271   0.00000  Uiso   1.00
H790   H     0.08876   0.13244   0.64729   0.00000  Uiso   1.00
H791   H     0.06126   0.17530   0.88135   0.00000  Uiso   1.00
H792   H     0.00623   0.13257   0.84181   0.00000  Uiso   1.00
H793   H     0.01716   0.05006   0.81879   0.00000  Uiso   1.00
H794   H     0.08308   0.00976   0.83624   0.00000  Uiso   1.00
H795   H     0.13789   0.05155   0.87706   0.00000  Uiso   1.00
H796   H     0.25366   0.23236   0.53954   0.00000  Uiso   1.00
H797   H     0.19545   0.28178   0.62293   0.00000  Uiso   1.00
H798   H     0.25025   0.32358   0.66376   0.00000  Uiso   1.00
H799   H     0.31617   0.28327   0.68121   0.00000  Uiso   1.00
H800   H     0.32711   0.20077   0.65819   0.00000  Uiso   1.00
H801   H     0.27207   0.15804   0.61865   0.00000  Uiso   1.00
H802   H     0.07839   0.10243   0.53872   0.00000  Uiso   1.00
H803   H     0.25494   0.23090   0.96128   0.00000  Uiso   1.00
H804   H     0.03772   0.09455   0.72781   0.00000  Uiso   1.00
H805   H     0.29562   0.23878   0.77219   0.00000  Uiso   1.00
H806   H     0.29604   0.09424   0.72876   0.00000  Uiso   1.00
H807   H     0.03730   0.23910   0.77123   0.00000  Uiso   1.00
H808   H     0.11965   0.04370   0.70154   0.00000  Uiso   1.00
N809   N     0.16667   0.28402   0.75000   0.00000  Uiso   1.00
N810   N     0.16667   0.04931   0.75000   0.00000  Uiso   1.00
O811   O     0.10655   0.20625   0.74999   0.00000  Uiso   1.00
O812   O     0.09603   0.07463   0.61138   0.00000  Uiso   1.00
O813   O     0.22679   0.12709   0.75000   0.00000  Uiso   1.00
O814   O     0.22679   0.20625   0.75000   0.00000  Uiso   1.00
O815   O     0.10655   0.12709   0.74999   0.00000  Uiso   1.00
O816   O     0.16666   0.20627   0.68513   0.00000  Uiso   1.00
O817   O     0.16668   0.12707   0.81487   0.00000  Uiso   1.00
O818   O     0.16668   0.20627   0.81487   0.00000  Uiso   1.00
O819   O     0.16666   0.12707   0.68513   0.00000  Uiso   1.00
O820   O     0.23730   0.25870   0.88862   0.00000  Uiso   1.00
C821   C     0.42070   0.16673   0.74972   0.00000  Uiso   1.00
C822   C     0.37609   0.16685   0.74944   0.00000  Uiso   1.00
C823   C     0.47391   0.02490   0.72307   0.00000  Uiso   1.00
C824   C     0.52609   0.30843   0.77693   0.00000  Uiso   1.00
C825   C     0.52607   0.02472   0.77696   0.00000  Uiso   1.00
C826   C     0.47393   0.30861   0.72304   0.00000  Uiso   1.00
C827   C     0.50000   0.16671   0.66454   0.00000  Uiso   1.00
C828   C     0.50000   0.16662   0.83546   0.00000  Uiso   1.00
C829   C     0.53100   0.19187   0.90650   0.00000  Uiso   1.00
C830   C     0.46900   0.14146   0.59350   0.00000  Uiso   1.00
C831   C     0.50041   0.16641   0.88372   0.00000  Uiso   1.00
C832   C     0.57930   0.16661   0.75028   0.00000  Uiso   1.00
C833   C     0.49959   0.16692   0.61627   0.00000  Uiso   1.00
C834   C     0.46950   0.14163   0.90670   0.00000  Uiso   1.00
C835   C     0.53050   0.19170   0.59330   0.00000  Uiso   1.00
C836   C     0.46897   0.14239   0.95322   0.00000  Uiso   1.00
C837   C     0.53103   0.19095   0.54678   0.00000  Uiso   1.00
C838   C     0.50004   0.16682   0.97655   0.00000  Uiso   1.00
C839   C     0.49996   0.16652   0.52345   0.00000  Uiso   1.00
C840   C     0.53127   0.19133   0.95321   0.00000  Uiso   1.00
C841   C     0.46873   0.14200   0.54679   0.00000  Uiso   1.00
C842   C     0.43775   0.11937   0.97697   0.00000  Uiso   1.00
C843   C     0.43735   0.11966   0.52274   0.00000  Uiso   1.00
C844   C     0.56225   0.21397   0.52303   0.00000  Uiso   1.00
C845   C     0.56284   0.21773   0.88062   0.00000  Uiso   1.00
C846   C     0.43716   0.11560   0.61938   0.00000  Uiso   1.00
C847   C     0.43681   0.11645   0.88185   0.00000  Uiso   1.00
C848   C     0.39954   0.13917   0.87169   0.00000  Uiso   1.00
C849   C     0.36837   0.11506   0.84937   0.00000  Uiso   1.00
C850   C     0.37451   0.06850   0.83645   0.00000  Uiso   1.00
C851   C     0.41167   0.04579   0.84629   0.00000  Uiso   1.00
C852   C     0.44264   0.06951   0.86930   0.00000  Uiso   1.00
C853   C     0.56319   0.21688   0.61815   0.00000  Uiso   1.00
C854   C     0.56265   0.21367   0.97726   0.00000  Uiso   1.00
C855   C     0.55736   0.26382   0.63070   0.00000  Uiso   1.00
C856   C     0.58833   0.28755   0.65371   0.00000  Uiso   1.00
C857   C     0.62548   0.26483   0.66355   0.00000  Uiso   1.00
C858   C     0.63162   0.21828   0.65063   0.00000  Uiso   1.00
C859   C     0.60046   0.19417   0.62831   0.00000  Uiso   1.00
C860   C     0.35478   0.12613   0.73758   0.00000  Uiso   1.00
C861   C     0.64522   0.20720   0.76242   0.00000  Uiso   1.00
C862   C     0.64544   0.12590   0.73828   0.00000  Uiso   1.00
C863   C     0.35456   0.20743   0.76172   0.00000  Uiso   1.00
C864   C     0.62390   0.16648   0.75056   0.00000  Uiso   1.00
Cu865  Cu    0.50000   0.21355   0.75000   0.00000  Uiso   1.00
Cu866  Cu    0.50000   0.11978   0.75000   0.00000  Uiso   1.00
H867   H     0.41300   0.10097   0.96046   0.00000  Uiso   1.00
H868   H     0.54701   0.28964   0.79846   0.00000  Uiso   1.00
H869   H     0.54693   0.04337   0.79856   0.00000  Uiso   1.00
H870   H     0.45307   0.28996   0.70144   0.00000  Uiso   1.00
H871   H     0.57791   0.20089   0.85271   0.00000  Uiso   1.00
H872   H     0.42209   0.13244   0.64729   0.00000  Uiso   1.00
H873   H     0.39460   0.17530   0.88135   0.00000  Uiso   1.00
H874   H     0.33956   0.13257   0.84181   0.00000  Uiso   1.00
H875   H     0.35049   0.05006   0.81879   0.00000  Uiso   1.00
H876   H     0.41641   0.00976   0.83624   0.00000  Uiso   1.00
H877   H     0.47122   0.05155   0.87706   0.00000  Uiso   1.00
H878   H     0.58700   0.23236   0.53954   0.00000  Uiso   1.00
H879   H     0.52878   0.28178   0.62293   0.00000  Uiso   1.00
H880   H     0.58358   0.32358   0.66376   0.00000  Uiso   1.00
H881   H     0.64950   0.28327   0.68121   0.00000  Uiso   1.00
H882   H     0.66044   0.20077   0.65819   0.00000  Uiso   1.00
H883   H     0.60540   0.15804   0.61865   0.00000  Uiso   1.00
H884   H     0.41172   0.10243   0.53872   0.00000  Uiso   1.00
H885   H     0.58828   0.23090   0.96128   0.00000  Uiso   1.00
H886   H     0.37105   0.09455   0.72781   0.00000  Uiso   1.00
H887   H     0.62895   0.23878   0.77219   0.00000  Uiso   1.00
H888   H     0.62937   0.09424   0.72876   0.00000  Uiso   1.00
H889   H     0.37063   0.23910   0.77123   0.00000  Uiso   1.00
H890   H     0.45299   0.04370   0.70154   0.00000  Uiso   1.00
N891   N     0.50000   0.28402   0.75000   0.00000  Uiso   1.00
N892   N     0.50000   0.04931   0.75000   0.00000  Uiso   1.00
O893   O     0.43988   0.20625   0.74999   0.00000  Uiso   1.00
O894   O     0.42936   0.07463   0.61138   0.00000  Uiso   1.00
O895   O     0.56012   0.12709   0.75000   0.00000  Uiso   1.00
O896   O     0.56012   0.20625   0.75000   0.00000  Uiso   1.00
O897   O     0.43988   0.12709   0.74999   0.00000  Uiso   1.00
O898   O     0.49999   0.20627   0.68513   0.00000  Uiso   1.00
O899   O     0.50001   0.12707   0.81487   0.00000  Uiso   1.00
O900   O     0.50001   0.20627   0.81487   0.00000  Uiso   1.00
O901   O     0.49999   0.12707   0.68513   0.00000  Uiso   1.00
O902   O     0.57064   0.25870   0.88862   0.00000  Uiso   1.00
C903   C     0.75403   0.16673   0.74972   0.00000  Uiso   1.00
C904   C     0.70943   0.16685   0.74944   0.00000  Uiso   1.00
C905   C     0.80724   0.02490   0.72307   0.00000  Uiso   1.00
C906   C     0.85943   0.30843   0.77693   0.00000  Uiso   1.00
C907   C     0.85940   0.02472   0.77696   0.00000  Uiso   1.00
C908   C     0.80726   0.30861   0.72304   0.00000  Uiso   1.00
C909   C     0.83333   0.16671   0.66454   0.00000  Uiso   1.00
C910   C     0.83333   0.16662   0.83546   0.00000  Uiso   1.00
C911   C     0.86433   0.19187   0.90650   0.00000  Uiso   1.00
C912   C     0.80234   0.14146   0.59350   0.00000  Uiso   1.00
C913   C     0.83374   0.16641   0.88372   0.00000  Uiso   1.00
C914   C     0.91264   0.16661   0.75028   0.00000  Uiso   1.00
C915   C     0.83293   0.16692   0.61627   0.00000  Uiso   1.00
C916   C     0.80284   0.14163   0.90670   0.00000  Uiso   1.00
C917   C     0.86383   0.19170   0.59330   0.00000  Uiso   1.00
C918   C     0.80230   0.14239   0.95322   0.00000  Uiso   1.00
C919   C     0.86437   0.19095   0.54678   0.00000  Uiso   1.00
C920   C     0.83337   0.16682   0.97655   0.00000  Uiso   1.00
C921   C     0.83330   0.16652   0.52345   0.00000  Uiso   1.00
C922   C     0.86461   0.19133   0.95321   0.00000  Uiso   1.00
C923   C     0.80206   0.14200   0.54679   0.00000  Uiso   1.00
C924   C     0.77108   0.11937   0.97697   0.00000  Uiso   1.00
C925   C     0.77069   0.11966   0.52274   0.00000  Uiso   1.00
C926   C     0.89558   0.21397   0.52303   0.00000  Uiso   1.00
C927   C     0.89618   0.21773   0.88062   0.00000  Uiso   1.00
C928   C     0.77049   0.11560   0.61938   0.00000  Uiso   1.00
C929   C     0.77014   0.11645   0.88185   0.00000  Uiso   1.00
C930   C     0.73287   0.13917   0.87169   0.00000  Uiso   1.00
C931   C     0.70171   0.11506   0.84937   0.00000  Uiso   1.00
C932   C     0.70785   0.06850   0.83645   0.00000  Uiso   1.00
C933   C     0.74500   0.04579   0.84629   0.00000  Uiso   1.00
C934   C     0.77597   0.06951   0.86930   0.00000  Uiso   1.00
C935   C     0.89652   0.21688   0.61815   0.00000  Uiso   1.00
C936   C     0.89598   0.21367   0.97726   0.00000  Uiso   1.00
C937   C     0.89069   0.26382   0.63070   0.00000  Uiso   1.00
C938   C     0.92166   0.28755   0.65371   0.00000  Uiso   1.00
C939   C     0.95882   0.26483   0.66355   0.00000  Uiso   1.00
C940   C     0.96496   0.21828   0.65063   0.00000  Uiso   1.00
C941   C     0.93379   0.19417   0.62831   0.00000  Uiso   1.00
C942   C     0.68812   0.12613   0.73758   0.00000  Uiso   1.00
C943   C     0.97855   0.20720   0.76242   0.00000  Uiso   1.00
C944   C     0.97878   0.12590   0.73828   0.00000  Uiso   1.00
C945   C     0.68789   0.20743   0.76172   0.00000  Uiso   1.00
C946   C     0.95724   0.16648   0.75056   0.00000  Uiso   1.00
Cu947  Cu    0.83333   0.21355   0.75000   0.00000  Uiso   1.00
Cu948  Cu    0.83333   0.11978   0.75000   0.00000  Uiso   1.00
H949   H     0.74634   0.10097   0.96046   0.00000  Uiso   1.00
H950   H     0.88035   0.28964   0.79846   0.00000  Uiso   1.00
H951   H     0.88026   0.04337   0.79856   0.00000  Uiso   1.00
H952   H     0.78640   0.28996   0.70144   0.00000  Uiso   1.00
H953   H     0.91124   0.20089   0.85271   0.00000  Uiso   1.00
H954   H     0.75542   0.13244   0.64729   0.00000  Uiso   1.00
H955   H     0.72793   0.17530   0.88135   0.00000  Uiso   1.00
H956   H     0.67289   0.13257   0.84181   0.00000  Uiso   1.00
H957   H     0.68383   0.05006   0.81879   0.00000  Uiso   1.00
H958   H     0.74975   0.00976   0.83624   0.00000  Uiso   1.00
H959   H     0.80455   0.05155   0.87706   0.00000  Uiso   1.00
H960   H     0.92033   0.23236   0.53954   0.00000  Uiso   1.00
H961   H     0.86211   0.28178   0.62293   0.00000  Uiso   1.00
H962   H     0.91692   0.32358   0.66376   0.00000  Uiso   1.00
H963   H     0.98284   0.28327   0.68121   0.00000  Uiso   1.00
H964   H     0.99377   0.20077   0.65819   0.00000  Uiso   1.00
H965   H     0.93874   0.15804   0.61865   0.00000  Uiso   1.00
H966   H     0.74506   0.10243   0.53872   0.00000  Uiso   1.00
H967   H     0.92161   0.23090   0.96128   0.00000  Uiso   1.00
H968   H     0.70438   0.09455   0.72781   0.00000  Uiso   1.00
H969   H     0.96228   0.23878   0.77219   0.00000  Uiso   1.00
H970   H     0.96270   0.09424   0.72876   0.00000  Uiso   1.00
H971   H     0.70396   0.23910   0.77123   0.00000  Uiso   1.00
H972   H     0.78632   0.04370   0.70154   0.00000  Uiso   1.00
N973   N     0.83333   0.28402   0.75000   0.00000  Uiso   1.00
N974   N     0.83333   0.04931   0.75000   0.00000  Uiso   1.00
O975   O     0.77321   0.20625   0.74999   0.00000  Uiso   1.00
O976   O     0.76270   0.07463   0.61138   0.00000  Uiso   1.00
O977   O     0.89345   0.12709   0.75000   0.00000  Uiso   1.00
O978   O     0.89345   0.20625   0.75000   0.00000  Uiso   1.00
O979   O     0.77321   0.12709   0.74999   0.00000  Uiso   1.00
O980   O     0.83332   0.20627   0.68513   0.00000  Uiso   1.00
O981   O     0.83334   0.12707   0.81487   0.00000  Uiso   1.00
O982   O     0.83334   0.20627   0.81487   0.00000  Uiso   1.00
O983   O     0.83332   0.12707   0.68513   0.00000  Uiso   1.00
O984   O     0.90397   0.25870   0.88862   0.00000  Uiso   1.00
C985   C     0.08736   0.50006   0.74972   0.00000  Uiso   1.00
C986   C     0.04276   0.50018   0.74944   0.00000  Uiso   1.00
C987   C     0.14057   0.35824   0.72307   0.00000  Uiso   1.00
C988   C     0.19276   0.64176   0.77693   0.00000  Uiso   1.00
C989   C     0.19274   0.35806   0.77696   0.00000  Uiso   1.00
C990   C     0.14060   0.64194   0.72304   0.00000  Uiso   1.00
C991   C     0.16667   0.50005   0.66454   0.00000  Uiso   1.00
C992   C     0.16667   0.49995   0.83546   0.00000  Uiso   1.00
C993   C     0.19766   0.52521   0.90650   0.00000  Uiso   1.00
C994   C     0.13567   0.47479   0.59350   0.00000  Uiso   1.00
C995   C     0.16707   0.49974   0.88372   0.00000  Uiso   1.00
C996   C     0.24597   0.49994   0.75028   0.00000  Uiso   1.00
C997   C     0.16626   0.50026   0.61627   0.00000  Uiso   1.00
C998   C     0.13617   0.47497   0.90670   0.00000  Uiso   1.00
C999   C     0.19716   0.52503   0.59330   0.00000  Uiso   1.00
C1000  C     0.13563   0.47572   0.95322   0.00000  Uiso   1.00
C1001  C     0.19770   0.52428   0.54678   0.00000  Uiso   1.00
C1002  C     0.16670   0.50015   0.97655   0.00000  Uiso   1.00
C1003  C     0.16663   0.49985   0.52345   0.00000  Uiso   1.00
C1004  C     0.19794   0.52467   0.95321   0.00000  Uiso   1.00
C1005  C     0.13539   0.47533   0.54679   0.00000  Uiso   1.00
C1006  C     0.10442   0.45270   0.97697   0.00000  Uiso   1.00
C1007  C     0.10402   0.45300   0.52274   0.00000  Uiso   1.00
C1008  C     0.22892   0.54730   0.52303   0.00000  Uiso   1.00
C1009  C     0.22951   0.55107   0.88062   0.00000  Uiso   1.00
C1010  C     0.10382   0.44893   0.61938   0.00000  Uiso   1.00
C1011  C     0.10348   0.44978   0.88185   0.00000  Uiso   1.00
C1012  C     0.06621   0.47250   0.87169   0.00000  Uiso   1.00
C1013  C     0.03504   0.44839   0.84937   0.00000  Uiso   1.00
C1014  C     0.04118   0.40183   0.83645   0.00000  Uiso   1.00
C1015  C     0.07834   0.37912   0.84629   0.00000  Uiso   1.00
C1016  C     0.10931   0.40284   0.86930   0.00000  Uiso   1.00
C1017  C     0.22986   0.55022   0.61815   0.00000  Uiso   1.00
C1018  C     0.22931   0.54700   0.97726   0.00000  Uiso   1.00
C1019  C     0.22403   0.59716   0.63070   0.00000  Uiso   1.00
C1020  C     0.25499   0.62088   0.65371   0.00000  Uiso   1.00
C1021  C     0.29215   0.59817   0.66355   0.00000  Uiso   1.00
C1022  C     0.29829   0.55161   0.65063   0.00000  Uiso   1.00
C1023  C     0.26712   0.52750   0.62831   0.00000  Uiso   1.00
C1024  C     0.02145   0.45947   0.73758   0.00000  Uiso   1.00
C1025  C     0.31188   0.54053   0.76242   0.00000  Uiso   1.00
C1026  C     0.31211   0.45923   0.73828   0.00000  Uiso   1.00
C1027  C     0.02122   0.54077   0.76172   0.00000  Uiso   1.00
C1028  C     0.29057   0.49982   0.75056   0.00000  Uiso   1.00
Cu1029 Cu    0.16667   0.54689   0.75000   0.00000  Uiso   1.00
Cu1030 Cu    0.16667   0.45311   0.75000   0.00000  Uiso   1.00
H1031  H     0.07967   0.43430   0.96046   0.00000  Uiso   1.00
H1032  H     0.21368   0.62297   0.79846   0.00000  Uiso   1.00
H1033  H     0.21360   0.37671   0.79856   0.00000  Uiso   1.00
H1034  H     0.11974   0.62329   0.70144   0.00000  Uiso   1.00
H1035  H     0.24458   0.53422   0.85271   0.00000  Uiso   1.00
H1036  H     0.08876   0.46578   0.64729   0.00000  Uiso   1.00
H1037  H     0.06126   0.50863   0.88135   0.00000  Uiso   1.00
H1038  H     0.00623   0.46590   0.84181   0.00000  Uiso   1.00
H1039  H     0.01716   0.38340   0.81879   0.00000  Uiso   1.00
H1040  H     0.08308   0.34309   0.83624   0.00000  Uiso   1.00
H1041  H     0.13789   0.38488   0.87706   0.00000  Uiso   1.00
H1042  H     0.25366   0.56570   0.53954   0.00000  Uiso   1.00
H1043  H     0.19545   0.61512   0.62293   0.00000  Uiso   1.00
H1044  H     0.25025   0.65691   0.66376   0.00000  Uiso   1.00
H1045  H     0.31617   0.61661   0.68121   0.00000  Uiso   1.00
H1046  H     0.32711   0.53410   0.65819   0.00000  Uiso   1.00
H1047  H     0.27207   0.49137   0.61865   0.00000  Uiso   1.00
H1048  H     0.07839   0.43576   0.53872   0.00000  Uiso   1.00
H1049  H     0.25494   0.56424   0.96128   0.00000  Uiso   1.00
H1050  H     0.03772   0.42789   0.72781   0.00000  Uiso   1.00
H1051  H     0.29562   0.57211   0.77219   0.00000  Uiso   1.00
H1052  H     0.29604   0.42757   0.72876   0.00000  Uiso   1.00
H1053  H     0.03730   0.57243   0.77123   0.00000  Uiso   1.00
H1054  H     0.11965   0.37703   0.70154   0.00000  Uiso   1.00
N1055  N     0.16667   0.61736   0.75000   0.00000  Uiso   1.00
N1056  N     0.16667   0.38264   0.75000   0.00000  Uiso   1.00
O1057  O     0.10655   0.53958   0.74999   0.00000  Uiso   1.00
O1058  O     0.09603   0.40796   0.61138   0.00000  Uiso   1.00
O1059  O     0.22679   0.46042   0.75000   0.00000  Uiso   1.00
O1060  O     0.22679   0.53958   0.75000   0.00000  Uiso   1.00
O1061  O     0.10655   0.46042   0.74999   0.00000  Uiso   1.00
O1062  O     0.16666   0.53960   0.68513   0.00000  Uiso   1.00
O1063  O     0.16668   0.46040   0.81487   0.00000  Uiso   1.00
O1064  O     0.16668   0.53960   0.81487   0.00000  Uiso   1.00
O1065  O     0.16666   0.46040   0.68513   0.00000  Uiso   1.00
O1066  O     0.23730   0.59203   0.88862   0.00000  Uiso   1.00
C1067  C     0.42070   0.50006   0.74972   0.00000  Uiso   1.00
C1068  C     0.37609   0.50018   0.74944   0.00000  Uiso   1.00
C1069  C     0.47391   0.35824   0.72307   0.00000  Uiso   1.00
C1070  C     0.52609   0.64176   0.77693   0.00000  Uiso   1.00
C1071  C     0.52607   0.35806   0.77696   0.00000  Uiso   1.00
C1072  C     0.47393   0.64194   0.72304   0.00000  Uiso   1.00
C1073  C     0.50000   0.50005   0.66454   0.00000  Uiso   1.00
C1074  C     0.50000   0.49995   0.83546   0.00000  Uiso   1.00
C1075  C     0.53100   0.52521   0.90650   0.00000  Uiso   1.00
C1076  C     0.46900   0.47479   0.59350   0.00000  Uiso   1.00
C1077  C     0.50041   0.49974   0.88372   0.00000  Uiso   1.00
C1078  C     0.57930   0.49994   0.75028   0.00000  Uiso   1.00
C1079  C     0.49959   0.50026   0.61627   0.00000  Uiso   1.00
C1080  C     0.46950   0.47497   0.90670   0.00000  Uiso   1.00
C1081  C     0.53050   0.52503   0.59330   0.00000  Uiso   1.00
C1082  C     0.46897   0.47572   0.95322   0.00000  Uiso   1.00
C1083  C     0.53103   0.52428   0.54678   0.00000  Uiso   1.00
C1084  C     0.50004   0.50015   0.97655   0.00000  Uiso   1.00
C1085  C     0.49996   0.49985   0.52345   0.00000  Uiso   1.00
C1086  C     0.53127   0.52467   0.95321   0.00000  Uiso   1.00
C1087  C     0.46873   0.47533   0.54679   0.00000  Uiso   1.00
C1088  C     0.43775   0.45270   0.97697   0.00000  Uiso   1.00
C1089  C     0.43735   0.45300   0.52274   0.00000  Uiso   1.00
C1090  C     0.56225   0.54730   0.52303   0.00000  Uiso   1.00
C1091  C     0.56284   0.55107   0.88062   0.00000  Uiso   1.00
C1092  C     0.43716   0.44893   0.61938   0.00000  Uiso   1.00
C1093  C     0.43681   0.44978   0.88185   0.00000  Uiso   1.00
C1094  C     0.39954   0.47250   0.87169   0.00000  Uiso   1.00
C1095  C     0.36837   0.44839   0.84937   0.00000  Uiso   1.00
C1096  C     0.37451   0.40183   0.83645   0.00000  Uiso   1.00
C1097  C     0.41167   0.37912   0.84629   0.00000  Uiso   1.00
C1098  C     0.44264   0.40284   0.86930   0.00000  Uiso   1.00
C1099  C     0.56319   0.55022   0.61815   0.00000  Uiso   1.00
C1100  C     0.56265   0.54700   0.97726   0.00000  Uiso   1.00
C1101  C     0.55736   0.59716   0.63070   0.00000  Uiso   1.00
C1102  C     0.58833   0.62088   0.65371   0.00000  Uiso   1.00
C1103  C     0.62548   0.59817   0.66355   0.00000  Uiso   1.00
C1104  C     0.63162   0.55161   0.65063   0.00000  Uiso   1.00
C1105  C     0.60046   0.52750   0.62831   0.00000  Uiso   1.00
C1106  C     0.35478   0.45947   0.73758   0.00000  Uiso   1.00
C1107  C     0.64522   0.54053   0.76242   0.00000  Uiso   1.00
C1108  C     0.64544   0.45923   0.73828   0.00000  Uiso   1.00
C1109  C     0.35456   0.54077   0.76172   0.00000  Uiso   1.00
C1110  C     0.62390   0.49982   0.75056   0.00000  Uiso   1.00
Cu1111 Cu    0.50000   0.54689   0.75000   0.00000  Uiso   1.00
Cu1112 Cu    0.50000   0.45311   0.75000   0.00000  Uiso   1.00
H1113  H     0.41300   0.43430   0.96046   0.00000  Uiso   1.00
H1114  H     0.54701   0.62297   0.79846   0.00000  Uiso   1.00
H1115  H     0.54693   0.37671   0.79856   0.00000  Uiso   1.00
H1116  H     0.45307   0.62329   0.70144   0.00000  Uiso   1.00
H1117  H     0.57791   0.53422   0.85271   0.00000  Uiso   1.00
H1118  H     0.42209   0.46578   0.64729   0.00000  Uiso   1.00
H1119  H     0.39460   0.50863   0.88135   0.00000  Uiso   1.00
H1120  H     0.33956   0.46590   0.84181   0.00000  Uiso   1.00
H1121  H     0.35049   0.38340   0.81879   0.00000  Uiso   1.00
H1122  H     0.41641   0.34309   0.83624   0.00000  Uiso   1.00
H1123  H     0.47122   0.38488   0.87706   0.00000  Uiso   1.00
H1124  H     0.58700   0.56570   0.53954   0.00000  Uiso   1.00
H1125  H     0.52878   0.61512   0.62293   0.00000  Uiso   1.00
H1126  H     0.58358   0.65691   0.66376   0.00000  Uiso   1.00
H1127  H     0.64950   0.61661   0.68121   0.00000  Uiso   1.00
H1128  H     0.66044   0.53410   0.65819   0.00000  Uiso   1.00
H1129  H     0.60540   0.49137   0.61865   0.00000  Uiso   1.00
H1130  H     0.41172   0.43576   0.53872   0.00000  Uiso   1.00
H1131  H     0.58828   0.56424   0.96128   0.00000  Uiso   1.00
H1132  H     0.37105   0.42789   0.72781   0.00000  Uiso   1.00
H1133  H     0.62895   0.57211   0.77219   0.00000  Uiso   1.00
H1134  H     0.62937   0.42757   0.72876   0.00000  Uiso   1.00
H1135  H     0.37063   0.57243   0.77123   0.00000  Uiso   1.00
H1136  H     0.45299   0.37703   0.70154   0.00000  Uiso   1.00
N1137  N     0.50000   0.61736   0.75000   0.00000  Uiso   1.00
N1138  N     0.50000   0.38264   0.75000   0.00000  Uiso   1.00
O1139  O     0.43988   0.53958   0.74999   0.00000  Uiso   1.00
O1140  O     0.42936   0.40796   0.61138   0.00000  Uiso   1.00
O1141  O     0.56012   0.46042   0.75000   0.00000  Uiso   1.00
O1142  O     0.56012   0.53958   0.75000   0.00000  Uiso   1.00
O1143  O     0.43988   0.46042   0.74999   0.00000  Uiso   1.00
O1144  O     0.49999   0.53960   0.68513   0.00000  Uiso   1.00
O1145  O     0.50001   0.46040   0.81487   0.00000  Uiso   1.00
O1146  O     0.50001   0.53960   0.81487   0.00000  Uiso   1.00
O1147  O     0.49999   0.46040   0.68513   0.00000  Uiso   1.00
O1148  O     0.57064   0.59203   0.88862   0.00000  Uiso   1.00
C1149  C     0.75403   0.50006   0.74972   0.00000  Uiso   1.00
C1150  C     0.70943   0.50018   0.74944   0.00000  Uiso   1.00
C1151  C     0.80724   0.35824   0.72307   0.00000  Uiso   1.00
C1152  C     0.85943   0.64176   0.77693   0.00000  Uiso   1.00
C1153  C     0.85940   0.35806   0.77696   0.00000  Uiso   1.00
C1154  C     0.80726   0.64194   0.72304   0.00000  Uiso   1.00
C1155  C     0.83333   0.50005   0.66454   0.00000  Uiso   1.00
C1156  C     0.83333   0.49995   0.83546   0.00000  Uiso   1.00
C1157  C     0.86433   0.52521   0.90650   0.00000  Uiso   1.00
C1158  C     0.80234   0.47479   0.59350   0.00000  Uiso   1.00
C1159  C     0.83374   0.49974   0.88372   0.00000  Uiso   1.00
C1160  C     0.91264   0.49994   0.75028   0.00000  Uiso   1.00
C1161  C     0.83293   0.50026   0.61627   0.00000  Uiso   1.00
C1162  C     0.80284   0.47497   0.90670   0.00000  Uiso   1.00
C1163  C     0.86383   0.52503   0.59330   0.00000  Uiso   1.00
C1164  C     0.80230   0.47572   0.95322   0.00000  Uiso   1.00
C1165  C     0.86437   0.52428   0.54678   0.00000  Uiso   1.00
C1166  C     0.83337   0.50015   0.97655   0.00000  Uiso   1.00
C1167  C     0.83330   0.49985   0.52345   0.00000  Uiso   1.00
C1168  C     0.86461   0.52467   0.95321   0.00000  Uiso   1.00
C1169  C     0.80206   0.47533   0.54679   0.00000  Uiso   1.00
C1170  C     0.77108   0.45270   0.97697   0.00000  Uiso   1.00
C1171  C     0.77069   0.45300   0.52274   0.00000  Uiso   1.00
C1172  C     0.89558   0.54730   0.52303   0.00000  Uiso   1.00
C1173  C     0.89618   0.55107   0.88062   0.00000  Uiso   1.00
C1174  C     0.77049   0.44893   0.61938   0.00000  Uiso   1.00
C1175  C     0.77014   0.44978   0.88185   0.00000  Uiso   1.00
C1176  C     0.73287   0.47250   0.87169   0.00000  Uiso   1.00
C1177  C     0.70171   0.44839   0.84937   0.00000  Uiso   1.00
C1178  C     0.70785   0.40183   0.83645   0.00000  Uiso   1.00
C1179  C     0.74500   0.37912   0.84629   0.00000  Uiso   1.00
C1180  C     0.77597   0.40284   0.86930   0.00000  Uiso   1.00
C1181  C     0.89652   0.55022   0.61815   0.00000  Uiso   1.00
C1182  C     0.89598   0.54700   0.97726   0.00000  Uiso   1.00
C1183  C     0.89069   0.59716   0.63070   0.00000  Uiso   1.00
C1184  C     0.92166   0.62088   0.65371   0.00000  Uiso   1.00
C1185  C     0.95882   0.59817   0.66355   0.00000  Uiso   1.00
C1186  C     0.96496   0.55161   0.65063   0.00000  Uiso   1.00
C1187  C     0.93379   0.52750   0.62831   0.00000  Uiso   1.00
C1188  C     0.68812   0.45947   0.73758   0.00000  Uiso   1.00
C1189  C     0.97855   0.54053   0.76242   0.00000  Uiso   1.00
C1190  C     0.97878   0.45923   0.73828   0.00000  Uiso   1.00
C1191  C     0.68789   0.54077   0.76172   0.00000  Uiso   1.00
C1192  C     0.95724   0.49982   0.75056   0.00000  Uiso   1.00
Cu1193 Cu    0.83333   0.54689   0.75000   0.00000  Uiso   1.00
Cu1194 Cu    0.83333   0.45311   0.75000   0.00000  Uiso   1.00
H1195  H     0.74634   0.43430   0.96046   0.00000  Uiso   1.00
H1196  H     0.88035   0.62297   0.79846   0.00000  Uiso   1.00
H1197  H     0.88026   0.37671   0.79856   0.00000  Uiso   1.00
H1198  H     0.78640   0.62329   0.70144   0.00000  Uiso   1.00
H1199  H     0.91124   0.53422   0.85271   0.00000  Uiso   1.00
H1200  H     0.75542   0.46578   0.64729   0.00000  Uiso   1.00
H1201  H     0.72793   0.50863   0.88135   0.00000  Uiso   1.00
H1202  H     0.67289   0.46590   0.84181   0.00000  Uiso   1.00
H1203  H     0.68383   0.38340   0.81879   0.00000  Uiso   1.00
H1204  H     0.74975   0.34309   0.83624   0.00000  Uiso   1.00
H1205  H     0.80455   0.38488   0.87706   0.00000  Uiso   1.00
H1206  H     0.92033   0.56570   0.53954   0.00000  Uiso   1.00
H1207  H     0.86211   0.61512   0.62293   0.00000  Uiso   1.00
H1208  H     0.91692   0.65691   0.66376   0.00000  Uiso   1.00
H1209  H     0.98284   0.61661   0.68121   0.00000  Uiso   1.00
H1210  H     0.99377   0.53410   0.65819   0.00000  Uiso   1.00
H1211  H     0.93874   0.49137   0.61865   0.00000  Uiso   1.00
H1212  H     0.74506   0.43576   0.53872   0.00000  Uiso   1.00
H1213  H     0.92161   0.56424   0.96128   0.00000  Uiso   1.00
H1214  H     0.70438   0.42789   0.72781   0.00000  Uiso   1.00
H1215  H     0.96228   0.57211   0.77219   0.00000  Uiso   1.00
H1216  H     0.96270   0.42757   0.72876   0.00000  Uiso   1.00
H1217  H     0.70396   0.57243   0.77123   0.00000  Uiso   1.00
H1218  H     0.78632   0.37703   0.70154   0.00000  Uiso   1.00
N1219  N     0.83333   0.61736   0.75000   0.00000  Uiso   1.00
N1220  N     0.83333   0.38264   0.75000   0.00000  Uiso   1.00
O1221  O     0.77321   0.53958   0.74999   0.00000  Uiso   1.00
O1222  O     0.76270   0.40796   0.61138   0.00000  Uiso   1.00
O1223  O     0.89345   0.46042   0.75000   0.00000  Uiso   1.00
O1224  O     0.89345   0.53958   0.75000   0.00000  Uiso   1.00
O1225  O     0.77321   0.46042   0.74999   0.00000  Uiso   1.00
O1226  O     0.83332   0.53960   0.68513   0.00000  Uiso   1.00
O1227  O     0.83334   0.46040   0.81487   0.00000  Uiso   1.00
O1228  O     0.83334   0.53960   0.81487   0.00000  Uiso   1.00
O1229  O     0.83332   0.46040   0.68513   0.00000  Uiso   1.00
O1230  O     0.90397   0.59203   0.88862   0.00000  Uiso   1.00
C1231  C     0.08736   0.83339   0.74972   0.00000  Uiso   1.00
C1232  C     0.04276   0.83352   0.74944   0.00000  Uiso   1.00
C1233  C     0.14057   0.69157   0.72307   0.00000  Uiso   1.00
C1234  C     0.19276   0.97510   0.77693   0.00000  Uiso   1.00
C1235  C     0.19274   0.69139   0.77696   0.00000  Uiso   1.00
C1236  C     0.14060   0.97528   0.72304   0.00000  Uiso   1.00
C1237  C     0.16667   0.83338   0.66454   0.00000  Uiso   1.00
C1238  C     0.16667   0.83329   0.83546   0.00000  Uiso   1.00
C1239  C     0.19766   0.85854   0.90650   0.00000  Uiso   1.00
C1240  C     0.13567   0.80813   0.59350   0.00000  Uiso   1.00
C1241  C     0.16707   0.83307   0.88372   0.00000  Uiso   1.00
C1242  C     0.24597   0.83327   0.75028   0.00000  Uiso   1.00
C1243  C     0.16626   0.83359   0.61627   0.00000  Uiso   1.00
C1244  C     0.13617   0.80830   0.90670   0.00000  Uiso   1.00
C1245  C     0.19716   0.85837   0.59330   0.00000  Uiso   1.00
C1246  C     0.13563   0.80905   0.95322   0.00000  Uiso   1.00
C1247  C     0.19770   0.85761   0.54678   0.00000  Uiso   1.00
C1248  C     0.16670   0.83348   0.97655   0.00000  Uiso   1.00
C1249  C     0.16663   0.83318   0.52345   0.00000  Uiso   1.00
C1250  C     0.19794   0.85800   0.95321   0.00000  Uiso   1.00
C1251  C     0.13539   0.80867   0.54679   0.00000  Uiso   1.00
C1252  C     0.10442   0.78603   0.97697   0.00000  Uiso   1.00
C1253  C     0.10402   0.78633   0.52274   0.00000  Uiso   1.00
C1254  C     0.22892   0.88063   0.52303   0.00000  Uiso   1.00
C1255  C     0.22951   0.88440   0.88062   0.00000  Uiso   1.00
C1256  C     0.10382   0.78226   0.61938   0.00000  Uiso   1.00
C1257  C     0.10348   0.78312   0.88185   0.00000  Uiso   1.00
C1258  C     0.06621   0.80583   0.87169   0.00000  Uiso   1.00
C1259  C     0.03504   0.78173   0.84937   0.00000  Uiso   1.00
C1260  C     0.04118   0.73517   0.83645   0.00000  Uiso   1.00
C1261  C     0.07834   0.71245   0.84629   0.00000  Uiso   1.00
C1262  C     0.10931   0.73618   0.86930   0.00000  Uiso   1.00
C1263  C     0.22986   0.88355   0.61815   0.00000  Uiso   1.00
C1264  C     0.22931   0.88034   0.97726   0.00000  Uiso   1.00
C1265  C     0.22403   0.93049   0.63070   0.00000  Uiso   1.00
C1266  C     0.25499   0.95422   0.65371   0.00000  Uiso   1.00
C1267  C     0.29215   0.93150   0.66355   0.00000  Uiso   1.00
C1268  C     0.29829   0.88494   0.65063   0.00000  Uiso   1.00
C1269  C     0.26712   0.86084   0.62831   0.00000  Uiso   1.00
C1270  C     0.02145   0.79280   0.73758   0.00000  Uiso   1.00
C1271  C     0.31188   0.87387   0.76242   0.00000  Uiso   1.00
C1272  C     0.31211   0.79257   0.73828   0.00000  Uiso   1.00
C1273  C     0.02122   0.87410   0.76172   0.00000  Uiso   1.00
C1274  C     0.29057   0.83315   0.75056   0.00000  Uiso   1.00
Cu1275 Cu    0.16667   0.88022   0.75000   0.00000  Uiso   1.00
Cu1276 Cu    0.16667   0.78645   0.75000   0.00000  Uiso   1.00
H1277  H     0.07967   0.76764   0.96046   0.00000  Uiso   1.00
H1278  H     0.21368   0.95630   0.79846   0.00000  Uiso   1.00
H1279  H     0.21360   0.71004   0.79856   0.00000  Uiso   1.00
H1280  H     0.11974   0.95663   0.70144   0.00000  Uiso   1.00
H1281  H     0.24458   0.86756   0.85271   0.00000  Uiso   1.00
H1282  H     0.08876   0.79911   0.64729   0.00000  Uiso   1.00
H1283  H     0.06126   0.84197   0.88135   0.00000  Uiso   1.00
H1284  H     0.00623   0.79924   0.84181   0.00000  Uiso   1.00
H1285  H     0.01716   0.71673   0.81879   0.00000  Uiso   1.00
H1286  H     0.08308   0.67643   0.83624   0.00000  Uiso   1.00
H1287  H     0.13789   0.71822   0.87706   0.00000  Uiso   1.00
H1288  H     0.25366   0.89903   0.53954   0.00000  Uiso   1.00
H1289  H     0.19545   0.94845   0.62293   0.00000  Uiso   1.00
H1290  H     0.25025   0.99024   0.66376   0.00000  Uiso   1.00
H1291  H     0.31617   0.94994   0.68121   0.00000  Uiso   1.00
H1292  H     0.32711   0.86743   0.65819   0.00000  Uiso   1.00
H1293  H     0.27207   0.82470   0.61865   0.00000  Uiso   1.00
H1294  H     0.07839   0.76910   0.53872   0.00000  Uiso   1.00
H1295  H     0.25494   0.89757   0.96128   0.00000  Uiso   1.00
H1296  H     0.03772   0.76122   0.72781   0.00000  Uiso   1.00
H1297  H     0.29562   0.90545   0.77219   0.00000  Uiso   1.00
H1298  H     0.29604   0.76090   0.72876   0.00000  Uiso   1.00
H1299  H     0.03730   0.90576   0.77123   0.00000  Uiso   1.00
H1300  H     0.11965   0.71036   0.70154   0.00000  Uiso   1.00
N1301  N     0.16667   0.95069   0.75000   0.00000  Uiso   1.00
N1302  N     0.16667   0.71598   0.75000   0.00000  Uiso   1.00
O1303  O     0.10655   0.87291   0.74999   0.00000  Uiso   1.00
O1304  O     0.09603   0.74130   0.61138   0.00000  Uiso   1.00
O1305  O     0.22679   0.79375   0.75000   0.00000  Uiso   1.00
O1306  O     0.22679   0.87291   0.75000   0.00000  Uiso   1.00
O1307  O     0.10655   0.79375   0.74999   0.00000  Uiso   1.00
O1308  O     0.16666   0.87293   0.68513   0.00000  Uiso   1.00
O1309  O     0.16668   0.79373   0.81487   0.00000  Uiso   1.00
O1310  O     0.16668   0.87293   0.81487   0.00000  Uiso   1.00
O1311  O     0.16666   0.79373   0.68513   0.00000  Uiso   1.00
O1312  O     0.23730   0.92537   0.88862   0.00000  Uiso   1.00
C1313  C     0.42070   0.83339   0.74972   0.00000  Uiso   1.00
C1314  C     0.37609   0.83352   0.74944   0.00000  Uiso   1.00
C1315  C     0.47391   0.69157   0.72307   0.00000  Uiso   1.00
C1316  C     0.52609   0.97510   0.77693   0.00000  Uiso   1.00
C1317  C     0.52607   0.69139   0.77696   0.00000  Uiso   1.00
C1318  C     0.47393   0.97528   0.72304   0.00000  Uiso   1.00
C1319  C     0.50000   0.83338   0.66454   0.00000  Uiso   1.00
C1320  C     0.50000   0.83329   0.83546   0.00000  Uiso   1.00
C1321  C     0.53100   0.85854   0.90650   0.00000  Uiso   1.00
C1322  C     0.46900   0.80813   0.59350   0.00000  Uiso   1.00
C1323  C     0.50041   0.83307   0.88372   0.00000  Uiso   1.00
C1324  C     0.57930   0.83327   0.75028   0.00000  Uiso   1.00
C1325  C     0.49959   0.83359   0.61627   0.00000  Uiso   1.00
C1326  C     0.46950   0.80830   0.90670   0.00000  Uiso   1.00
C1327  C     0.53050   0.85837   0.59330   0.00000  Uiso   1.00
C1328  C     0.46897   0.80905   0.95322   0.00000  Uiso   1.00
C1329  C     0.53103   0.85761   0.54678   0.00000  Uiso   1.00
C1330  C     0.50004   0.83348   0.97655   0.00000  Uiso   1.00
C1331  C     0.49996   0.83318   0.52345   0.00000  Uiso   1.00
C1332  C     0.53127   0.85800   0.95321   0.00000  Uiso   1.00
C1333  C     0.46873   0.80867   0.54679   0.00000  Uiso   1.00
C1334  C     0.43775   0.78603   0.97697   0.00000  Uiso   1.00
C1335  C     0.43735   0.78633   0.52274   0.00000  Uiso   1.00
C1336  C     0.56225   0.88063   0.52303   0.00000  Uiso   1.00
C1337  C     0.56284   0.88440   0.88062   0.00000  Uiso   1.00
C1338  C     0.43716   0.78226   0.61938   0.00000  Uiso   1.00
C1339  C     0.43681   0.78312   0.88185   0.00000  Uiso   1.00
C1340  C     0.39954   0.80583   0.87169   0.00000  Uiso   1.00
C1341  C     0.36837   0.78173   0.84937   0.00000  Uiso   1.00
C1342  C     0.37451   0.73517   0.83645   0.00000  Uiso   1.00
C1343  C     0.41167   0.71245   0.84629   0.00000  Uiso   1.00
C1344  C     0.44264   0.73618   0.86930   0.00000  Uiso   1.00
C1345  C     0.56319   0.88355   0.61815   0.00000  Uiso   1.00
C1346  C     0.56265   0.88034   0.97726   0.00000  Uiso   1.00
C1347  C     0.55736   0.93049   0.63070   0.00000  Uiso   1.00
C1348  C     0.58833   0.95422   0.65371   0.00000  Uiso   1.00
C1349  C     0.62548   0.93150   0.66355   0.00000  Uiso   1.00
C1350  C     0.63162   0.88494   0.65063   0.00000  Uiso   1.00
C1351  C     0.60046   0.86084   0.62831   0.00000  Uiso   1.00
C1352  C     0.35478   0.79280   0.73758   0.00000  Uiso   1.00
C1353  C     0.64522   0.87387   0.76242   0.00000  Uiso   1.00
C1354  C     0.64544   0.79257   0.73828   0.00000  Uiso   1.00
C1355  C     0.35456   0.87410   0.76172   0.00000  Uiso   1.00
C1356  C     0.62390   0.83315   0.75056   0.00000  Uiso   1.00
Cu1357 Cu    0.50000   0.88022   0.75000   0.00000  Uiso   1.00
Cu1358 Cu    0.50000   0.78645   0.75000   0.00000  Uiso   1.00
H1359  H     0.41300   0.76764   0.96046   0.00000  Uiso   1.00
H1360  H     0.54701   0.95630   0.79846   0.00000  Uiso   1.00
H1361  H     0.54693   0.71004   0.79856   0.00000  Uiso   1.00
H1362  H     0.45307   0.95663   0.70144   0.00000  Uiso   1.00
H1363  H     0.57791   0.86756   0.85271   0.00000  Uiso   1.00
H1364  H     0.42209   0.79911   0.64729   0.00000  Uiso   1.00
H1365  H     0.39460   0.84197   0.88135   0.00000  Uiso   1.00
H1366  H     0.33956   0.79924   0.84181   0.00000  Uiso   1.00
H1367  H     0.35049   0.71673   0.81879   0.00000  Uiso   1.00
H1368  H     0.41641   0.67643   0.83624   0.00000  Uiso   1.00
H1369  H     0.47122   0.71822   0.87706   0.00000  Uiso   1.00
H1370  H     0.58700   0.89903   0.53954   0.00000  Uiso   1.00
H1371  H     0.52878   0.94845   0.62293   0.00000  Uiso   1.00
H1372  H     0.58358   0.99024   0.66376   0.00000  Uiso   1.00
H1373  H     0.64950   0.94994   0.68121   0.00000  Uiso   1.00
H1374  H     0.66044   0.86743   0.65819   0.00000  Uiso   1.00
H1375  H     0.60540   0.82470   0.61865   0.00000  Uiso   1.00
H1376  H     0.41172   0.76910   0.53872   0.00000  Uiso   1.00
H1377  H     0.58828   0.89757   0.96128   0.00000  Uiso   1.00
H1378  H     0.37105   0.76122   0.72781   0.00000  Uiso   1.00
H1379  H     0.62895   0.90545   0.77219   0.00000  Uiso   1.00
H1380  H     0.62937   0.76090   0.72876   0.00000  Uiso   1.00
H1381  H     0.37063   0.90576   0.77123   0.00000  Uiso   1.00
H1382  H     0.45299   0.71036   0.70154   0.00000  Uiso   1.00
N1383  N     0.50000   0.95069   0.75000   0.00000  Uiso   1.00
N1384  N     0.50000   0.71598   0.75000   0.00000  Uiso   1.00
O1385  O     0.43988   0.87291   0.74999   0.00000  Uiso   1.00
O1386  O     0.42936   0.74130   0.61138   0.00000  Uiso   1.00
O1387  O     0.56012   0.79375   0.75000   0.00000  Uiso   1.00
O1388  O     0.56012   0.87291   0.75000   0.00000  Uiso   1.00
O1389  O     0.43988   0.79375   0.74999   0.00000  Uiso   1.00
O1390  O     0.49999   0.87293   0.68513   0.00000  Uiso   1.00
O1391  O     0.50001   0.79373   0.81487   0.00000  Uiso   1.00
O1392  O     0.50001   0.87293   0.81487   0.00000  Uiso   1.00
O1393  O     0.49999   0.79373   0.68513   0.00000  Uiso   1.00
O1394  O     0.57064   0.92537   0.88862   0.00000  Uiso   1.00
C1395  C     0.75403   0.83339   0.74972   0.00000  Uiso   1.00
C1396  C     0.70943   0.83352   0.74944   0.00000  Uiso   1.00
C1397  C     0.80724   0.69157   0.72307   0.00000  Uiso   1.00
C1398  C     0.85943   0.97510   0.77693   0.00000  Uiso   1.00
C1399  C     0.85940   0.69139   0.77696   0.00000  Uiso   1.00
C1400  C     0.80726   0.97528   0.72304   0.00000  Uiso   1.00
C1401  C     0.83333   0.83338   0.66454   0.00000  Uiso   1.00
C1402  C     0.83333   0.83329   0.83546   0.00000  Uiso   1.00
C1403  C     0.86433   0.85854   0.90650   0.00000  Uiso   1.00
C1404  C     0.80234   0.80813   0.59350   0.00000  Uiso   1.00
C1405  C     0.83374   0.83307   0.88372   0.00000  Uiso   1.00
C1406  C     0.91264   0.83327   0.75028   0.00000  Uiso   1.00
C1407  C     0.83293   0.83359   0.61627   0.00000  Uiso   1.00
C1408  C     0.80284   0.80830   0.90670   0.00000  Uiso   1.00
C1409  C     0.86383   0.85837   0.59330   0.00000  Uiso   1.00
C1410  C     0.80230   0.80905   0.95322   0.00000  Uiso   1.00
C1411  C     0.86437   0.85761   0.54678   0.00000  Uiso   1.00
C1412  C     0.83337   0.83348   0.97655   0.00000  Uiso   1.00
C1413  C     0.83330   0.83318   0.52345   0.00000  Uiso   1.00
C1414  C     0.86461   0.85800   0.95321   0.00000  Uiso   1.00
C1415  C     0.80206   0.80867   0.54679   0.00000  Uiso   1.00
C1416  C     0.77108   0.78603   0.97697   0.00000  Uiso   1.00
C1417  C     0.77069   0.78633   0.52274   0.00000  Uiso   1.00
C1418  C     0.89558   0.88063   0.52303   0.00000  Uiso   1.00
C1419  C     0.89618   0.88440   0.88062   0.00000  Uiso   1.00
C1420  C     0.77049   0.78226   0.61938   0.00000  Uiso   1.00
C1421  C     0.77014   0.78312   0.88185   0.00000  Uiso   1.00
C1422  C     0.73287   0.80583   0.87169   0.00000  Uiso   1.00
C1423  C     0.70171   0.78173   0.84937   0.00000  Uiso   1.00
C1424  C     0.70785   0.73517   0.83645   0.00000  Uiso   1.00
C1425  C     0.74500   0.71245   0.84629   0.00000  Uiso   1.00
C1426  C     0.77597   0.73618   0.86930   0.00000  Uiso   1.00
C1427  C     0.89652   0.88355   0.61815   0.00000  Uiso   1.00
C1428  C     0.89598   0.88034   0.97726   0.00000  Uiso   1.00
C1429  C     0.89069   0.93049   0.63070   0.00000  Uiso   1.00
C1430  C     0.92166   0.95422   0.65371   0.00000  Uiso   1.00
C1431  C     0.95882   0.93150   0.66355   0.00000  Uiso   1.00
C1432  C     0.96496   0.88494   0.65063   0.00000  Uiso   1.00
C1433  C     0.93379   0.86084   0.62831   0.00000  Uiso   1.00
C1434  C     0.68812   0.79280   0.73758   0.00000  Uiso   1.00
C1435  C     0.97855   0.87387   0.76242   0.00000  Uiso   1.00
C1436  C     0.97878   0.79257   0.73828   0.00000  Uiso   1.00
C1437  C     0.68789   0.87410   0.76172   0.00000  Uiso   1.00
C1438  C     0.95724   0.83315   0.75056   0.00000  Uiso   1.00
Cu1439 Cu    0.83333   0.88022   0.75000   0.00000  Uiso   1.00
Cu1440 Cu    0.83333   0.78645   0.75000   0.00000  Uiso   1.00
H1441  H     0.74634   0.76764   0.96046   0.00000  Uiso   1.00
H1442  H     0.88035   0.95630   0.79846   0.00000  Uiso   1.00
H1443  H     0.88026   0.71004   0.79856   0.00000  Uiso   1.00
H1444  H     0.78640   0.95663   0.70144   0.00000  Uiso   1.00
H1445  H     0.91124   0.86756   0.85271   0.00000  Uiso   1.00
H1446  H     0.75542   0.79911   0.64729   0.00000  Uiso   1.00
H1447  H     0.72793   0.84197   0.88135   0.00000  Uiso   1.00
H1448  H     0.67289   0.79924   0.84181   0.00000  Uiso   1.00
H1449  H     0.68383   0.71673   0.81879   0.00000  Uiso   1.00
H1450  H     0.74975   0.67643   0.83624   0.00000  Uiso   1.00
H1451  H     0.80455   0.71822   0.87706   0.00000  Uiso   1.00
H1452  H     0.92033   0.89903   0.53954   0.00000  Uiso   1.00
H1453  H     0.86211   0.94845   0.62293   0.00000  Uiso   1.00
H1454  H     0.91692   0.99024   0.66376   0.00000  Uiso   1.00
H1455  H     0.98284   0.94994   0.68121   0.00000  Uiso   1.00
H1456  H     0.99377   0.86743   0.65819   0.00000  Uiso   1.00
H1457  H     0.93874   0.82470   0.61865   0.00000  Uiso   1.00
H1458  H     0.74506   0.76910   0.53872   0.00000  Uiso   1.00
H1459  H     0.92161   0.89757   0.96128   0.00000  Uiso   1.00
H1460  H     0.70438   0.76122   0.72781   0.00000  Uiso   1.00
H1461  H     0.96228   0.90545   0.77219   0.00000  Uiso   1.00
H1462  H     0.96270   0.76090   0.72876   0.00000  Uiso   1.00
H1463  H     0.70396   0.90576   0.77123   0.00000  Uiso   1.00
H1464  H     0.78632   0.71036   0.70154   0.00000  Uiso   1.00
N1465  N     0.83333   0.95069   0.75000   0.00000  Uiso   1.00
N1466  N     0.83333   0.71598   0.75000   0.00000  Uiso   1.00
O1467  O     0.77321   0.87291   0.74999   0.00000  Uiso   1.00
O1468  O     0.76270   0.74130   0.61138   0.00000  Uiso   1.00
O1469  O     0.89345   0.79375   0.75000   0.00000  Uiso   1.00
O1470  O     0.89345   0.87291   0.75000   0.00000  Uiso   1.00
O1471  O     0.77321   0.79375   0.74999   0.00000  Uiso   1.00
O1472  O     0.83332   0.87293   0.68513   0.00000  Uiso   1.00
O1473  O     0.83334   0.79373   0.81487   0.00000  Uiso   1.00
O1474  O     0.83334   0.87293   0.81487   0.00000  Uiso   1.00
O1475  O     0.83332   0.79373   0.68513   0.00000  Uiso   1.00
O1476  O     0.90397   0.92537   0.88862   0.00000  Uiso   1.00
loop_
_geom_bond_atom_site_label_1
_geom_bond_atom_site_label_2
_geom_bond_distance
_geom_bond_site_symmetry_2
_ccdc_geom_bond_type
C1     O77     1.289   .     A
C1     C2      1.445   .     S
C1     O73     1.289   .     A
C2     C43     1.400   .     A
C2     C40     1.400   .     A
C3     H70     1.082   .     S
C3     N72     1.367   .     A
C3     C498    1.416   1_545 S
C4     H48     1.082   .     S
C4     N71     1.367   .     A
C4     C251    1.416   .     S
C5     N72     1.367   .     A
C5     H49     1.082   .     S
C5     C496    1.416   1_545 S
C6     N71     1.367   .     A
C6     H50     1.082   .     S
C6     C249    1.416   .     S
C7     O78     1.289   .     A
C7     O81     1.291   .     A
C7     C13     1.459   .     S
C8     O79     1.289   .     A
C8     C11     1.459   .     S
C8     O80     1.291   .     A
C9     C25     1.491   .     S
C9     C20     1.412   .     A
C9     C11     1.411   .     A
C10    C26     1.491   .     S
C10    C21     1.412   .     A
C10    C13     1.411   .     A
C11    C14     1.409   .     A
C12    O76     1.289   .     A
C12    C44     1.445   .     S
C12    O75     1.289   .     A
C13    C15     1.409   .     A
C14    C27     1.487   .     S
C14    C16     1.406   .     A
C15    C17     1.406   .     A
C15    C33     1.487   .     S
C16    C18     1.415   .     A
C16    C22     1.404   .     A
C17    C24     1.404   .     A
C17    C19     1.415   .     A
C18    C20     1.419   .     A
C18    C757    1.418   .     S
C19    C21     1.419   .     A
C19    C756    1.418   1_554 S
C20    C34     1.405   .     A
C21    C23     1.405   .     A
C22    H47     1.082   .     S
C22    C761    1.383   .     S
C23    H64     1.080   .     S
C23    C760    1.383   1_554 S
C24    H58     1.082   .     S
C24    C772    1.383   1_554 S
C25    H51     1.086   .     S
C25    O82     1.221   .     D
C26    H52     1.086   .     S
C26    O74     1.221   .     D
C27    C32     1.404   .     A
C27    C28     1.403   .     A
C28    C29     1.398   .     A
C28    H53     1.083   .     S
C29    C30     1.398   .     A
C29    H54     1.082   .     S
C30    C31     1.398   .     A
C30    H55     1.082   .     S
C31    C32     1.398   .     A
C31    H56     1.083   .     S
C32    H57     1.083   .     S
C33    C35     1.404   .     A
C33    C39     1.403   .     A
C34    H65     1.080   .     S
C34    C762    1.383   .     S
C35    C36     1.398   .     A
C35    H59     1.083   .     S
C36    C37     1.398   .     A
C36    H60     1.082   .     S
C37    C38     1.398   .     A
C37    H61     1.082   .     S
C38    C39     1.398   .     A
C38    H62     1.082   .     S
C39    H63     1.083   .     S
C40    H66     1.083   .     S
C40    C206    1.383   1_455 S
C41    H67     1.083   .     S
C41    C44     1.400   .     A
C41    C125    1.383   .     S
C42    H68     1.083   .     S
C42    C44     1.400   .     A
C42    C122    1.383   .     S
C43    H69     1.083   .     S
C43    C205    1.383   1_455 S
Cu45   N71     2.011   .     S
Cu45   Cu46    2.676   .     S
Cu45   O76     1.959   .     S
Cu45   O73     1.960   .     S
Cu45   O78     1.972   .     S
Cu45   O80     1.972   .     S
Cu46   O79     1.972   .     S
Cu46   N72     2.011   .     S
Cu46   O75     1.960   .     S
Cu46   O81     1.972   .     S
Cu46   O77     1.959   .     S
C83    O159    1.289   .     A
C83    C84     1.445   .     S
C83    O155    1.289   .     A
C84    C125    1.400   .     A
C84    C122    1.400   .     A
C85    H152    1.082   .     S
C85    N154    1.367   .     A
C85    C580    1.416   1_545 S
C86    H130    1.082   .     S
C86    N153    1.367   .     A
C86    C333    1.416   .     S
C87    N154    1.367   .     A
C87    H131    1.082   .     S
C87    C578    1.416   1_545 S
C88    N153    1.367   .     A
C88    H132    1.082   .     S
C88    C331    1.416   .     S
C89    O160    1.289   .     A
C89    O163    1.291   .     A
C89    C95     1.459   .     S
C90    O161    1.289   .     A
C90    C93     1.459   .     S
C90    O162    1.291   .     A
C91    C107    1.491   .     S
C91    C102    1.412   .     A
C91    C93     1.411   .     A
C92    C108    1.491   .     S
C92    C103    1.412   .     A
C92    C95     1.411   .     A
C93    C96     1.409   .     A
C94    O158    1.289   .     A
C94    C126    1.445   .     S
C94    O157    1.289   .     A
C95    C97     1.409   .     A
C96    C109    1.487   .     S
C96    C98     1.406   .     A
C97    C99     1.406   .     A
C97    C115    1.487   .     S
C98    C100    1.415   .     A
C98    C104    1.404   .     A
C99    C106    1.404   .     A
C99    C101    1.415   .     A
C100   C102    1.419   .     A
C100   C839    1.418   .     S
C101   C103    1.419   .     A
C101   C838    1.418   1_554 S
C102   C116    1.405   .     A
C103   C105    1.405   .     A
C104   H129    1.082   .     S
C104   C843    1.383   .     S
C105   H146    1.080   .     S
C105   C842    1.383   1_554 S
C106   H140    1.082   .     S
C106   C854    1.383   1_554 S
C107   H133    1.086   .     S
C107   O164    1.221   .     D
C108   H134    1.086   .     S
C108   O156    1.221   .     D
C109   C114    1.404   .     A
C109   C110    1.403   .     A
C110   C111    1.398   .     A
C110   H135    1.083   .     S
C111   C112    1.398   .     A
C111   H136    1.082   .     S
C112   C113    1.398   .     A
C112   H137    1.082   .     S
C113   C114    1.398   .     A
C113   H138    1.083   .     S
C114   H139    1.083   .     S
C115   C117    1.404   .     A
C115   C121    1.403   .     A
C116   H147    1.080   .     S
C116   C844    1.383   .     S
C117   C118    1.398   .     A
C117   H141    1.083   .     S
C118   C119    1.398   .     A
C118   H142    1.082   .     S
C119   C120    1.398   .     A
C119   H143    1.082   .     S
C120   C121    1.398   .     A
C120   H144    1.082   .     S
C121   H145    1.083   .     S
C122   H148    1.083   .     S
C123   H149    1.083   .     S
C123   C126    1.400   .     A
C123   C207    1.383   .     S
C124   H150    1.083   .     S
C124   C126    1.400   .     A
C124   C204    1.383   .     S
C125   H151    1.083   .     S
Cu127  N153    2.011   .     S
Cu127  Cu128   2.676   .     S
Cu127  O158    1.959   .     S
Cu127  O155    1.960   .     S
Cu127  O160    1.972   .     S
Cu127  O162    1.972   .     S
Cu128  O161    1.972   .     S
Cu128  N154    2.011   .     S
Cu128  O157    1.960   .     S
Cu128  O163    1.972   .     S
Cu128  O159    1.959   .     S
C165   O241    1.289   .     A
C165   C166    1.445   .     S
C165   O237    1.289   .     A
C166   C207    1.400   .     A
C166   C204    1.400   .     A
C167   H234    1.082   .     S
C167   N236    1.367   .     A
C167   C662    1.416   1_545 S
C168   H212    1.082   .     S
C168   N235    1.367   .     A
C168   C415    1.416   .     S
C169   N236    1.367   .     A
C169   H213    1.082   .     S
C169   C660    1.416   1_545 S
C170   N235    1.367   .     A
C170   H214    1.082   .     S
C170   C413    1.416   .     S
C171   O242    1.289   .     A
C171   O245    1.291   .     A
C171   C177    1.459   .     S
C172   O243    1.289   .     A
C172   C175    1.459   .     S
C172   O244    1.291   .     A
C173   C189    1.491   .     S
C173   C184    1.412   .     A
C173   C175    1.411   .     A
C174   C190    1.491   .     S
C174   C185    1.412   .     A
C174   C177    1.411   .     A
C175   C178    1.409   .     A
C176   O240    1.289   .     A
C176   C208    1.445   .     S
C176   O239    1.289   .     A
C177   C179    1.409   .     A
C178   C191    1.487   .     S
C178   C180    1.406   .     A
C179   C181    1.406   .     A
C179   C197    1.487   .     S
C180   C182    1.415   .     A
C180   C186    1.404   .     A
C181   C188    1.404   .     A
C181   C183    1.415   .     A
C182   C184    1.419   .     A
C182   C921    1.418   .     S
C183   C185    1.419   .     A
C183   C920    1.418   1_554 S
C184   C198    1.405   .     A
C185   C187    1.405   .     A
C186   H211    1.082   .     S
C186   C925    1.383   .     S
C187   H228    1.080   .     S
C187   C924    1.383   1_554 S
C188   H222    1.082   .     S
C188   C936    1.383   1_554 S
C189   H215    1.086   .     S
C189   O246    1.221   .     D
C190   H216    1.086   .     S
C190   O238    1.221   .     D
C191   C196    1.404   .     A
C191   C192    1.403   .     A
C192   C193    1.398   .     A
C192   H217    1.083   .     S
C193   C194    1.398   .     A
C193   H218    1.082   .     S
C194   C195    1.398   .     A
C194   H219    1.082   .     S
C195   C196    1.398   .     A
C195   H220    1.083   .     S
C196   H221    1.083   .     S
C197   C199    1.404   .     A
C197   C203    1.403   .     A
C198   H229    1.080   .     S
C198   C926    1.383   .     S
C199   C200    1.398   .     A
C199   H223    1.083   .     S
C200   C201    1.398   .     A
C200   H224    1.082   .     S
C201   C202    1.398   .     A
C201   H225    1.082   .     S
C202   C203    1.398   .     A
C202   H226    1.082   .     S
C203   H227    1.083   .     S
C204   H230    1.083   .     S
C205   H231    1.083   .     S
C205   C208    1.400   .     A
C205   C43     1.383   1_655 S
C206   H232    1.083   .     S
C206   C208    1.400   .     A
C206   C40     1.383   1_655 S
C207   H233    1.083   .     S
Cu209  N235    2.011   .     S
Cu209  Cu210   2.676   .     S
Cu209  O240    1.959   .     S
Cu209  O237    1.960   .     S
Cu209  O242    1.972   .     S
Cu209  O244    1.972   .     S
Cu210  O243    1.972   .     S
Cu210  N236    2.011   .     S
Cu210  O239    1.960   .     S
Cu210  O245    1.972   .     S
Cu210  O241    1.959   .     S
C247   O323    1.289   .     A
C247   C248    1.445   .     S
C247   O319    1.289   .     A
C248   C289    1.400   .     A
C248   C286    1.400   .     A
C249   H316    1.082   .     S
C249   N318    1.367   .     A
C250   H294    1.082   .     S
C250   N317    1.367   .     A
C250   C497    1.416   .     S
C251   N318    1.367   .     A
C251   H295    1.082   .     S
C252   N317    1.367   .     A
C252   H296    1.082   .     S
C252   C495    1.416   .     S
C253   O324    1.289   .     A
C253   O327    1.291   .     A
C253   C259    1.459   .     S
C254   O325    1.289   .     A
C254   C257    1.459   .     S
C254   O326    1.291   .     A
C255   C271    1.491   .     S
C255   C266    1.412   .     A
C255   C257    1.411   .     A
C256   C272    1.491   .     S
C256   C267    1.412   .     A
C256   C259    1.411   .     A
C257   C260    1.409   .     A
C258   O322    1.289   .     A
C258   C290    1.445   .     S
C258   O321    1.289   .     A
C259   C261    1.409   .     A
C260   C273    1.487   .     S
C260   C262    1.406   .     A
C261   C263    1.406   .     A
C261   C279    1.487   .     S
C262   C264    1.415   .     A
C262   C268    1.404   .     A
C263   C270    1.404   .     A
C263   C265    1.415   .     A
C264   C266    1.419   .     A
C264   C1003   1.418   .     S
C265   C267    1.419   .     A
C265   C1002   1.418   1_554 S
C266   C280    1.405   .     A
C267   C269    1.405   .     A
C268   H293    1.082   .     S
C268   C1007   1.383   .     S
C269   H310    1.080   .     S
C269   C1006   1.383   1_554 S
C270   H304    1.082   .     S
C270   C1018   1.383   1_554 S
C271   H297    1.086   .     S
C271   O328    1.221   .     D
C272   H298    1.086   .     S
C272   O320    1.221   .     D
C273   C278    1.404   .     A
C273   C274    1.403   .     A
C274   C275    1.398   .     A
C274   H299    1.083   .     S
C275   C276    1.398   .     A
C275   H300    1.082   .     S
C276   C277    1.398   .     A
C276   H301    1.082   .     S
C277   C278    1.398   .     A
C277   H302    1.083   .     S
C278   H303    1.083   .     S
C279   C281    1.404   .     A
C279   C285    1.403   .     A
C280   H311    1.080   .     S
C280   C1008   1.383   .     S
C281   C282    1.398   .     A
C281   H305    1.083   .     S
C282   C283    1.398   .     A
C282   H306    1.082   .     S
C283   C284    1.398   .     A
C283   H307    1.082   .     S
C284   C285    1.398   .     A
C284   H308    1.082   .     S
C285   H309    1.083   .     S
C286   H312    1.083   .     S
C286   C452    1.383   1_455 S
C287   H313    1.083   .     S
C287   C290    1.400   .     A
C287   C371    1.383   .     S
C288   H314    1.083   .     S
C288   C290    1.400   .     A
C288   C368    1.383   .     S
C289   H315    1.083   .     S
C289   C451    1.383   1_455 S
Cu291  N317    2.011   .     S
Cu291  Cu292   2.676   .     S
Cu291  O322    1.959   .     S
Cu291  O319    1.960   .     S
Cu291  O324    1.972   .     S
Cu291  O326    1.972   .     S
Cu292  O325    1.972   .     S
Cu292  N318    2.011   .     S
Cu292  O321    1.960   .     S
Cu292  O327    1.972   .     S
Cu292  O323    1.959   .     S
C329   O405    1.289   .     A
C329   C330    1.445   .     S
C329   O401    1.289   .     A
C330   C371    1.400   .     A
C330   C368    1.400   .     A
C331   H398    1.082   .     S
C331   N400    1.367   .     A
C332   H376    1.082   .     S
C332   N399    1.367   .     A
C332   C579    1.416   .     S
C333   N400    1.367   .     A
C333   H377    1.082   .     S
C334   N399    1.367   .     A
C334   H378    1.082   .     S
C334   C577    1.416   .     S
C335   O406    1.289   .     A
C335   O409    1.291   .     A
C335   C341    1.459   .     S
C336   O407    1.289   .     A
C336   C339    1.459   .     S
C336   O408    1.291   .     A
C337   C353    1.491   .     S
C337   C348    1.412   .     A
C337   C339    1.411   .     A
C338   C354    1.491   .     S
C338   C349    1.412   .     A
C338   C341    1.411   .     A
C339   C342    1.409   .     A
C340   O404    1.289   .     A
C340   C372    1.445   .     S
C340   O403    1.289   .     A
C341   C343    1.409   .     A
C342   C355    1.487   .     S
C342   C344    1.406   .     A
C343   C345    1.406   .     A
C343   C361    1.487   .     S
C344   C346    1.415   .     A
C344   C350    1.404   .     A
C345   C352    1.404   .     A
C345   C347    1.415   .     A
C346   C348    1.419   .     A
C346   C1085   1.418   .     S
C347   C349    1.419   .     A
C347   C1084   1.418   1_554 S
C348   C362    1.405   .     A
C349   C351    1.405   .     A
C350   H375    1.082   .     S
C350   C1089   1.383   .     S
C351   H392    1.080   .     S
C351   C1088   1.383   1_554 S
C352   H386    1.082   .     S
C352   C1100   1.383   1_554 S
C353   H379    1.086   .     S
C353   O410    1.221   .     D
C354   H380    1.086   .     S
C354   O402    1.221   .     D
C355   C360    1.404   .     A
C355   C356    1.403   .     A
C356   C357    1.398   .     A
C356   H381    1.083   .     S
C357   C358    1.398   .     A
C357   H382    1.082   .     S
C358   C359    1.398   .     A
C358   H383    1.082   .     S
C359   C360    1.398   .     A
C359   H384    1.083   .     S
C360   H385    1.083   .     S
C361   C363    1.404   .     A
C361   C367    1.403   .     A
C362   H393    1.080   .     S
C362   C1090   1.383   .     S
C363   C364    1.398   .     A
C363   H387    1.083   .     S
C364   C365    1.398   .     A
C364   H388    1.082   .     S
C365   C366    1.398   .     A
C365   H389    1.082   .     S
C366   C367    1.398   .     A
C366   H390    1.082   .     S
C367   H391    1.083   .     S
C368   H394    1.083   .     S
C369   H395    1.083   .     S
C369   C372    1.400   .     A
C369   C453    1.383   .     S
C370   H396    1.083   .     S
C370   C372    1.400   .     A
C370   C450    1.383   .     S
C371   H397    1.083   .     S
Cu373  N399    2.011   .     S
Cu373  Cu374   2.676   .     S
Cu373  O404    1.959   .     S
Cu373  O401    1.960   .     S
Cu373  O406    1.972   .     S
Cu373  O408    1.972   .     S
Cu374  O407    1.972   .     S
Cu374  N400    2.011   .     S
Cu374  O403    1.960   .     S
Cu374  O409    1.972   .     S
Cu374  O405    1.959   .     S
C411   O487    1.289   .     A
C411   C412    1.445   .     S
C411   O483    1.289   .     A
C412   C453    1.400   .     A
C412   C450    1.400   .     A
C413   H480    1.082   .     S
C413   N482    1.367   .     A
C414   H458    1.082   .     S
C414   N481    1.367   .     A
C414   C661    1.416   .     S
C415   N482    1.367   .     A
C415   H459    1.082   .     S
C416   N481    1.367   .     A
C416   H460    1.082   .     S
C416   C659    1.416   .     S
C417   O488    1.289   .     A
C417   O491    1.291   .     A
C417   C423    1.459   .     S
C418   O489    1.289   .     A
C418   C421    1.459   .     S
C418   O490    1.291   .     A
C419   C435    1.491   .     S
C419   C430    1.412   .     A
C419   C421    1.411   .     A
C420   C436    1.491   .     S
C420   C431    1.412   .     A
C420   C423    1.411   .     A
C421   C424    1.409   .     A
C422   O486    1.289   .     A
C422   C454    1.445   .     S
C422   O485    1.289   .     A
C423   C425    1.409   .     A
C424   C437    1.487   .     S
C424   C426    1.406   .     A
C425   C427    1.406   .     A
C425   C443    1.487   .     S
C426   C428    1.415   .     A
C426   C432    1.404   .     A
C427   C434    1.404   .     A
C427   C429    1.415   .     A
C428   C430    1.419   .     A
C428   C1167   1.418   .     S
C429   C431    1.419   .     A
C429   C1166   1.418   1_554 S
C430   C444    1.405   .     A
C431   C433    1.405   .     A
C432   H457    1.082   .     S
C432   C1171   1.383   .     S
C433   H474    1.080   .     S
C433   C1170   1.383   1_554 S
C434   H468    1.082   .     S
C434   C1182   1.383   1_554 S
C435   H461    1.086   .     S
C435   O492    1.221   .     D
C436   H462    1.086   .     S
C436   O484    1.221   .     D
C437   C442    1.404   .     A
C437   C438    1.403   .     A
C438   C439    1.398   .     A
C438   H463    1.083   .     S
C439   C440    1.398   .     A
C439   H464    1.082   .     S
C440   C441    1.398   .     A
C440   H465    1.082   .     S
C441   C442    1.398   .     A
C441   H466    1.083   .     S
C442   H467    1.083   .     S
C443   C445    1.404   .     A
C443   C449    1.403   .     A
C444   H475    1.080   .     S
C444   C1172   1.383   .     S
C445   C446    1.398   .     A
C445   H469    1.083   .     S
C446   C447    1.398   .     A
C446   H470    1.082   .     S
C447   C448    1.398   .     A
C447   H471    1.082   .     S
C448   C449    1.398   .     A
C448   H472    1.082   .     S
C449   H473    1.083   .     S
C450   H476    1.083   .     S
C451   H477    1.083   .     S
C451   C454    1.400   .     A
C451   C289    1.383   1_655 S
C452   H478    1.083   .     S
C452   C454    1.400   .     A
C452   C286    1.383   1_655 S
C453   H479    1.083   .     S
Cu455  N481    2.011   .     S
Cu455  Cu456   2.676   .     S
Cu455  O486    1.959   .     S
Cu455  O483    1.960   .     S
Cu455  O488    1.972   .     S
Cu455  O490    1.972   .     S
Cu456  O489    1.972   .     S
Cu456  N482    2.011   .     S
Cu456  O485    1.960   .     S
Cu456  O491    1.972   .     S
Cu456  O487    1.959   .     S
C493   O569    1.289   .     A
C493   C494    1.445   .     S
C493   O565    1.289   .     A
C494   C535    1.400   .     A
C494   C532    1.400   .     A
C495   H562    1.082   .     S
C495   N564    1.367   .     A
C496   H540    1.082   .     S
C496   N563    1.367   .     A
C496   C5      1.416   1_565 S
C497   N564    1.367   .     A
C497   H541    1.082   .     S
C498   N563    1.367   .     A
C498   H542    1.082   .     S
C498   C3      1.416   1_565 S
C499   O570    1.289   .     A
C499   O573    1.291   .     A
C499   C505    1.459   .     S
C500   O571    1.289   .     A
C500   C503    1.459   .     S
C500   O572    1.291   .     A
C501   C517    1.491   .     S
C501   C512    1.412   .     A
C501   C503    1.411   .     A
C502   C518    1.491   .     S
C502   C513    1.412   .     A
C502   C505    1.411   .     A
C503   C506    1.409   .     A
C504   O568    1.289   .     A
C504   C536    1.445   .     S
C504   O567    1.289   .     A
C505   C507    1.409   .     A
C506   C519    1.487   .     S
C506   C508    1.406   .     A
C507   C509    1.406   .     A
C507   C525    1.487   .     S
C508   C510    1.415   .     A
C508   C514    1.404   .     A
C509   C516    1.404   .     A
C509   C511    1.415   .     A
C510   C512    1.419   .     A
C510   C1249   1.418   .     S
C511   C513    1.419   .     A
C511   C1248   1.418   1_554 S
C512   C526    1.405   .     A
C513   C515    1.405   .     A
C514   H539    1.082   .     S
C514   C1253   1.383   .     S
C515   H556    1.080   .     S
C515   C1252   1.383   1_554 S
C516   H550    1.082   .     S
C516   C1264   1.383   1_554 S
C517   H543    1.086   .     S
C517   O574    1.221   .     D
C518   H544    1.086   .     S
C518   O566    1.221   .     D
C519   C524    1.404   .     A
C519   C520    1.403   .     A
C520   C521    1.398   .     A
C520   H545    1.083   .     S
C521   C522    1.398   .     A
C521   H546    1.082   .     S
C522   C523    1.398   .     A
C522   H547    1.082   .     S
C523   C524    1.398   .     A
C523   H548    1.083   .     S
C524   H549    1.083   .     S
C525   C527    1.404   .     A
C525   C531    1.403   .     A
C526   H557    1.080   .     S
C526   C1254   1.383   .     S
C527   C528    1.398   .     A
C527   H551    1.083   .     S
C528   C529    1.398   .     A
C528   H552    1.082   .     S
C529   C530    1.398   .     A
C529   H553    1.082   .     S
C530   C531    1.398   .     A
C530   H554    1.082   .     S
C531   H555    1.083   .     S
C532   H558    1.083   .     S
C532   C698    1.383   1_455 S
C533   H559    1.083   .     S
C533   C536    1.400   .     A
C533   C617    1.383   .     S
C534   H560    1.083   .     S
C534   C536    1.400   .     A
C534   C614    1.383   .     S
C535   H561    1.083   .     S
C535   C697    1.383   1_455 S
Cu537  N563    2.011   .     S
Cu537  Cu538   2.676   .     S
Cu537  O568    1.959   .     S
Cu537  O565    1.960   .     S
Cu537  O570    1.972   .     S
Cu537  O572    1.972   .     S
Cu538  O571    1.972   .     S
Cu538  N564    2.011   .     S
Cu538  O567    1.960   .     S
Cu538  O573    1.972   .     S
Cu538  O569    1.959   .     S
C575   O651    1.289   .     A
C575   C576    1.445   .     S
C575   O647    1.289   .     A
C576   C617    1.400   .     A
C576   C614    1.400   .     A
C577   H644    1.082   .     S
C577   N646    1.367   .     A
C578   H622    1.082   .     S
C578   N645    1.367   .     A
C578   C87     1.416   1_565 S
C579   N646    1.367   .     A
C579   H623    1.082   .     S
C580   N645    1.367   .     A
C580   H624    1.082   .     S
C580   C85     1.416   1_565 S
C581   O652    1.289   .     A
C581   O655    1.291   .     A
C581   C587    1.459   .     S
C582   O653    1.289   .     A
C582   C585    1.459   .     S
C582   O654    1.291   .     A
C583   C599    1.491   .     S
C583   C594    1.412   .     A
C583   C585    1.411   .     A
C584   C600    1.491   .     S
C584   C595    1.412   .     A
C584   C587    1.411   .     A
C585   C588    1.409   .     A
C586   O650    1.289   .     A
C586   C618    1.445   .     S
C586   O649    1.289   .     A
C587   C589    1.409   .     A
C588   C601    1.487   .     S
C588   C590    1.406   .     A
C589   C591    1.406   .     A
C589   C607    1.487   .     S
C590   C592    1.415   .     A
C590   C596    1.404   .     A
C591   C598    1.404   .     A
C591   C593    1.415   .     A
C592   C594    1.419   .     A
C592   C1331   1.418   .     S
C593   C595    1.419   .     A
C593   C1330   1.418   1_554 S
C594   C608    1.405   .     A
C595   C597    1.405   .     A
C596   H621    1.082   .     S
C596   C1335   1.383   .     S
C597   H638    1.080   .     S
C597   C1334   1.383   1_554 S
C598   H632    1.082   .     S
C598   C1346   1.383   1_554 S
C599   H625    1.086   .     S
C599   O656    1.221   .     D
C600   H626    1.086   .     S
C600   O648    1.221   .     D
C601   C606    1.404   .     A
C601   C602    1.403   .     A
C602   C603    1.398   .     A
C602   H627    1.083   .     S
C603   C604    1.398   .     A
C603   H628    1.082   .     S
C604   C605    1.398   .     A
C604   H629    1.082   .     S
C605   C606    1.398   .     A
C605   H630    1.083   .     S
C606   H631    1.083   .     S
C607   C609    1.404   .     A
C607   C613    1.403   .     A
C608   H639    1.080   .     S
C608   C1336   1.383   .     S
C609   C610    1.398   .     A
C609   H633    1.083   .     S
C610   C611    1.398   .     A
C610   H634    1.082   .     S
C611   C612    1.398   .     A
C611   H635    1.082   .     S
C612   C613    1.398   .     A
C612   H636    1.082   .     S
C613   H637    1.083   .     S
C614   H640    1.083   .     S
C615   H641    1.083   .     S
C615   C618    1.400   .     A
C615   C699    1.383   .     S
C616   H642    1.083   .     S
C616   C618    1.400   .     A
C616   C696    1.383   .     S
C617   H643    1.083   .     S
Cu619  N645    2.011   .     S
Cu619  Cu620   2.676   .     S
Cu619  O650    1.959   .     S
Cu619  O647    1.960   .     S
Cu619  O652    1.972   .     S
Cu619  O654    1.972   .     S
Cu620  O653    1.972   .     S
Cu620  N646    2.011   .     S
Cu620  O649    1.960   .     S
Cu620  O655    1.972   .     S
Cu620  O651    1.959   .     S
C657   O733    1.289   .     A
C657   C658    1.445   .     S
C657   O729    1.289   .     A
C658   C699    1.400   .     A
C658   C696    1.400   .     A
C659   H726    1.082   .     S
C659   N728    1.367   .     A
C660   H704    1.082   .     S
C660   N727    1.367   .     A
C660   C169    1.416   1_565 S
C661   N728    1.367   .     A
C661   H705    1.082   .     S
C662   N727    1.367   .     A
C662   H706    1.082   .     S
C662   C167    1.416   1_565 S
C663   O734    1.289   .     A
C663   O737    1.291   .     A
C663   C669    1.459   .     S
C664   O735    1.289   .     A
C664   C667    1.459   .     S
C664   O736    1.291   .     A
C665   C681    1.491   .     S
C665   C676    1.412   .     A
C665   C667    1.411   .     A
C666   C682    1.491   .     S
C666   C677    1.412   .     A
C666   C669    1.411   .     A
C667   C670    1.409   .     A
C668   O732    1.289   .     A
C668   C700    1.445   .     S
C668   O731    1.289   .     A
C669   C671    1.409   .     A
C670   C683    1.487   .     S
C670   C672    1.406   .     A
C671   C673    1.406   .     A
C671   C689    1.487   .     S
C672   C674    1.415   .     A
C672   C678    1.404   .     A
C673   C680    1.404   .     A
C673   C675    1.415   .     A
C674   C676    1.419   .     A
C674   C1413   1.418   .     S
C675   C677    1.419   .     A
C675   C1412   1.418   1_554 S
C676   C690    1.405   .     A
C677   C679    1.405   .     A
C678   H703    1.082   .     S
C678   C1417   1.383   .     S
C679   H720    1.080   .     S
C679   C1416   1.383   1_554 S
C680   H714    1.082   .     S
C680   C1428   1.383   1_554 S
C681   H707    1.086   .     S
C681   O738    1.221   .     D
C682   H708    1.086   .     S
C682   O730    1.221   .     D
C683   C688    1.404   .     A
C683   C684    1.403   .     A
C684   C685    1.398   .     A
C684   H709    1.083   .     S
C685   C686    1.398   .     A
C685   H710    1.082   .     S
C686   C687    1.398   .     A
C686   H711    1.082   .     S
C687   C688    1.398   .     A
C687   H712    1.083   .     S
C688   H713    1.083   .     S
C689   C691    1.404   .     A
C689   C695    1.403   .     A
C690   H721    1.080   .     S
C690   C1418   1.383   .     S
C691   C692    1.398   .     A
C691   H715    1.083   .     S
C692   C693    1.398   .     A
C692   H716    1.082   .     S
C693   C694    1.398   .     A
C693   H717    1.082   .     S
C694   C695    1.398   .     A
C694   H718    1.082   .     S
C695   H719    1.083   .     S
C696   H722    1.083   .     S
C697   H723    1.083   .     S
C697   C700    1.400   .     A
C697   C535    1.383   1_655 S
C698   H724    1.083   .     S
C698   C700    1.400   .     A
C698   C532    1.383   1_655 S
C699   H725    1.083   .     S
Cu701  N727    2.011   .     S
Cu701  Cu702   2.676   .     S
Cu701  O732    1.959   .     S
Cu701  O729    1.960   .     S
Cu701  O734    1.972   .     S
Cu701  O736    1.972   .     S
Cu702  O735    1.972   .     S
Cu702  N728    2.011   .     S
Cu702  O731    1.960   .     S
Cu702  O737    1.972   .     S
Cu702  O733    1.959   .     S
C739   O815    1.289   .     A
C739   C740    1.445   .     S
C739   O811    1.289   .     A
C740   C781    1.400   .     A
C740   C778    1.400   .     A
C741   H808    1.082   .     S
C741   N810    1.367   .     A
C741   C1236   1.416   1_545 S
C742   H786    1.082   .     S
C742   N809    1.367   .     A
C742   C989    1.416   .     S
C743   N810    1.367   .     A
C743   H787    1.082   .     S
C743   C1234   1.416   1_545 S
C744   N809    1.367   .     A
C744   H788    1.082   .     S
C744   C987    1.416   .     S
C745   O816    1.289   .     A
C745   O819    1.291   .     A
C745   C751    1.459   .     S
C746   O817    1.289   .     A
C746   C749    1.459   .     S
C746   O818    1.291   .     A
C747   C763    1.491   .     S
C747   C758    1.412   .     A
C747   C749    1.411   .     A
C748   C764    1.491   .     S
C748   C759    1.412   .     A
C748   C751    1.411   .     A
C749   C752    1.409   .     A
C750   O814    1.289   .     A
C750   C782    1.445   .     S
C750   O813    1.289   .     A
C751   C753    1.409   .     A
C752   C765    1.487   .     S
C752   C754    1.406   .     A
C753   C755    1.406   .     A
C753   C771    1.487   .     S
C754   C756    1.415   .     A
C754   C760    1.404   .     A
C755   C762    1.404   .     A
C755   C757    1.415   .     A
C756   C758    1.419   .     A
C756   C19     1.418   1_556 S
C757   C759    1.419   .     A
C758   C772    1.405   .     A
C759   C761    1.405   .     A
C760   H785    1.082   .     S
C760   C23     1.383   1_556 S
C761   H802    1.080   .     S
C762   H796    1.082   .     S
C763   H789    1.086   .     S
C763   O820    1.221   .     D
C764   H790    1.086   .     S
C764   O812    1.221   .     D
C765   C770    1.404   .     A
C765   C766    1.403   .     A
C766   C767    1.398   .     A
C766   H791    1.083   .     S
C767   C768    1.398   .     A
C767   H792    1.082   .     S
C768   C769    1.398   .     A
C768   H793    1.082   .     S
C769   C770    1.398   .     A
C769   H794    1.083   .     S
C770   H795    1.083   .     S
C771   C773    1.404   .     A
C771   C777    1.403   .     A
C772   H803    1.080   .     S
C772   C24     1.383   1_556 S
C773   C774    1.398   .     A
C773   H797    1.083   .     S
C774   C775    1.398   .     A
C774   H798    1.082   .     S
C775   C776    1.398   .     A
C775   H799    1.082   .     S
C776   C777    1.398   .     A
C776   H800    1.082   .     S
C777   H801    1.083   .     S
C778   H804    1.083   .     S
C778   C944    1.383   1_455 S
C779   H805    1.083   .     S
C779   C782    1.400   .     A
C779   C863    1.383   .     S
C780   H806    1.083   .     S
C780   C782    1.400   .     A
C780   C860    1.383   .     S
C781   H807    1.083   .     S
C781   C943    1.383   1_455 S
Cu783  N809    2.011   .     S
Cu783  Cu784   2.676   .     S
Cu783  O814    1.959   .     S
Cu783  O811    1.960   .     S
Cu783  O816    1.972   .     S
Cu783  O818    1.972   .     S
Cu784  O817    1.972   .     S
Cu784  N810    2.011   .     S
Cu784  O813    1.960   .     S
Cu784  O819    1.972   .     S
Cu784  O815    1.959   .     S
C821   O897    1.289   .     A
C821   C822    1.445   .     S
C821   O893    1.289   .     A
C822   C863    1.400   .     A
C822   C860    1.400   .     A
C823   H890    1.082   .     S
C823   N892    1.367   .     A
C823   C1318   1.416   1_545 S
C824   H868    1.082   .     S
C824   N891    1.367   .     A
C824   C1071   1.416   .     S
C825   N892    1.367   .     A
C825   H869    1.082   .     S
C825   C1316   1.416   1_545 S
C826   N891    1.367   .     A
C826   H870    1.082   .     S
C826   C1069   1.416   .     S
C827   O898    1.289   .     A
C827   O901    1.291   .     A
C827   C833    1.459   .     S
C828   O899    1.289   .     A
C828   C831    1.459   .     S
C828   O900    1.291   .     A
C829   C845    1.491   .     S
C829   C840    1.412   .     A
C829   C831    1.411   .     A
C830   C846    1.491   .     S
C830   C841    1.412   .     A
C830   C833    1.411   .     A
C831   C834    1.409   .     A
C832   O896    1.289   .     A
C832   C864    1.445   .     S
C832   O895    1.289   .     A
C833   C835    1.409   .     A
C834   C847    1.487   .     S
C834   C836    1.406   .     A
C835   C837    1.406   .     A
C835   C853    1.487   .     S
C836   C838    1.415   .     A
C836   C842    1.404   .     A
C837   C844    1.404   .     A
C837   C839    1.415   .     A
C838   C840    1.419   .     A
C838   C101    1.418   1_556 S
C839   C841    1.419   .     A
C840   C854    1.405   .     A
C841   C843    1.405   .     A
C842   H867    1.082   .     S
C842   C105    1.383   1_556 S
C843   H884    1.080   .     S
C844   H878    1.082   .     S
C845   H871    1.086   .     S
C845   O902    1.221   .     D
C846   H872    1.086   .     S
C846   O894    1.221   .     D
C847   C852    1.404   .     A
C847   C848    1.403   .     A
C848   C849    1.398   .     A
C848   H873    1.083   .     S
C849   C850    1.398   .     A
C849   H874    1.082   .     S
C850   C851    1.398   .     A
C850   H875    1.082   .     S
C851   C852    1.398   .     A
C851   H876    1.083   .     S
C852   H877    1.083   .     S
C853   C855    1.404   .     A
C853   C859    1.403   .     A
C854   H885    1.080   .     S
C854   C106    1.383   1_556 S
C855   C856    1.398   .     A
C855   H879    1.083   .     S
C856   C857    1.398   .     A
C856   H880    1.082   .     S
C857   C858    1.398   .     A
C857   H881    1.082   .     S
C858   C859    1.398   .     A
C858   H882    1.082   .     S
C859   H883    1.083   .     S
C860   H886    1.083   .     S
C861   H887    1.083   .     S
C861   C864    1.400   .     A
C861   C945    1.383   .     S
C862   H888    1.083   .     S
C862   C864    1.400   .     A
C862   C942    1.383   .     S
C863   H889    1.083   .     S
Cu865  N891    2.011   .     S
Cu865  Cu866   2.676   .     S
Cu865  O896    1.959   .     S
Cu865  O893    1.960   .     S
Cu865  O898    1.972   .     S
Cu865  O900    1.972   .     S
Cu866  O899    1.972   .     S
Cu866  N892    2.011   .     S
Cu866  O895    1.960   .     S
Cu866  O901    1.972   .     S
Cu866  O897    1.959   .     S
C903   O979    1.289   .     A
C903   C904    1.445   .     S
C903   O975    1.289   .     A
C904   C945    1.400   .     A
C904   C942    1.400   .     A
C905   H972    1.082   .     S
C905   N974    1.367   .     A
C905   C1400   1.416   1_545 S
C906   H950    1.082   .     S
C906   N973    1.367   .     A
C906   C1153   1.416   .     S
C907   N974    1.367   .     A
C907   H951    1.082   .     S
C907   C1398   1.416   1_545 S
C908   N973    1.367   .     A
C908   H952    1.082   .     S
C908   C1151   1.416   .     S
C909   O980    1.289   .     A
C909   O983    1.291   .     A
C909   C915    1.459   .     S
C910   O981    1.289   .     A
C910   C913    1.459   .     S
C910   O982    1.291   .     A
C911   C927    1.491   .     S
C911   C922    1.412   .     A
C911   C913    1.411   .     A
C912   C928    1.491   .     S
C912   C923    1.412   .     A
C912   C915    1.411   .     A
C913   C916    1.409   .     A
C914   O978    1.289   .     A
C914   C946    1.445   .     S
C914   O977    1.289   .     A
C915   C917    1.409   .     A
C916   C929    1.487   .     S
C916   C918    1.406   .     A
C917   C919    1.406   .     A
C917   C935    1.487   .     S
C918   C920    1.415   .     A
C918   C924    1.404   .     A
C919   C926    1.404   .     A
C919   C921    1.415   .     A
C920   C922    1.419   .     A
C920   C183    1.418   1_556 S
C921   C923    1.419   .     A
C922   C936    1.405   .     A
C923   C925    1.405   .     A
C924   H949    1.082   .     S
C924   C187    1.383   1_556 S
C925   H966    1.080   .     S
C926   H960    1.082   .     S
C927   H953    1.086   .     S
C927   O984    1.221   .     D
C928   H954    1.086   .     S
C928   O976    1.221   .     D
C929   C934    1.404   .     A
C929   C930    1.403   .     A
C930   C931    1.398   .     A
C930   H955    1.083   .     S
C931   C932    1.398   .     A
C931   H956    1.082   .     S
C932   C933    1.398   .     A
C932   H957    1.082   .     S
C933   C934    1.398   .     A
C933   H958    1.083   .     S
C934   H959    1.083   .     S
C935   C937    1.404   .     A
C935   C941    1.403   .     A
C936   H967    1.080   .     S
C936   C188    1.383   1_556 S
C937   C938    1.398   .     A
C937   H961    1.083   .     S
C938   C939    1.398   .     A
C938   H962    1.082   .     S
C939   C940    1.398   .     A
C939   H963    1.082   .     S
C940   C941    1.398   .     A
C940   H964    1.082   .     S
C941   H965    1.083   .     S
C942   H968    1.083   .     S
C943   H969    1.083   .     S
C943   C946    1.400   .     A
C943   C781    1.383   1_655 S
C944   H970    1.083   .     S
C944   C946    1.400   .     A
C944   C778    1.383   1_655 S
C945   H971    1.083   .     S
Cu947  N973    2.011   .     S
Cu947  Cu948   2.676   .     S
Cu947  O978    1.959   .     S
Cu947  O975    1.960   .     S
Cu947  O980    1.972   .     S
Cu947  O982    1.972   .     S
Cu948  O981    1.972   .     S
Cu948  N974    2.011   .     S
Cu948  O977    1.960   .     S
Cu948  O983    1.972   .     S
Cu948  O979    1.959   .     S
C985   O1061   1.289   .     A
C985   C986    1.445   .     S
C985   O1057   1.289   .     A
C986   C1027   1.400   .     A
C986   C1024   1.400   .     A
C987   H1054   1.082   .     S
C987   N1056   1.367   .     A
C988   H1032   1.082   .     S
C988   N1055   1.367   .     A
C988   C1235   1.416   .     S
C989   N1056   1.367   .     A
C989   H1033   1.082   .     S
C990   N1055   1.367   .     A
C990   H1034   1.082   .     S
C990   C1233   1.416   .     S
C991   O1062   1.289   .     A
C991   O1065   1.291   .     A
C991   C997    1.459   .     S
C992   O1063   1.289   .     A
C992   C995    1.459   .     S
C992   O1064   1.291   .     A
C993   C1009   1.491   .     S
C993   C1004   1.412   .     A
C993   C995    1.411   .     A
C994   C1010   1.491   .     S
C994   C1005   1.412   .     A
C994   C997    1.411   .     A
C995   C998    1.409   .     A
C996   O1060   1.289   .     A
C996   C1028   1.445   .     S
C996   O1059   1.289   .     A
C997   C999    1.409   .     A
C998   C1011   1.487   .     S
C998   C1000   1.406   .     A
C999   C1001   1.406   .     A
C999   C1017   1.487   .     S
C1000  C1002   1.415   .     A
C1000  C1006   1.404   .     A
C1001  C1008   1.404   .     A
C1001  C1003   1.415   .     A
C1002  C1004   1.419   .     A
C1002  C265    1.418   1_556 S
C1003  C1005   1.419   .     A
C1004  C1018   1.405   .     A
C1005  C1007   1.405   .     A
C1006  H1031   1.082   .     S
C1006  C269    1.383   1_556 S
C1007  H1048   1.080   .     S
C1008  H1042   1.082   .     S
C1009  H1035   1.086   .     S
C1009  O1066   1.221   .     D
C1010  H1036   1.086   .     S
C1010  O1058   1.221   .     D
C1011  C1016   1.404   .     A
C1011  C1012   1.403   .     A
C1012  C1013   1.398   .     A
C1012  H1037   1.083   .     S
C1013  C1014   1.398   .     A
C1013  H1038   1.082   .     S
C1014  C1015   1.398   .     A
C1014  H1039   1.082   .     S
C1015  C1016   1.398   .     A
C1015  H1040   1.083   .     S
C1016  H1041   1.083   .     S
C1017  C1019   1.404   .     A
C1017  C1023   1.403   .     A
C1018  H1049   1.080   .     S
C1018  C270    1.383   1_556 S
C1019  C1020   1.398   .     A
C1019  H1043   1.083   .     S
C1020  C1021   1.398   .     A
C1020  H1044   1.082   .     S
C1021  C1022   1.398   .     A
C1021  H1045   1.082   .     S
C1022  C1023   1.398   .     A
C1022  H1046   1.082   .     S
C1023  H1047   1.083   .     S
C1024  H1050   1.083   .     S
C1024  C1190   1.383   1_455 S
C1025  H1051   1.083   .     S
C1025  C1028   1.400   .     A
C1025  C1109   1.383   .     S
C1026  H1052   1.083   .     S
C1026  C1028   1.400   .     A
C1026  C1106   1.383   .     S
C1027  H1053   1.083   .     S
C1027  C1189   1.383   1_455 S
Cu1029 N1055   2.011   .     S
Cu1029 Cu1030  2.676   .     S
Cu1029 O1060   1.959   .     S
Cu1029 O1057   1.960   .     S
Cu1029 O1062   1.972   .     S
Cu1029 O1064   1.972   .     S
Cu1030 O1063   1.972   .     S
Cu1030 N1056   2.011   .     S
Cu1030 O1059   1.960   .     S
Cu1030 O1065   1.972   .     S
Cu1030 O1061   1.959   .     S
C1067  O1143   1.289   .     A
C1067  C1068   1.445   .     S
C1067  O1139   1.289   .     A
C1068  C1109   1.400   .     A
C1068  C1106   1.400   .     A
C1069  H1136   1.082   .     S
C1069  N1138   1.367   .     A
C1070  H1114   1.082   .     S
C1070  N1137   1.367   .     A
C1070  C1317   1.416   .     S
C1071  N1138   1.367   .     A
C1071  H1115   1.082   .     S
C1072  N1137   1.367   .     A
C1072  H1116   1.082   .     S
C1072  C1315   1.416   .     S
C1073  O1144   1.289   .     A
C1073  O1147   1.291   .     A
C1073  C1079   1.459   .     S
C1074  O1145   1.289   .     A
C1074  C1077   1.459   .     S
C1074  O1146   1.291   .     A
C1075  C1091   1.491   .     S
C1075  C1086   1.412   .     A
C1075  C1077   1.411   .     A
C1076  C1092   1.491   .     S
C1076  C1087   1.412   .     A
C1076  C1079   1.411   .     A
C1077  C1080   1.409   .     A
C1078  O1142   1.289   .     A
C1078  C1110   1.445   .     S
C1078  O1141   1.289   .     A
C1079  C1081   1.409   .     A
C1080  C1093   1.487   .     S
C1080  C1082   1.406   .     A
C1081  C1083   1.406   .     A
C1081  C1099   1.487   .     S
C1082  C1084   1.415   .     A
C1082  C1088   1.404   .     A
C1083  C1090   1.404   .     A
C1083  C1085   1.415   .     A
C1084  C1086   1.419   .     A
C1084  C347    1.418   1_556 S
C1085  C1087   1.419   .     A
C1086  C1100   1.405   .     A
C1087  C1089   1.405   .     A
C1088  H1113   1.082   .     S
C1088  C351    1.383   1_556 S
C1089  H1130   1.080   .     S
C1090  H1124   1.082   .     S
C1091  H1117   1.086   .     S
C1091  O1148   1.221   .     D
C1092  H1118   1.086   .     S
C1092  O1140   1.221   .     D
C1093  C1098   1.404   .     A
C1093  C1094   1.403   .     A
C1094  C1095   1.398   .     A
C1094  H1119   1.083   .     S
C1095  C1096   1.398   .     A
C1095  H1120   1.082   .     S
C1096  C1097   1.398   .     A
C1096  H1121   1.082   .     S
C1097  C1098   1.398   .     A
C1097  H1122   1.083   .     S
C1098  H1123   1.083   .     S
C1099  C1101   1.404   .     A
C1099  C1105   1.403   .     A
C1100  H1131   1.080   .     S
C1100  C352    1.383   1_556 S
C1101  C1102   1.398   .     A
C1101  H1125   1.083   .     S
C1102  C1103   1.398   .     A
C1102  H1126   1.082   .     S
C1103  C1104   1.398   .     A
C1103  H1127   1.082   .     S
C1104  C1105   1.398   .     A
C1104  H1128   1.082   .     S
C1105  H1129   1.083   .     S
C1106  H1132   1.083   .     S
C1107  H1133   1.083   .     S
C1107  C1110   1.400   .     A
C1107  C1191   1.383   .     S
C1108  H1134   1.083   .     S
C1108  C1110   1.400   .     A
C1108  C1188   1.383   .     S
C1109  H1135   1.083   .     S
Cu1111 N1137   2.011   .     S
Cu1111 Cu1112  2.676   .     S
Cu1111 O1142   1.959   .     S
Cu1111 O1139   1.960   .     S
Cu1111 O1144   1.972   .     S
Cu1111 O1146   1.972   .     S
Cu1112 O1145   1.972   .     S
Cu1112 N1138   2.011   .     S
Cu1112 O1141   1.960   .     S
Cu1112 O1147   1.972   .     S
Cu1112 O1143   1.959   .     S
C1149  O1225   1.289   .     A
C1149  C1150   1.445   .     S
C1149  O1221   1.289   .     A
C1150  C1191   1.400   .     A
C1150  C1188   1.400   .     A
C1151  H1218   1.082   .     S
C1151  N1220   1.367   .     A
C1152  H1196   1.082   .     S
C1152  N1219   1.367   .     A
C1152  C1399   1.416   .     S
C1153  N1220   1.367   .     A
C1153  H1197   1.082   .     S
C1154  N1219   1.367   .     A
C1154  H1198   1.082   .     S
C1154  C1397   1.416   .     S
C1155  O1226   1.289   .     A
C1155  O1229   1.291   .     A
C1155  C1161   1.459   .     S
C1156  O1227   1.289   .     A
C1156  C1159   1.459   .     S
C1156  O1228   1.291   .     A
C1157  C1173   1.491   .     S
C1157  C1168   1.412   .     A
C1157  C1159   1.411   .     A
C1158  C1174   1.491   .     S
C1158  C1169   1.412   .     A
C1158  C1161   1.411   .     A
C1159  C1162   1.409   .     A
C1160  O1224   1.289   .     A
C1160  C1192   1.445   .     S
C1160  O1223   1.289   .     A
C1161  C1163   1.409   .     A
C1162  C1175   1.487   .     S
C1162  C1164   1.406   .     A
C1163  C1165   1.406   .     A
C1163  C1181   1.487   .     S
C1164  C1166   1.415   .     A
C1164  C1170   1.404   .     A
C1165  C1172   1.404   .     A
C1165  C1167   1.415   .     A
C1166  C1168   1.419   .     A
C1166  C429    1.418   1_556 S
C1167  C1169   1.419   .     A
C1168  C1182   1.405   .     A
C1169  C1171   1.405   .     A
C1170  H1195   1.082   .     S
C1170  C433    1.383   1_556 S
C1171  H1212   1.080   .     S
C1172  H1206   1.082   .     S
C1173  H1199   1.086   .     S
C1173  O1230   1.221   .     D
C1174  H1200   1.086   .     S
C1174  O1222   1.221   .     D
C1175  C1180   1.404   .     A
C1175  C1176   1.403   .     A
C1176  C1177   1.398   .     A
C1176  H1201   1.083   .     S
C1177  C1178   1.398   .     A
C1177  H1202   1.082   .     S
C1178  C1179   1.398   .     A
C1178  H1203   1.082   .     S
C1179  C1180   1.398   .     A
C1179  H1204   1.083   .     S
C1180  H1205   1.083   .     S
C1181  C1183   1.404   .     A
C1181  C1187   1.403   .     A
C1182  H1213   1.080   .     S
C1182  C434    1.383   1_556 S
C1183  C1184   1.398   .     A
C1183  H1207   1.083   .     S
C1184  C1185   1.398   .     A
C1184  H1208   1.082   .     S
C1185  C1186   1.398   .     A
C1185  H1209   1.082   .     S
C1186  C1187   1.398   .     A
C1186  H1210   1.082   .     S
C1187  H1211   1.083   .     S
C1188  H1214   1.083   .     S
C1189  H1215   1.083   .     S
C1189  C1192   1.400   .     A
C1189  C1027   1.383   1_655 S
C1190  H1216   1.083   .     S
C1190  C1192   1.400   .     A
C1190  C1024   1.383   1_655 S
C1191  H1217   1.083   .     S
Cu1193 N1219   2.011   .     S
Cu1193 Cu1194  2.676   .     S
Cu1193 O1224   1.959   .     S
Cu1193 O1221   1.960   .     S
Cu1193 O1226   1.972   .     S
Cu1193 O1228   1.972   .     S
Cu1194 O1227   1.972   .     S
Cu1194 N1220   2.011   .     S
Cu1194 O1223   1.960   .     S
Cu1194 O1229   1.972   .     S
Cu1194 O1225   1.959   .     S
C1231  O1307   1.289   .     A
C1231  C1232   1.445   .     S
C1231  O1303   1.289   .     A
C1232  C1273   1.400   .     A
C1232  C1270   1.400   .     A
C1233  H1300   1.082   .     S
C1233  N1302   1.367   .     A
C1234  H1278   1.082   .     S
C1234  N1301   1.367   .     A
C1234  C743    1.416   1_565 S
C1235  N1302   1.367   .     A
C1235  H1279   1.082   .     S
C1236  N1301   1.367   .     A
C1236  H1280   1.082   .     S
C1236  C741    1.416   1_565 S
C1237  O1308   1.289   .     A
C1237  O1311   1.291   .     A
C1237  C1243   1.459   .     S
C1238  O1309   1.289   .     A
C1238  C1241   1.459   .     S
C1238  O1310   1.291   .     A
C1239  C1255   1.491   .     S
C1239  C1250   1.412   .     A
C1239  C1241   1.411   .     A
C1240  C1256   1.491   .     S
C1240  C1251   1.412   .     A
C1240  C1243   1.411   .     A
C1241  C1244   1.409   .     A
C1242  O1306   1.289   .     A
C1242  C1274   1.445   .     S
C1242  O1305   1.289   .     A
C1243  C1245   1.409   .     A
C1244  C1257   1.487   .     S
C1244  C1246   1.406   .     A
C1245  C1247   1.406   .     A
C1245  C1263   1.487   .     S
C1246  C1248   1.415   .     A
C1246  C1252   1.404   .     A
C1247  C1254   1.404   .     A
C1247  C1249   1.415   .     A
C1248  C1250   1.419   .     A
C1248  C511    1.418   1_556 S
C1249  C1251   1.419   .     A
C1250  C1264   1.405   .     A
C1251  C1253   1.405   .     A
C1252  H1277   1.082   .     S
C1252  C515    1.383   1_556 S
C1253  H1294   1.080   .     S
C1254  H1288   1.082   .     S
C1255  H1281   1.086   .     S
C1255  O1312   1.221   .     D
C1256  H1282   1.086   .     S
C1256  O1304   1.221   .     D
C1257  C1262   1.404   .     A
C1257  C1258   1.403   .     A
C1258  C1259   1.398   .     A
C1258  H1283   1.083   .     S
C1259  C1260   1.398   .     A
C1259  H1284   1.082   .     S
C1260  C1261   1.398   .     A
C1260  H1285   1.082   .     S
C1261  C1262   1.398   .     A
C1261  H1286   1.083   .     S
C1262  H1287   1.083   .     S
C1263  C1265   1.404   .     A
C1263  C1269   1.403   .     A
C1264  H1295   1.080   .     S
C1264  C516    1.383   1_556 S
C1265  C1266   1.398   .     A
C1265  H1289   1.083   .     S
C1266  C1267   1.398   .     A
C1266  H1290   1.082   .     S
C1267  C1268   1.398   .     A
C1267  H1291   1.082   .     S
C1268  C1269   1.398   .     A
C1268  H1292   1.082   .     S
C1269  H1293   1.083   .     S
C1270  H1296   1.083   .     S
C1270  C1436   1.383   1_455 S
C1271  H1297   1.083   .     S
C1271  C1274   1.400   .     A
C1271  C1355   1.383   .     S
C1272  H1298   1.083   .     S
C1272  C1274   1.400   .     A
C1272  C1352   1.383   .     S
C1273  H1299   1.083   .     S
C1273  C1435   1.383   1_455 S
Cu1275 N1301   2.011   .     S
Cu1275 Cu1276  2.676   .     S
Cu1275 O1306   1.959   .     S
Cu1275 O1303   1.960   .     S
Cu1275 O1308   1.972   .     S
Cu1275 O1310   1.972   .     S
Cu1276 O1309   1.972   .     S
Cu1276 N1302   2.011   .     S
Cu1276 O1305   1.960   .     S
Cu1276 O1311   1.972   .     S
Cu1276 O1307   1.959   .     S
C1313  O1389   1.289   .     A
C1313  C1314   1.445   .     S
C1313  O1385   1.289   .     A
C1314  C1355   1.400   .     A
C1314  C1352   1.400   .     A
C1315  H1382   1.082   .     S
C1315  N1384   1.367   .     A
C1316  H1360   1.082   .     S
C1316  N1383   1.367   .     A
C1316  C825    1.416   1_565 S
C1317  N1384   1.367   .     A
C1317  H1361   1.082   .     S
C1318  N1383   1.367   .     A
C1318  H1362   1.082   .     S
C1318  C823    1.416   1_565 S
C1319  O1390   1.289   .     A
C1319  O1393   1.291   .     A
C1319  C1325   1.459   .     S
C1320  O1391   1.289   .     A
C1320  C1323   1.459   .     S
C1320  O1392   1.291   .     A
C1321  C1337   1.491   .     S
C1321  C1332   1.412   .     A
C1321  C1323   1.411   .     A
C1322  C1338   1.491   .     S
C1322  C1333   1.412   .     A
C1322  C1325   1.411   .     A
C1323  C1326   1.409   .     A
C1324  O1388   1.289   .     A
C1324  C1356   1.445   .     S
C1324  O1387   1.289   .     A
C1325  C1327   1.409   .     A
C1326  C1339   1.487   .     S
C1326  C1328   1.406   .     A
C1327  C1329   1.406   .     A
C1327  C1345   1.487   .     S
C1328  C1330   1.415   .     A
C1328  C1334   1.404   .     A
C1329  C1336   1.404   .     A
C1329  C1331   1.415   .     A
C1330  C1332   1.419   .     A
C1330  C593    1.418   1_556 S
C1331  C1333   1.419   .     A
C1332  C1346   1.405   .     A
C1333  C1335   1.405   .     A
C1334  H1359   1.082   .     S
C1334  C597    1.383   1_556 S
C1335  H1376   1.080   .     S
C1336  H1370   1.082   .     S
C1337  H1363   1.086   .     S
C1337  O1394   1.221   .     D
C1338  H1364   1.086   .     S
C1338  O1386   1.221   .     D
C1339  C1344   1.404   .     A
C1339  C1340   1.403   .     A
C1340  C1341   1.398   .     A
C1340  H1365   1.083   .     S
C1341  C1342   1.398   .     A
C1341  H1366   1.082   .     S
C1342  C1343   1.398   .     A
C1342  H1367   1.082   .     S
C1343  C1344   1.398   .     A
C1343  H1368   1.083   .     S
C1344  H1369   1.083   .     S
C1345  C1347   1.404   .     A
C1345  C1351   1.403   .     A
C1346  H1377   1.080   .     S
C1346  C598    1.383   1_556 S
C1347  C1348   1.398   .     A
C1347  H1371   1.083   .     S
C1348  C1349   1.398   .     A
C1348  H1372   1.082   .     S
C1349  C1350   1.398   .     A
C1349  H1373   1.082   .     S
C1350  C1351   1.398   .     A
C1350  H1374   1.082   .     S
C1351  H1375   1.083   .     S
C1352  H1378   1.083   .     S
C1353  H1379   1.083   .     S
C1353  C1356   1.400   .     A
C1353  C1437   1.383   .     S
C1354  H1380   1.083   .     S
C1354  C1356   1.400   .     A
C1354  C1434   1.383   .     S
C1355  H1381   1.083   .     S
Cu1357 N1383   2.011   .     S
Cu1357 Cu1358  2.676   .     S
Cu1357 O1388   1.959   .     S
Cu1357 O1385   1.960   .     S
Cu1357 O1390   1.972   .     S
Cu1357 O1392   1.972   .     S
Cu1358 O1391   1.972   .     S
Cu1358 N1384   2.011   .     S
Cu1358 O1387   1.960   .     S
Cu1358 O1393   1.972   .     S
Cu1358 O1389   1.959   .     S
C1395  O1471   1.289   .     A
C1395  C1396   1.445   .     S
C1395  O1467   1.289   .     A
C1396  C1437   1.400   .     A
C1396  C1434   1.400   .     A
C1397  H1464   1.082   .     S
C1397  N1466   1.367   .     A
C1398  H1442   1.082   .     S
C1398  N1465   1.367   .     A
C1398  C907    1.416   1_565 S
C1399  N1466   1.367   .     A
C1399  H1443   1.082   .     S
C1400  N1465   1.367   .     A
C1400  H1444   1.082   .     S
C1400  C905    1.416   1_565 S
C1401  O1472   1.289   .     A
C1401  O1475   1.291   .     A
C1401  C1407   1.459   .     S
C1402  O1473   1.289   .     A
C1402  C1405   1.459   .     S
C1402  O1474   1.291   .     A
C1403  C1419   1.491   .     S
C1403  C1414   1.412   .     A
C1403  C1405   1.411   .     A
C1404  C1420   1.491   .     S
C1404  C1415   1.412   .     A
C1404  C1407   1.411   .     A
C1405  C1408   1.409   .     A
C1406  O1470   1.289   .     A
C1406  C1438   1.445   .     S
C1406  O1469   1.289   .     A
C1407  C1409   1.409   .     A
C1408  C1421   1.487   .     S
C1408  C1410   1.406   .     A
C1409  C1411   1.406   .     A
C1409  C1427   1.487   .     S
C1410  C1412   1.415   .     A
C1410  C1416   1.404   .     A
C1411  C1418   1.404   .     A
C1411  C1413   1.415   .     A
C1412  C1414   1.419   .     A
C1412  C675    1.418   1_556 S
C1413  C1415   1.419   .     A
C1414  C1428   1.405   .     A
C1415  C1417   1.405   .     A
C1416  H1441   1.082   .     S
C1416  C679    1.383   1_556 S
C1417  H1458   1.080   .     S
C1418  H1452   1.082   .     S
C1419  H1445   1.086   .     S
C1419  O1476   1.221   .     D
C1420  H1446   1.086   .     S
C1420  O1468   1.221   .     D
C1421  C1426   1.404   .     A
C1421  C1422   1.403   .     A
C1422  C1423   1.398   .     A
C1422  H1447   1.083   .     S
C1423  C1424   1.398   .     A
C1423  H1448   1.082   .     S
C1424  C1425   1.398   .     A
C1424  H1449   1.082   .     S
C1425  C1426   1.398   .     A
C1425  H1450   1.083   .     S
C1426  H1451   1.083   .     S
C1427  C1429   1.404   .     A
C1427  C1433   1.403   .     A
C1428  H1459   1.080   .     S
C1428  C680    1.383   1_556 S
C1429  C1430   1.398   .     A
C1429  H1453   1.083   .     S
C1430  C1431   1.398   .     A
C1430  H1454   1.082   .     S
C1431  C1432   1.398   .     A
C1431  H1455   1.082   .     S
C1432  C1433   1.398   .     A
C1432  H1456   1.082   .     S
C1433  H1457   1.083   .     S
C1434  H1460   1.083   .     S
C1435  H1461   1.083   .     S
C1435  C1438   1.400   .     A
C1435  C1273   1.383   1_655 S
C1436  H1462   1.083   .     S
C1436  C1438   1.400   .     A
C1436  C1270   1.383   1_655 S
C1437  H1463   1.083   .     S
Cu1439 N1465   2.011   .     S
Cu1439 Cu1440  2.676   .     S
Cu1439 O1470   1.959   .     S
Cu1439 O1467   1.960   .     S
Cu1439 O1472   1.972   .     S
Cu1439 O1474   1.972   .     S
Cu1440 O1473   1.972   .     S
Cu1440 N1466   2.011   .     S
Cu1440 O1469   1.960   .     S
Cu1440 O1475   1.972   .     S
Cu1440 O1471   1.959   .     S
