data_str_m2_o1_o10_pcu_sym.150
_audit_creation_date              2020-01-03
_audit_creation_method            'Materials Studio'
_symmetry_space_group_name_H-M    'P1'
_symmetry_Int_Tables_number       1
_symmetry_cell_setting            triclinic
loop_
_symmetry_equiv_pos_as_xyz
  x,y,z
_cell_length_a                    26.2243
_cell_length_b                    32.7996
_cell_length_c                    28.7727
_cell_angle_alpha                 89.2322
_cell_angle_beta                  97.5182
_cell_angle_gamma                 92.2507
loop_
_atom_site_label
_atom_site_type_symbol
_atom_site_fract_x
_atom_site_fract_y
_atom_site_fract_z
_atom_site_U_iso_or_equiv
_atom_site_adp_type
_atom_site_occupancy
O1     O     0.16666   0.10655   0.20625   0.00000  Uiso   1.00
O2     O     0.16667   0.22678   0.12709   0.00000  Uiso   1.00
O3     O     0.16666   0.10654   0.12706   0.00000  Uiso   1.00
O4     O     0.16667   0.22679   0.20628   0.00000  Uiso   1.00
C5     C     0.16971   0.08753   0.16737   0.00000  Uiso   1.00
C6     C     0.16361   0.24580   0.16596   0.00000  Uiso   1.00
O7     O     0.09161   0.16667   0.19712   0.00000  Uiso   1.00
O8     O     0.24172   0.16666   0.13621   0.00000  Uiso   1.00
O9     O     0.09161   0.16666   0.11793   0.00000  Uiso   1.00
O10    O     0.24172   0.16667   0.21540   0.00000  Uiso   1.00
C11    C     0.06811   0.16547   0.15504   0.00000  Uiso   1.00
C12    C     0.26522   0.16787   0.17829   0.00000  Uiso   1.00
Cu13   Cu    0.16667   0.16667   0.21355   0.00000  Uiso   1.00
Cu14   Cu    0.16667   0.16666   0.11978   0.00000  Uiso   1.00
N15    N     0.16668   0.16668   0.28403   0.00000  Uiso   1.00
N16    N     0.16665   0.16666   0.04931   0.00000  Uiso   1.00
C17    C     0.01340   0.15826   0.15098   0.00000  Uiso   1.00
C18    C     0.31993   0.17508   0.18234   0.00000  Uiso   1.00
C19    C     0.17874   0.02190   0.12691   0.00000  Uiso   1.00
C20    C     0.15453   0.31143   0.20639   0.00000  Uiso   1.00
C21    C     0.16955   0.31320   0.12428   0.00000  Uiso   1.00
C22    C     0.16375   0.02013   0.20903   0.00000  Uiso   1.00
C23    C     0.16102   0.29056   0.16502   0.00000  Uiso   1.00
C24    C     0.17228   0.04277   0.16830   0.00000  Uiso   1.00
C25    C     0.12987   0.14467   0.02058   0.00000  Uiso   1.00
C26    C     0.20342   0.18870   0.31274   0.00000  Uiso   1.00
C27    C     0.13025   0.14434   0.30464   0.00000  Uiso   1.00
C28    C     0.20308   0.18900   0.02869   0.00000  Uiso   1.00
Cl29   Cl    0.32070   0.11871   0.11259   0.00000  Uiso   1.00
Cl30   Cl    0.01263   0.21467   0.22067   0.00000  Uiso   1.00
Cl31   Cl    0.20379   0.04654   0.07880   0.00000  Uiso   1.00
Cl32   Cl    0.12938   0.28679   0.25445   0.00000  Uiso   1.00
Cl33   Cl    0.16419   0.29130   0.06768   0.00000  Uiso   1.00
Cl34   Cl    0.16913   0.04201   0.26564   0.00000  Uiso   1.00
N35    N     0.08860   0.12347   0.03950   0.00000  Uiso   1.00
O36    O     0.04234   0.13662   0.02888   0.00000  Uiso   1.00
O37    O     0.09409   0.08596   0.05384   0.00000  Uiso   1.00
N38    N     0.24454   0.21006   0.29377   0.00000  Uiso   1.00
O39    O     0.23904   0.24777   0.28014   0.00000  Uiso   1.00
O40    O     0.29082   0.19683   0.30406   0.00000  Uiso   1.00
Cl41   Cl    0.08355   0.11309   0.27094   0.00000  Uiso   1.00
Cl42   Cl    0.24981   0.22022   0.06238   0.00000  Uiso   1.00
O43    O     0.50000   0.10655   0.20625   0.00000  Uiso   1.00
O44    O     0.50000   0.22678   0.12709   0.00000  Uiso   1.00
O45    O     0.50000   0.10654   0.12706   0.00000  Uiso   1.00
O46    O     0.50000   0.22679   0.20628   0.00000  Uiso   1.00
C47    C     0.50304   0.08753   0.16737   0.00000  Uiso   1.00
C48    C     0.49695   0.24580   0.16596   0.00000  Uiso   1.00
O49    O     0.42495   0.16667   0.19712   0.00000  Uiso   1.00
O50    O     0.57505   0.16666   0.13621   0.00000  Uiso   1.00
O51    O     0.42494   0.16666   0.11793   0.00000  Uiso   1.00
O52    O     0.57506   0.16667   0.21540   0.00000  Uiso   1.00
C53    C     0.40145   0.16547   0.15504   0.00000  Uiso   1.00
C54    C     0.59855   0.16787   0.17829   0.00000  Uiso   1.00
Cu55   Cu    0.50000   0.16667   0.21355   0.00000  Uiso   1.00
Cu56   Cu    0.50000   0.16666   0.11978   0.00000  Uiso   1.00
N57    N     0.50001   0.16668   0.28403   0.00000  Uiso   1.00
N58    N     0.49999   0.16666   0.04931   0.00000  Uiso   1.00
C59    C     0.34673   0.15826   0.15098   0.00000  Uiso   1.00
C60    C     0.65327   0.17508   0.18234   0.00000  Uiso   1.00
C61    C     0.51207   0.02190   0.12691   0.00000  Uiso   1.00
C62    C     0.48786   0.31143   0.20639   0.00000  Uiso   1.00
C63    C     0.50288   0.31320   0.12428   0.00000  Uiso   1.00
C64    C     0.49708   0.02013   0.20903   0.00000  Uiso   1.00
C65    C     0.49435   0.29056   0.16502   0.00000  Uiso   1.00
C66    C     0.50561   0.04277   0.16830   0.00000  Uiso   1.00
C67    C     0.46320   0.14467   0.02058   0.00000  Uiso   1.00
C68    C     0.53676   0.18870   0.31274   0.00000  Uiso   1.00
C69    C     0.46358   0.14434   0.30464   0.00000  Uiso   1.00
C70    C     0.53641   0.18900   0.02869   0.00000  Uiso   1.00
Cl71   Cl    0.65403   0.11871   0.11259   0.00000  Uiso   1.00
Cl72   Cl    0.34597   0.21467   0.22067   0.00000  Uiso   1.00
Cl73   Cl    0.53713   0.04654   0.07880   0.00000  Uiso   1.00
Cl74   Cl    0.46271   0.28679   0.25445   0.00000  Uiso   1.00
Cl75   Cl    0.49752   0.29130   0.06768   0.00000  Uiso   1.00
Cl76   Cl    0.50246   0.04201   0.26564   0.00000  Uiso   1.00
N77    N     0.42193   0.12347   0.03950   0.00000  Uiso   1.00
O78    O     0.37567   0.13662   0.02888   0.00000  Uiso   1.00
O79    O     0.42742   0.08596   0.05384   0.00000  Uiso   1.00
N80    N     0.57788   0.21006   0.29377   0.00000  Uiso   1.00
O81    O     0.57237   0.24777   0.28014   0.00000  Uiso   1.00
O82    O     0.62415   0.19683   0.30406   0.00000  Uiso   1.00
Cl83   Cl    0.41689   0.11309   0.27094   0.00000  Uiso   1.00
Cl84   Cl    0.58314   0.22022   0.06238   0.00000  Uiso   1.00
O85    O     0.83333   0.10655   0.20625   0.00000  Uiso   1.00
O86    O     0.83334   0.22678   0.12709   0.00000  Uiso   1.00
O87    O     0.83333   0.10654   0.12706   0.00000  Uiso   1.00
O88    O     0.83334   0.22679   0.20628   0.00000  Uiso   1.00
C89    C     0.83638   0.08753   0.16737   0.00000  Uiso   1.00
C90    C     0.83028   0.24580   0.16596   0.00000  Uiso   1.00
O91    O     0.75828   0.16667   0.19712   0.00000  Uiso   1.00
O92    O     0.90839   0.16666   0.13621   0.00000  Uiso   1.00
O93    O     0.75828   0.16666   0.11793   0.00000  Uiso   1.00
O94    O     0.90839   0.16667   0.21540   0.00000  Uiso   1.00
C95    C     0.73478   0.16547   0.15504   0.00000  Uiso   1.00
C96    C     0.93189   0.16787   0.17829   0.00000  Uiso   1.00
Cu97   Cu    0.83333   0.16667   0.21355   0.00000  Uiso   1.00
Cu98   Cu    0.83333   0.16666   0.11978   0.00000  Uiso   1.00
N99    N     0.83335   0.16668   0.28403   0.00000  Uiso   1.00
N100   N     0.83332   0.16666   0.04931   0.00000  Uiso   1.00
C101   C     0.68007   0.15826   0.15098   0.00000  Uiso   1.00
C102   C     0.98660   0.17508   0.18234   0.00000  Uiso   1.00
C103   C     0.84540   0.02190   0.12691   0.00000  Uiso   1.00
C104   C     0.82120   0.31143   0.20639   0.00000  Uiso   1.00
C105   C     0.83621   0.31320   0.12428   0.00000  Uiso   1.00
C106   C     0.83041   0.02013   0.20903   0.00000  Uiso   1.00
C107   C     0.82769   0.29056   0.16502   0.00000  Uiso   1.00
C108   C     0.83894   0.04277   0.16830   0.00000  Uiso   1.00
C109   C     0.79653   0.14467   0.02058   0.00000  Uiso   1.00
C110   C     0.87009   0.18870   0.31274   0.00000  Uiso   1.00
C111   C     0.79692   0.14434   0.30464   0.00000  Uiso   1.00
C112   C     0.86975   0.18900   0.02869   0.00000  Uiso   1.00
Cl113  Cl    0.98737   0.11871   0.11259   0.00000  Uiso   1.00
Cl114  Cl    0.67930   0.21467   0.22067   0.00000  Uiso   1.00
Cl115  Cl    0.87046   0.04654   0.07880   0.00000  Uiso   1.00
Cl116  Cl    0.79605   0.28679   0.25445   0.00000  Uiso   1.00
Cl117  Cl    0.83086   0.29130   0.06768   0.00000  Uiso   1.00
Cl118  Cl    0.83579   0.04201   0.26564   0.00000  Uiso   1.00
N119   N     0.75527   0.12347   0.03950   0.00000  Uiso   1.00
O120   O     0.70900   0.13662   0.02888   0.00000  Uiso   1.00
O121   O     0.76076   0.08596   0.05384   0.00000  Uiso   1.00
N122   N     0.91121   0.21006   0.29377   0.00000  Uiso   1.00
O123   O     0.90570   0.24777   0.28014   0.00000  Uiso   1.00
O124   O     0.95748   0.19683   0.30406   0.00000  Uiso   1.00
Cl125  Cl    0.75022   0.11309   0.27094   0.00000  Uiso   1.00
Cl126  Cl    0.91648   0.22022   0.06238   0.00000  Uiso   1.00
O127   O     0.16666   0.43989   0.20625   0.00000  Uiso   1.00
O128   O     0.16667   0.56011   0.12709   0.00000  Uiso   1.00
O129   O     0.16666   0.43988   0.12706   0.00000  Uiso   1.00
O130   O     0.16667   0.56012   0.20628   0.00000  Uiso   1.00
C131   C     0.16971   0.42086   0.16737   0.00000  Uiso   1.00
C132   C     0.16361   0.57914   0.16596   0.00000  Uiso   1.00
O133   O     0.09161   0.50000   0.19712   0.00000  Uiso   1.00
O134   O     0.24172   0.50000   0.13621   0.00000  Uiso   1.00
O135   O     0.09161   0.49999   0.11793   0.00000  Uiso   1.00
O136   O     0.24172   0.50001   0.21540   0.00000  Uiso   1.00
C137   C     0.06811   0.49880   0.15504   0.00000  Uiso   1.00
C138   C     0.26522   0.50120   0.17829   0.00000  Uiso   1.00
Cu139  Cu    0.16667   0.50001   0.21355   0.00000  Uiso   1.00
Cu140  Cu    0.16667   0.49999   0.11978   0.00000  Uiso   1.00
N141   N     0.16668   0.50001   0.28403   0.00000  Uiso   1.00
N142   N     0.16665   0.49999   0.04931   0.00000  Uiso   1.00
C143   C     0.01340   0.49160   0.15098   0.00000  Uiso   1.00
C144   C     0.31993   0.50841   0.18234   0.00000  Uiso   1.00
C145   C     0.17874   0.35523   0.12691   0.00000  Uiso   1.00
C146   C     0.15453   0.64477   0.20639   0.00000  Uiso   1.00
C147   C     0.16955   0.64653   0.12428   0.00000  Uiso   1.00
C148   C     0.16375   0.35346   0.20903   0.00000  Uiso   1.00
C149   C     0.16102   0.62389   0.16502   0.00000  Uiso   1.00
C150   C     0.17228   0.37610   0.16830   0.00000  Uiso   1.00
C151   C     0.12987   0.47801   0.02058   0.00000  Uiso   1.00
C152   C     0.20342   0.52203   0.31274   0.00000  Uiso   1.00
C153   C     0.13025   0.47767   0.30464   0.00000  Uiso   1.00
C154   C     0.20308   0.52233   0.02869   0.00000  Uiso   1.00
Cl155  Cl    0.32070   0.45205   0.11259   0.00000  Uiso   1.00
Cl156  Cl    0.01263   0.54801   0.22067   0.00000  Uiso   1.00
Cl157  Cl    0.20379   0.37987   0.07880   0.00000  Uiso   1.00
Cl158  Cl    0.12938   0.62013   0.25445   0.00000  Uiso   1.00
Cl159  Cl    0.16419   0.62464   0.06768   0.00000  Uiso   1.00
Cl160  Cl    0.16913   0.37534   0.26564   0.00000  Uiso   1.00
N161   N     0.08860   0.45680   0.03950   0.00000  Uiso   1.00
O162   O     0.04234   0.46996   0.02888   0.00000  Uiso   1.00
O163   O     0.09409   0.41930   0.05384   0.00000  Uiso   1.00
N164   N     0.24454   0.54339   0.29377   0.00000  Uiso   1.00
O165   O     0.23904   0.58110   0.28014   0.00000  Uiso   1.00
O166   O     0.29082   0.53017   0.30406   0.00000  Uiso   1.00
Cl167  Cl    0.08355   0.44642   0.27094   0.00000  Uiso   1.00
Cl168  Cl    0.24981   0.55355   0.06238   0.00000  Uiso   1.00
O169   O     0.50000   0.43989   0.20625   0.00000  Uiso   1.00
O170   O     0.50000   0.56011   0.12709   0.00000  Uiso   1.00
O171   O     0.50000   0.43988   0.12706   0.00000  Uiso   1.00
O172   O     0.50000   0.56012   0.20628   0.00000  Uiso   1.00
C173   C     0.50304   0.42086   0.16737   0.00000  Uiso   1.00
C174   C     0.49695   0.57914   0.16596   0.00000  Uiso   1.00
O175   O     0.42495   0.50000   0.19712   0.00000  Uiso   1.00
O176   O     0.57505   0.50000   0.13621   0.00000  Uiso   1.00
O177   O     0.42494   0.49999   0.11793   0.00000  Uiso   1.00
O178   O     0.57506   0.50001   0.21540   0.00000  Uiso   1.00
C179   C     0.40145   0.49880   0.15504   0.00000  Uiso   1.00
C180   C     0.59855   0.50120   0.17829   0.00000  Uiso   1.00
Cu181  Cu    0.50000   0.50001   0.21355   0.00000  Uiso   1.00
Cu182  Cu    0.50000   0.49999   0.11978   0.00000  Uiso   1.00
N183   N     0.50001   0.50001   0.28403   0.00000  Uiso   1.00
N184   N     0.49999   0.49999   0.04931   0.00000  Uiso   1.00
C185   C     0.34673   0.49160   0.15098   0.00000  Uiso   1.00
C186   C     0.65327   0.50841   0.18234   0.00000  Uiso   1.00
C187   C     0.51207   0.35523   0.12691   0.00000  Uiso   1.00
C188   C     0.48786   0.64477   0.20639   0.00000  Uiso   1.00
C189   C     0.50288   0.64653   0.12428   0.00000  Uiso   1.00
C190   C     0.49708   0.35346   0.20903   0.00000  Uiso   1.00
C191   C     0.49435   0.62389   0.16502   0.00000  Uiso   1.00
C192   C     0.50561   0.37610   0.16830   0.00000  Uiso   1.00
C193   C     0.46320   0.47801   0.02058   0.00000  Uiso   1.00
C194   C     0.53676   0.52203   0.31274   0.00000  Uiso   1.00
C195   C     0.46358   0.47767   0.30464   0.00000  Uiso   1.00
C196   C     0.53641   0.52233   0.02869   0.00000  Uiso   1.00
Cl197  Cl    0.65403   0.45205   0.11259   0.00000  Uiso   1.00
Cl198  Cl    0.34597   0.54801   0.22067   0.00000  Uiso   1.00
Cl199  Cl    0.53713   0.37987   0.07880   0.00000  Uiso   1.00
Cl200  Cl    0.46271   0.62013   0.25445   0.00000  Uiso   1.00
Cl201  Cl    0.49752   0.62464   0.06768   0.00000  Uiso   1.00
Cl202  Cl    0.50246   0.37534   0.26564   0.00000  Uiso   1.00
N203   N     0.42193   0.45680   0.03950   0.00000  Uiso   1.00
O204   O     0.37567   0.46996   0.02888   0.00000  Uiso   1.00
O205   O     0.42742   0.41930   0.05384   0.00000  Uiso   1.00
N206   N     0.57788   0.54339   0.29377   0.00000  Uiso   1.00
O207   O     0.57237   0.58110   0.28014   0.00000  Uiso   1.00
O208   O     0.62415   0.53017   0.30406   0.00000  Uiso   1.00
Cl209  Cl    0.41689   0.44642   0.27094   0.00000  Uiso   1.00
Cl210  Cl    0.58314   0.55355   0.06238   0.00000  Uiso   1.00
O211   O     0.83333   0.43989   0.20625   0.00000  Uiso   1.00
O212   O     0.83334   0.56011   0.12709   0.00000  Uiso   1.00
O213   O     0.83333   0.43988   0.12706   0.00000  Uiso   1.00
O214   O     0.83334   0.56012   0.20628   0.00000  Uiso   1.00
C215   C     0.83638   0.42086   0.16737   0.00000  Uiso   1.00
C216   C     0.83028   0.57914   0.16596   0.00000  Uiso   1.00
O217   O     0.75828   0.50000   0.19712   0.00000  Uiso   1.00
O218   O     0.90839   0.50000   0.13621   0.00000  Uiso   1.00
O219   O     0.75828   0.49999   0.11793   0.00000  Uiso   1.00
O220   O     0.90839   0.50001   0.21540   0.00000  Uiso   1.00
C221   C     0.73478   0.49880   0.15504   0.00000  Uiso   1.00
C222   C     0.93189   0.50120   0.17829   0.00000  Uiso   1.00
Cu223  Cu    0.83333   0.50001   0.21355   0.00000  Uiso   1.00
Cu224  Cu    0.83333   0.49999   0.11978   0.00000  Uiso   1.00
N225   N     0.83335   0.50001   0.28403   0.00000  Uiso   1.00
N226   N     0.83332   0.49999   0.04931   0.00000  Uiso   1.00
C227   C     0.68007   0.49160   0.15098   0.00000  Uiso   1.00
C228   C     0.98660   0.50841   0.18234   0.00000  Uiso   1.00
C229   C     0.84540   0.35523   0.12691   0.00000  Uiso   1.00
C230   C     0.82120   0.64477   0.20639   0.00000  Uiso   1.00
C231   C     0.83621   0.64653   0.12428   0.00000  Uiso   1.00
C232   C     0.83041   0.35346   0.20903   0.00000  Uiso   1.00
C233   C     0.82769   0.62389   0.16502   0.00000  Uiso   1.00
C234   C     0.83894   0.37610   0.16830   0.00000  Uiso   1.00
C235   C     0.79653   0.47801   0.02058   0.00000  Uiso   1.00
C236   C     0.87009   0.52203   0.31274   0.00000  Uiso   1.00
C237   C     0.79692   0.47767   0.30464   0.00000  Uiso   1.00
C238   C     0.86975   0.52233   0.02869   0.00000  Uiso   1.00
Cl239  Cl    0.98737   0.45205   0.11259   0.00000  Uiso   1.00
Cl240  Cl    0.67930   0.54801   0.22067   0.00000  Uiso   1.00
Cl241  Cl    0.87046   0.37987   0.07880   0.00000  Uiso   1.00
Cl242  Cl    0.79605   0.62013   0.25445   0.00000  Uiso   1.00
Cl243  Cl    0.83086   0.62464   0.06768   0.00000  Uiso   1.00
Cl244  Cl    0.83579   0.37534   0.26564   0.00000  Uiso   1.00
N245   N     0.75527   0.45680   0.03950   0.00000  Uiso   1.00
O246   O     0.70900   0.46996   0.02888   0.00000  Uiso   1.00
O247   O     0.76076   0.41930   0.05384   0.00000  Uiso   1.00
N248   N     0.91121   0.54339   0.29377   0.00000  Uiso   1.00
O249   O     0.90570   0.58110   0.28014   0.00000  Uiso   1.00
O250   O     0.95748   0.53017   0.30406   0.00000  Uiso   1.00
Cl251  Cl    0.75022   0.44642   0.27094   0.00000  Uiso   1.00
Cl252  Cl    0.91648   0.55355   0.06238   0.00000  Uiso   1.00
O253   O     0.16666   0.77322   0.20625   0.00000  Uiso   1.00
O254   O     0.16667   0.89345   0.12709   0.00000  Uiso   1.00
O255   O     0.16666   0.77321   0.12706   0.00000  Uiso   1.00
O256   O     0.16667   0.89346   0.20628   0.00000  Uiso   1.00
C257   C     0.16971   0.75419   0.16737   0.00000  Uiso   1.00
C258   C     0.16361   0.91247   0.16596   0.00000  Uiso   1.00
O259   O     0.09161   0.83334   0.19712   0.00000  Uiso   1.00
O260   O     0.24172   0.83333   0.13621   0.00000  Uiso   1.00
O261   O     0.09161   0.83333   0.11793   0.00000  Uiso   1.00
O262   O     0.24172   0.83334   0.21540   0.00000  Uiso   1.00
C263   C     0.06811   0.83213   0.15504   0.00000  Uiso   1.00
C264   C     0.26522   0.83454   0.17829   0.00000  Uiso   1.00
Cu265  Cu    0.16667   0.83334   0.21355   0.00000  Uiso   1.00
Cu266  Cu    0.16667   0.83333   0.11978   0.00000  Uiso   1.00
N267   N     0.16668   0.83334   0.28403   0.00000  Uiso   1.00
N268   N     0.16665   0.83332   0.04931   0.00000  Uiso   1.00
C269   C     0.01340   0.82493   0.15098   0.00000  Uiso   1.00
C270   C     0.31993   0.84175   0.18234   0.00000  Uiso   1.00
C271   C     0.17874   0.68856   0.12691   0.00000  Uiso   1.00
C272   C     0.15453   0.97810   0.20639   0.00000  Uiso   1.00
C273   C     0.16955   0.97986   0.12428   0.00000  Uiso   1.00
C274   C     0.16375   0.68679   0.20903   0.00000  Uiso   1.00
C275   C     0.16102   0.95723   0.16502   0.00000  Uiso   1.00
C276   C     0.17228   0.70944   0.16830   0.00000  Uiso   1.00
C277   C     0.12987   0.81134   0.02058   0.00000  Uiso   1.00
C278   C     0.20342   0.85536   0.31274   0.00000  Uiso   1.00
C279   C     0.13025   0.81100   0.30464   0.00000  Uiso   1.00
C280   C     0.20308   0.85567   0.02869   0.00000  Uiso   1.00
Cl281  Cl    0.32070   0.78538   0.11259   0.00000  Uiso   1.00
Cl282  Cl    0.01263   0.88134   0.22067   0.00000  Uiso   1.00
Cl283  Cl    0.20379   0.71321   0.07880   0.00000  Uiso   1.00
Cl284  Cl    0.12938   0.95346   0.25445   0.00000  Uiso   1.00
Cl285  Cl    0.16419   0.95797   0.06768   0.00000  Uiso   1.00
Cl286  Cl    0.16913   0.70868   0.26564   0.00000  Uiso   1.00
N287   N     0.08860   0.79014   0.03950   0.00000  Uiso   1.00
O288   O     0.04234   0.80329   0.02888   0.00000  Uiso   1.00
O289   O     0.09409   0.75263   0.05384   0.00000  Uiso   1.00
N290   N     0.24454   0.87672   0.29377   0.00000  Uiso   1.00
O291   O     0.23904   0.91443   0.28014   0.00000  Uiso   1.00
O292   O     0.29082   0.86350   0.30406   0.00000  Uiso   1.00
Cl293  Cl    0.08355   0.77976   0.27094   0.00000  Uiso   1.00
Cl294  Cl    0.24981   0.88689   0.06238   0.00000  Uiso   1.00
O295   O     0.50000   0.77322   0.20625   0.00000  Uiso   1.00
O296   O     0.50000   0.89345   0.12709   0.00000  Uiso   1.00
O297   O     0.50000   0.77321   0.12706   0.00000  Uiso   1.00
O298   O     0.50000   0.89346   0.20628   0.00000  Uiso   1.00
C299   C     0.50304   0.75419   0.16737   0.00000  Uiso   1.00
C300   C     0.49695   0.91247   0.16596   0.00000  Uiso   1.00
O301   O     0.42495   0.83334   0.19712   0.00000  Uiso   1.00
O302   O     0.57505   0.83333   0.13621   0.00000  Uiso   1.00
O303   O     0.42494   0.83333   0.11793   0.00000  Uiso   1.00
O304   O     0.57506   0.83334   0.21540   0.00000  Uiso   1.00
C305   C     0.40145   0.83213   0.15504   0.00000  Uiso   1.00
C306   C     0.59855   0.83454   0.17829   0.00000  Uiso   1.00
Cu307  Cu    0.50000   0.83334   0.21355   0.00000  Uiso   1.00
Cu308  Cu    0.50000   0.83333   0.11978   0.00000  Uiso   1.00
N309   N     0.50001   0.83334   0.28403   0.00000  Uiso   1.00
N310   N     0.49999   0.83332   0.04931   0.00000  Uiso   1.00
C311   C     0.34673   0.82493   0.15098   0.00000  Uiso   1.00
C312   C     0.65327   0.84175   0.18234   0.00000  Uiso   1.00
C313   C     0.51207   0.68856   0.12691   0.00000  Uiso   1.00
C314   C     0.48786   0.97810   0.20639   0.00000  Uiso   1.00
C315   C     0.50288   0.97986   0.12428   0.00000  Uiso   1.00
C316   C     0.49708   0.68679   0.20903   0.00000  Uiso   1.00
C317   C     0.49435   0.95723   0.16502   0.00000  Uiso   1.00
C318   C     0.50561   0.70944   0.16830   0.00000  Uiso   1.00
C319   C     0.46320   0.81134   0.02058   0.00000  Uiso   1.00
C320   C     0.53676   0.85536   0.31274   0.00000  Uiso   1.00
C321   C     0.46358   0.81100   0.30464   0.00000  Uiso   1.00
C322   C     0.53641   0.85567   0.02869   0.00000  Uiso   1.00
Cl323  Cl    0.65403   0.78538   0.11259   0.00000  Uiso   1.00
Cl324  Cl    0.34597   0.88134   0.22067   0.00000  Uiso   1.00
Cl325  Cl    0.53713   0.71321   0.07880   0.00000  Uiso   1.00
Cl326  Cl    0.46271   0.95346   0.25445   0.00000  Uiso   1.00
Cl327  Cl    0.49752   0.95797   0.06768   0.00000  Uiso   1.00
Cl328  Cl    0.50246   0.70868   0.26564   0.00000  Uiso   1.00
N329   N     0.42193   0.79014   0.03950   0.00000  Uiso   1.00
O330   O     0.37567   0.80329   0.02888   0.00000  Uiso   1.00
O331   O     0.42742   0.75263   0.05384   0.00000  Uiso   1.00
N332   N     0.57788   0.87672   0.29377   0.00000  Uiso   1.00
O333   O     0.57237   0.91443   0.28014   0.00000  Uiso   1.00
O334   O     0.62415   0.86350   0.30406   0.00000  Uiso   1.00
Cl335  Cl    0.41689   0.77976   0.27094   0.00000  Uiso   1.00
Cl336  Cl    0.58314   0.88689   0.06238   0.00000  Uiso   1.00
O337   O     0.83333   0.77322   0.20625   0.00000  Uiso   1.00
O338   O     0.83334   0.89345   0.12709   0.00000  Uiso   1.00
O339   O     0.83333   0.77321   0.12706   0.00000  Uiso   1.00
O340   O     0.83334   0.89346   0.20628   0.00000  Uiso   1.00
C341   C     0.83638   0.75419   0.16737   0.00000  Uiso   1.00
C342   C     0.83028   0.91247   0.16596   0.00000  Uiso   1.00
O343   O     0.75828   0.83334   0.19712   0.00000  Uiso   1.00
O344   O     0.90839   0.83333   0.13621   0.00000  Uiso   1.00
O345   O     0.75828   0.83333   0.11793   0.00000  Uiso   1.00
O346   O     0.90839   0.83334   0.21540   0.00000  Uiso   1.00
C347   C     0.73478   0.83213   0.15504   0.00000  Uiso   1.00
C348   C     0.93189   0.83454   0.17829   0.00000  Uiso   1.00
Cu349  Cu    0.83333   0.83334   0.21355   0.00000  Uiso   1.00
Cu350  Cu    0.83333   0.83333   0.11978   0.00000  Uiso   1.00
N351   N     0.83335   0.83334   0.28403   0.00000  Uiso   1.00
N352   N     0.83332   0.83332   0.04931   0.00000  Uiso   1.00
C353   C     0.68007   0.82493   0.15098   0.00000  Uiso   1.00
C354   C     0.98660   0.84175   0.18234   0.00000  Uiso   1.00
C355   C     0.84540   0.68856   0.12691   0.00000  Uiso   1.00
C356   C     0.82120   0.97810   0.20639   0.00000  Uiso   1.00
C357   C     0.83621   0.97986   0.12428   0.00000  Uiso   1.00
C358   C     0.83041   0.68679   0.20903   0.00000  Uiso   1.00
C359   C     0.82769   0.95723   0.16502   0.00000  Uiso   1.00
C360   C     0.83894   0.70944   0.16830   0.00000  Uiso   1.00
C361   C     0.79653   0.81134   0.02058   0.00000  Uiso   1.00
C362   C     0.87009   0.85536   0.31274   0.00000  Uiso   1.00
C363   C     0.79692   0.81100   0.30464   0.00000  Uiso   1.00
C364   C     0.86975   0.85567   0.02869   0.00000  Uiso   1.00
Cl365  Cl    0.98737   0.78538   0.11259   0.00000  Uiso   1.00
Cl366  Cl    0.67930   0.88134   0.22067   0.00000  Uiso   1.00
Cl367  Cl    0.87046   0.71321   0.07880   0.00000  Uiso   1.00
Cl368  Cl    0.79605   0.95346   0.25445   0.00000  Uiso   1.00
Cl369  Cl    0.83086   0.95797   0.06768   0.00000  Uiso   1.00
Cl370  Cl    0.83579   0.70868   0.26564   0.00000  Uiso   1.00
N371   N     0.75527   0.79014   0.03950   0.00000  Uiso   1.00
O372   O     0.70900   0.80329   0.02888   0.00000  Uiso   1.00
O373   O     0.76076   0.75263   0.05384   0.00000  Uiso   1.00
N374   N     0.91121   0.87672   0.29377   0.00000  Uiso   1.00
O375   O     0.90570   0.91443   0.28014   0.00000  Uiso   1.00
O376   O     0.95748   0.86350   0.30406   0.00000  Uiso   1.00
Cl377  Cl    0.75022   0.77976   0.27094   0.00000  Uiso   1.00
Cl378  Cl    0.91648   0.88689   0.06238   0.00000  Uiso   1.00
O379   O     0.16666   0.10655   0.53958   0.00000  Uiso   1.00
O380   O     0.16667   0.22678   0.46042   0.00000  Uiso   1.00
O381   O     0.16666   0.10654   0.46039   0.00000  Uiso   1.00
O382   O     0.16667   0.22679   0.53961   0.00000  Uiso   1.00
C383   C     0.16971   0.08753   0.50070   0.00000  Uiso   1.00
C384   C     0.16361   0.24580   0.49930   0.00000  Uiso   1.00
O385   O     0.09161   0.16667   0.53046   0.00000  Uiso   1.00
O386   O     0.24172   0.16666   0.46954   0.00000  Uiso   1.00
O387   O     0.09161   0.16666   0.45127   0.00000  Uiso   1.00
O388   O     0.24172   0.16667   0.54873   0.00000  Uiso   1.00
C389   C     0.06811   0.16547   0.48837   0.00000  Uiso   1.00
C390   C     0.26522   0.16787   0.51162   0.00000  Uiso   1.00
Cu391  Cu    0.16667   0.16667   0.54689   0.00000  Uiso   1.00
Cu392  Cu    0.16667   0.16666   0.45311   0.00000  Uiso   1.00
N393   N     0.16668   0.16668   0.61736   0.00000  Uiso   1.00
N394   N     0.16665   0.16666   0.38264   0.00000  Uiso   1.00
C395   C     0.01340   0.15826   0.48431   0.00000  Uiso   1.00
C396   C     0.31993   0.17508   0.51567   0.00000  Uiso   1.00
C397   C     0.17874   0.02190   0.46025   0.00000  Uiso   1.00
C398   C     0.15453   0.31143   0.53972   0.00000  Uiso   1.00
C399   C     0.16955   0.31320   0.45762   0.00000  Uiso   1.00
C400   C     0.16375   0.02013   0.54236   0.00000  Uiso   1.00
C401   C     0.16102   0.29056   0.49835   0.00000  Uiso   1.00
C402   C     0.17228   0.04277   0.50163   0.00000  Uiso   1.00
C403   C     0.12987   0.14467   0.35391   0.00000  Uiso   1.00
C404   C     0.20342   0.18870   0.64607   0.00000  Uiso   1.00
C405   C     0.13025   0.14434   0.63797   0.00000  Uiso   1.00
C406   C     0.20308   0.18900   0.36202   0.00000  Uiso   1.00
Cl407  Cl    0.32070   0.11871   0.44592   0.00000  Uiso   1.00
Cl408  Cl    0.01263   0.21467   0.55400   0.00000  Uiso   1.00
Cl409  Cl    0.20379   0.04654   0.41214   0.00000  Uiso   1.00
Cl410  Cl    0.12938   0.28679   0.58779   0.00000  Uiso   1.00
Cl411  Cl    0.16419   0.29130   0.40101   0.00000  Uiso   1.00
Cl412  Cl    0.16913   0.04201   0.59897   0.00000  Uiso   1.00
N413   N     0.08860   0.12347   0.37284   0.00000  Uiso   1.00
O414   O     0.04234   0.13662   0.36221   0.00000  Uiso   1.00
O415   O     0.09409   0.08596   0.38717   0.00000  Uiso   1.00
N416   N     0.24454   0.21006   0.62710   0.00000  Uiso   1.00
O417   O     0.23904   0.24777   0.61347   0.00000  Uiso   1.00
O418   O     0.29082   0.19683   0.63740   0.00000  Uiso   1.00
Cl419  Cl    0.08355   0.11309   0.60428   0.00000  Uiso   1.00
Cl420  Cl    0.24981   0.22022   0.39571   0.00000  Uiso   1.00
O421   O     0.50000   0.10655   0.53958   0.00000  Uiso   1.00
O422   O     0.50000   0.22678   0.46042   0.00000  Uiso   1.00
O423   O     0.50000   0.10654   0.46039   0.00000  Uiso   1.00
O424   O     0.50000   0.22679   0.53961   0.00000  Uiso   1.00
C425   C     0.50304   0.08753   0.50070   0.00000  Uiso   1.00
C426   C     0.49695   0.24580   0.49930   0.00000  Uiso   1.00
O427   O     0.42495   0.16667   0.53046   0.00000  Uiso   1.00
O428   O     0.57505   0.16666   0.46954   0.00000  Uiso   1.00
O429   O     0.42494   0.16666   0.45127   0.00000  Uiso   1.00
O430   O     0.57506   0.16667   0.54873   0.00000  Uiso   1.00
C431   C     0.40145   0.16547   0.48837   0.00000  Uiso   1.00
C432   C     0.59855   0.16787   0.51162   0.00000  Uiso   1.00
Cu433  Cu    0.50000   0.16667   0.54689   0.00000  Uiso   1.00
Cu434  Cu    0.50000   0.16666   0.45311   0.00000  Uiso   1.00
N435   N     0.50001   0.16668   0.61736   0.00000  Uiso   1.00
N436   N     0.49999   0.16666   0.38264   0.00000  Uiso   1.00
C437   C     0.34673   0.15826   0.48431   0.00000  Uiso   1.00
C438   C     0.65327   0.17508   0.51567   0.00000  Uiso   1.00
C439   C     0.51207   0.02190   0.46025   0.00000  Uiso   1.00
C440   C     0.48786   0.31143   0.53972   0.00000  Uiso   1.00
C441   C     0.50288   0.31320   0.45762   0.00000  Uiso   1.00
C442   C     0.49708   0.02013   0.54236   0.00000  Uiso   1.00
C443   C     0.49435   0.29056   0.49835   0.00000  Uiso   1.00
C444   C     0.50561   0.04277   0.50163   0.00000  Uiso   1.00
C445   C     0.46320   0.14467   0.35391   0.00000  Uiso   1.00
C446   C     0.53676   0.18870   0.64607   0.00000  Uiso   1.00
C447   C     0.46358   0.14434   0.63797   0.00000  Uiso   1.00
C448   C     0.53641   0.18900   0.36202   0.00000  Uiso   1.00
Cl449  Cl    0.65403   0.11871   0.44592   0.00000  Uiso   1.00
Cl450  Cl    0.34597   0.21467   0.55400   0.00000  Uiso   1.00
Cl451  Cl    0.53713   0.04654   0.41214   0.00000  Uiso   1.00
Cl452  Cl    0.46271   0.28679   0.58779   0.00000  Uiso   1.00
Cl453  Cl    0.49752   0.29130   0.40101   0.00000  Uiso   1.00
Cl454  Cl    0.50246   0.04201   0.59897   0.00000  Uiso   1.00
N455   N     0.42193   0.12347   0.37284   0.00000  Uiso   1.00
O456   O     0.37567   0.13662   0.36221   0.00000  Uiso   1.00
O457   O     0.42742   0.08596   0.38717   0.00000  Uiso   1.00
N458   N     0.57788   0.21006   0.62710   0.00000  Uiso   1.00
O459   O     0.57237   0.24777   0.61347   0.00000  Uiso   1.00
O460   O     0.62415   0.19683   0.63740   0.00000  Uiso   1.00
Cl461  Cl    0.41689   0.11309   0.60428   0.00000  Uiso   1.00
Cl462  Cl    0.58314   0.22022   0.39571   0.00000  Uiso   1.00
O463   O     0.83333   0.10655   0.53958   0.00000  Uiso   1.00
O464   O     0.83334   0.22678   0.46042   0.00000  Uiso   1.00
O465   O     0.83333   0.10654   0.46039   0.00000  Uiso   1.00
O466   O     0.83334   0.22679   0.53961   0.00000  Uiso   1.00
C467   C     0.83638   0.08753   0.50070   0.00000  Uiso   1.00
C468   C     0.83028   0.24580   0.49930   0.00000  Uiso   1.00
O469   O     0.75828   0.16667   0.53046   0.00000  Uiso   1.00
O470   O     0.90839   0.16666   0.46954   0.00000  Uiso   1.00
O471   O     0.75828   0.16666   0.45127   0.00000  Uiso   1.00
O472   O     0.90839   0.16667   0.54873   0.00000  Uiso   1.00
C473   C     0.73478   0.16547   0.48837   0.00000  Uiso   1.00
C474   C     0.93189   0.16787   0.51162   0.00000  Uiso   1.00
Cu475  Cu    0.83333   0.16667   0.54689   0.00000  Uiso   1.00
Cu476  Cu    0.83333   0.16666   0.45311   0.00000  Uiso   1.00
N477   N     0.83335   0.16668   0.61736   0.00000  Uiso   1.00
N478   N     0.83332   0.16666   0.38264   0.00000  Uiso   1.00
C479   C     0.68007   0.15826   0.48431   0.00000  Uiso   1.00
C480   C     0.98660   0.17508   0.51567   0.00000  Uiso   1.00
C481   C     0.84540   0.02190   0.46025   0.00000  Uiso   1.00
C482   C     0.82120   0.31143   0.53972   0.00000  Uiso   1.00
C483   C     0.83621   0.31320   0.45762   0.00000  Uiso   1.00
C484   C     0.83041   0.02013   0.54236   0.00000  Uiso   1.00
C485   C     0.82769   0.29056   0.49835   0.00000  Uiso   1.00
C486   C     0.83894   0.04277   0.50163   0.00000  Uiso   1.00
C487   C     0.79653   0.14467   0.35391   0.00000  Uiso   1.00
C488   C     0.87009   0.18870   0.64607   0.00000  Uiso   1.00
C489   C     0.79692   0.14434   0.63797   0.00000  Uiso   1.00
C490   C     0.86975   0.18900   0.36202   0.00000  Uiso   1.00
Cl491  Cl    0.98737   0.11871   0.44592   0.00000  Uiso   1.00
Cl492  Cl    0.67930   0.21467   0.55400   0.00000  Uiso   1.00
Cl493  Cl    0.87046   0.04654   0.41214   0.00000  Uiso   1.00
Cl494  Cl    0.79605   0.28679   0.58779   0.00000  Uiso   1.00
Cl495  Cl    0.83086   0.29130   0.40101   0.00000  Uiso   1.00
Cl496  Cl    0.83579   0.04201   0.59897   0.00000  Uiso   1.00
N497   N     0.75527   0.12347   0.37284   0.00000  Uiso   1.00
O498   O     0.70900   0.13662   0.36221   0.00000  Uiso   1.00
O499   O     0.76076   0.08596   0.38717   0.00000  Uiso   1.00
N500   N     0.91121   0.21006   0.62710   0.00000  Uiso   1.00
O501   O     0.90570   0.24777   0.61347   0.00000  Uiso   1.00
O502   O     0.95748   0.19683   0.63740   0.00000  Uiso   1.00
Cl503  Cl    0.75022   0.11309   0.60428   0.00000  Uiso   1.00
Cl504  Cl    0.91648   0.22022   0.39571   0.00000  Uiso   1.00
O505   O     0.16666   0.43989   0.53958   0.00000  Uiso   1.00
O506   O     0.16667   0.56011   0.46042   0.00000  Uiso   1.00
O507   O     0.16666   0.43988   0.46039   0.00000  Uiso   1.00
O508   O     0.16667   0.56012   0.53961   0.00000  Uiso   1.00
C509   C     0.16971   0.42086   0.50070   0.00000  Uiso   1.00
C510   C     0.16361   0.57914   0.49930   0.00000  Uiso   1.00
O511   O     0.09161   0.50000   0.53046   0.00000  Uiso   1.00
O512   O     0.24172   0.50000   0.46954   0.00000  Uiso   1.00
O513   O     0.09161   0.49999   0.45127   0.00000  Uiso   1.00
O514   O     0.24172   0.50001   0.54873   0.00000  Uiso   1.00
C515   C     0.06811   0.49880   0.48837   0.00000  Uiso   1.00
C516   C     0.26522   0.50120   0.51162   0.00000  Uiso   1.00
Cu517  Cu    0.16667   0.50001   0.54689   0.00000  Uiso   1.00
Cu518  Cu    0.16667   0.49999   0.45311   0.00000  Uiso   1.00
N519   N     0.16668   0.50001   0.61736   0.00000  Uiso   1.00
N520   N     0.16665   0.49999   0.38264   0.00000  Uiso   1.00
C521   C     0.01340   0.49160   0.48431   0.00000  Uiso   1.00
C522   C     0.31993   0.50841   0.51567   0.00000  Uiso   1.00
C523   C     0.17874   0.35523   0.46025   0.00000  Uiso   1.00
C524   C     0.15453   0.64477   0.53972   0.00000  Uiso   1.00
C525   C     0.16955   0.64653   0.45762   0.00000  Uiso   1.00
C526   C     0.16375   0.35346   0.54236   0.00000  Uiso   1.00
C527   C     0.16102   0.62389   0.49835   0.00000  Uiso   1.00
C528   C     0.17228   0.37610   0.50163   0.00000  Uiso   1.00
C529   C     0.12987   0.47801   0.35391   0.00000  Uiso   1.00
C530   C     0.20342   0.52203   0.64607   0.00000  Uiso   1.00
C531   C     0.13025   0.47767   0.63797   0.00000  Uiso   1.00
C532   C     0.20308   0.52233   0.36202   0.00000  Uiso   1.00
Cl533  Cl    0.32070   0.45205   0.44592   0.00000  Uiso   1.00
Cl534  Cl    0.01263   0.54801   0.55400   0.00000  Uiso   1.00
Cl535  Cl    0.20379   0.37987   0.41214   0.00000  Uiso   1.00
Cl536  Cl    0.12938   0.62013   0.58779   0.00000  Uiso   1.00
Cl537  Cl    0.16419   0.62464   0.40101   0.00000  Uiso   1.00
Cl538  Cl    0.16913   0.37534   0.59897   0.00000  Uiso   1.00
N539   N     0.08860   0.45680   0.37284   0.00000  Uiso   1.00
O540   O     0.04234   0.46996   0.36221   0.00000  Uiso   1.00
O541   O     0.09409   0.41930   0.38717   0.00000  Uiso   1.00
N542   N     0.24454   0.54339   0.62710   0.00000  Uiso   1.00
O543   O     0.23904   0.58110   0.61347   0.00000  Uiso   1.00
O544   O     0.29082   0.53017   0.63740   0.00000  Uiso   1.00
Cl545  Cl    0.08355   0.44642   0.60428   0.00000  Uiso   1.00
Cl546  Cl    0.24981   0.55355   0.39571   0.00000  Uiso   1.00
O547   O     0.50000   0.43989   0.53958   0.00000  Uiso   1.00
O548   O     0.50000   0.56011   0.46042   0.00000  Uiso   1.00
O549   O     0.50000   0.43988   0.46039   0.00000  Uiso   1.00
O550   O     0.50000   0.56012   0.53961   0.00000  Uiso   1.00
C551   C     0.50304   0.42086   0.50070   0.00000  Uiso   1.00
C552   C     0.49695   0.57914   0.49930   0.00000  Uiso   1.00
O553   O     0.42495   0.50000   0.53046   0.00000  Uiso   1.00
O554   O     0.57505   0.50000   0.46954   0.00000  Uiso   1.00
O555   O     0.42494   0.49999   0.45127   0.00000  Uiso   1.00
O556   O     0.57506   0.50001   0.54873   0.00000  Uiso   1.00
C557   C     0.40145   0.49880   0.48837   0.00000  Uiso   1.00
C558   C     0.59855   0.50120   0.51162   0.00000  Uiso   1.00
Cu559  Cu    0.50000   0.50001   0.54689   0.00000  Uiso   1.00
Cu560  Cu    0.50000   0.49999   0.45311   0.00000  Uiso   1.00
N561   N     0.50001   0.50001   0.61736   0.00000  Uiso   1.00
N562   N     0.49999   0.49999   0.38264   0.00000  Uiso   1.00
C563   C     0.34673   0.49160   0.48431   0.00000  Uiso   1.00
C564   C     0.65327   0.50841   0.51567   0.00000  Uiso   1.00
C565   C     0.51207   0.35523   0.46025   0.00000  Uiso   1.00
C566   C     0.48786   0.64477   0.53972   0.00000  Uiso   1.00
C567   C     0.50288   0.64653   0.45762   0.00000  Uiso   1.00
C568   C     0.49708   0.35346   0.54236   0.00000  Uiso   1.00
C569   C     0.49435   0.62389   0.49835   0.00000  Uiso   1.00
C570   C     0.50561   0.37610   0.50163   0.00000  Uiso   1.00
C571   C     0.46320   0.47801   0.35391   0.00000  Uiso   1.00
C572   C     0.53676   0.52203   0.64607   0.00000  Uiso   1.00
C573   C     0.46358   0.47767   0.63797   0.00000  Uiso   1.00
C574   C     0.53641   0.52233   0.36202   0.00000  Uiso   1.00
Cl575  Cl    0.65403   0.45205   0.44592   0.00000  Uiso   1.00
Cl576  Cl    0.34597   0.54801   0.55400   0.00000  Uiso   1.00
Cl577  Cl    0.53713   0.37987   0.41214   0.00000  Uiso   1.00
Cl578  Cl    0.46271   0.62013   0.58779   0.00000  Uiso   1.00
Cl579  Cl    0.49752   0.62464   0.40101   0.00000  Uiso   1.00
Cl580  Cl    0.50246   0.37534   0.59897   0.00000  Uiso   1.00
N581   N     0.42193   0.45680   0.37284   0.00000  Uiso   1.00
O582   O     0.37567   0.46996   0.36221   0.00000  Uiso   1.00
O583   O     0.42742   0.41930   0.38717   0.00000  Uiso   1.00
N584   N     0.57788   0.54339   0.62710   0.00000  Uiso   1.00
O585   O     0.57237   0.58110   0.61347   0.00000  Uiso   1.00
O586   O     0.62415   0.53017   0.63740   0.00000  Uiso   1.00
Cl587  Cl    0.41689   0.44642   0.60428   0.00000  Uiso   1.00
Cl588  Cl    0.58314   0.55355   0.39571   0.00000  Uiso   1.00
O589   O     0.83333   0.43989   0.53958   0.00000  Uiso   1.00
O590   O     0.83334   0.56011   0.46042   0.00000  Uiso   1.00
O591   O     0.83333   0.43988   0.46039   0.00000  Uiso   1.00
O592   O     0.83334   0.56012   0.53961   0.00000  Uiso   1.00
C593   C     0.83638   0.42086   0.50070   0.00000  Uiso   1.00
C594   C     0.83028   0.57914   0.49930   0.00000  Uiso   1.00
O595   O     0.75828   0.50000   0.53046   0.00000  Uiso   1.00
O596   O     0.90839   0.50000   0.46954   0.00000  Uiso   1.00
O597   O     0.75828   0.49999   0.45127   0.00000  Uiso   1.00
O598   O     0.90839   0.50001   0.54873   0.00000  Uiso   1.00
C599   C     0.73478   0.49880   0.48837   0.00000  Uiso   1.00
C600   C     0.93189   0.50120   0.51162   0.00000  Uiso   1.00
Cu601  Cu    0.83333   0.50001   0.54689   0.00000  Uiso   1.00
Cu602  Cu    0.83333   0.49999   0.45311   0.00000  Uiso   1.00
N603   N     0.83335   0.50001   0.61736   0.00000  Uiso   1.00
N604   N     0.83332   0.49999   0.38264   0.00000  Uiso   1.00
C605   C     0.68007   0.49160   0.48431   0.00000  Uiso   1.00
C606   C     0.98660   0.50841   0.51567   0.00000  Uiso   1.00
C607   C     0.84540   0.35523   0.46025   0.00000  Uiso   1.00
C608   C     0.82120   0.64477   0.53972   0.00000  Uiso   1.00
C609   C     0.83621   0.64653   0.45762   0.00000  Uiso   1.00
C610   C     0.83041   0.35346   0.54236   0.00000  Uiso   1.00
C611   C     0.82769   0.62389   0.49835   0.00000  Uiso   1.00
C612   C     0.83894   0.37610   0.50163   0.00000  Uiso   1.00
C613   C     0.79653   0.47801   0.35391   0.00000  Uiso   1.00
C614   C     0.87009   0.52203   0.64607   0.00000  Uiso   1.00
C615   C     0.79692   0.47767   0.63797   0.00000  Uiso   1.00
C616   C     0.86975   0.52233   0.36202   0.00000  Uiso   1.00
Cl617  Cl    0.98737   0.45205   0.44592   0.00000  Uiso   1.00
Cl618  Cl    0.67930   0.54801   0.55400   0.00000  Uiso   1.00
Cl619  Cl    0.87046   0.37987   0.41214   0.00000  Uiso   1.00
Cl620  Cl    0.79605   0.62013   0.58779   0.00000  Uiso   1.00
Cl621  Cl    0.83086   0.62464   0.40101   0.00000  Uiso   1.00
Cl622  Cl    0.83579   0.37534   0.59897   0.00000  Uiso   1.00
N623   N     0.75527   0.45680   0.37284   0.00000  Uiso   1.00
O624   O     0.70900   0.46996   0.36221   0.00000  Uiso   1.00
O625   O     0.76076   0.41930   0.38717   0.00000  Uiso   1.00
N626   N     0.91121   0.54339   0.62710   0.00000  Uiso   1.00
O627   O     0.90570   0.58110   0.61347   0.00000  Uiso   1.00
O628   O     0.95748   0.53017   0.63740   0.00000  Uiso   1.00
Cl629  Cl    0.75022   0.44642   0.60428   0.00000  Uiso   1.00
Cl630  Cl    0.91648   0.55355   0.39571   0.00000  Uiso   1.00
O631   O     0.16666   0.77322   0.53958   0.00000  Uiso   1.00
O632   O     0.16667   0.89345   0.46042   0.00000  Uiso   1.00
O633   O     0.16666   0.77321   0.46039   0.00000  Uiso   1.00
O634   O     0.16667   0.89346   0.53961   0.00000  Uiso   1.00
C635   C     0.16971   0.75419   0.50070   0.00000  Uiso   1.00
C636   C     0.16361   0.91247   0.49930   0.00000  Uiso   1.00
O637   O     0.09161   0.83334   0.53046   0.00000  Uiso   1.00
O638   O     0.24172   0.83333   0.46954   0.00000  Uiso   1.00
O639   O     0.09161   0.83333   0.45127   0.00000  Uiso   1.00
O640   O     0.24172   0.83334   0.54873   0.00000  Uiso   1.00
C641   C     0.06811   0.83213   0.48837   0.00000  Uiso   1.00
C642   C     0.26522   0.83454   0.51162   0.00000  Uiso   1.00
Cu643  Cu    0.16667   0.83334   0.54689   0.00000  Uiso   1.00
Cu644  Cu    0.16667   0.83333   0.45311   0.00000  Uiso   1.00
N645   N     0.16668   0.83334   0.61736   0.00000  Uiso   1.00
N646   N     0.16665   0.83332   0.38264   0.00000  Uiso   1.00
C647   C     0.01340   0.82493   0.48431   0.00000  Uiso   1.00
C648   C     0.31993   0.84175   0.51567   0.00000  Uiso   1.00
C649   C     0.17874   0.68856   0.46025   0.00000  Uiso   1.00
C650   C     0.15453   0.97810   0.53972   0.00000  Uiso   1.00
C651   C     0.16955   0.97986   0.45762   0.00000  Uiso   1.00
C652   C     0.16375   0.68679   0.54236   0.00000  Uiso   1.00
C653   C     0.16102   0.95723   0.49835   0.00000  Uiso   1.00
C654   C     0.17228   0.70944   0.50163   0.00000  Uiso   1.00
C655   C     0.12987   0.81134   0.35391   0.00000  Uiso   1.00
C656   C     0.20342   0.85536   0.64607   0.00000  Uiso   1.00
C657   C     0.13025   0.81100   0.63797   0.00000  Uiso   1.00
C658   C     0.20308   0.85567   0.36202   0.00000  Uiso   1.00
Cl659  Cl    0.32070   0.78538   0.44592   0.00000  Uiso   1.00
Cl660  Cl    0.01263   0.88134   0.55400   0.00000  Uiso   1.00
Cl661  Cl    0.20379   0.71321   0.41214   0.00000  Uiso   1.00
Cl662  Cl    0.12938   0.95346   0.58779   0.00000  Uiso   1.00
Cl663  Cl    0.16419   0.95797   0.40101   0.00000  Uiso   1.00
Cl664  Cl    0.16913   0.70868   0.59897   0.00000  Uiso   1.00
N665   N     0.08860   0.79014   0.37284   0.00000  Uiso   1.00
O666   O     0.04234   0.80329   0.36221   0.00000  Uiso   1.00
O667   O     0.09409   0.75263   0.38717   0.00000  Uiso   1.00
N668   N     0.24454   0.87672   0.62710   0.00000  Uiso   1.00
O669   O     0.23904   0.91443   0.61347   0.00000  Uiso   1.00
O670   O     0.29082   0.86350   0.63740   0.00000  Uiso   1.00
Cl671  Cl    0.08355   0.77976   0.60428   0.00000  Uiso   1.00
Cl672  Cl    0.24981   0.88689   0.39571   0.00000  Uiso   1.00
O673   O     0.50000   0.77322   0.53958   0.00000  Uiso   1.00
O674   O     0.50000   0.89345   0.46042   0.00000  Uiso   1.00
O675   O     0.50000   0.77321   0.46039   0.00000  Uiso   1.00
O676   O     0.50000   0.89346   0.53961   0.00000  Uiso   1.00
C677   C     0.50304   0.75419   0.50070   0.00000  Uiso   1.00
C678   C     0.49695   0.91247   0.49930   0.00000  Uiso   1.00
O679   O     0.42495   0.83334   0.53046   0.00000  Uiso   1.00
O680   O     0.57505   0.83333   0.46954   0.00000  Uiso   1.00
O681   O     0.42494   0.83333   0.45127   0.00000  Uiso   1.00
O682   O     0.57506   0.83334   0.54873   0.00000  Uiso   1.00
C683   C     0.40145   0.83213   0.48837   0.00000  Uiso   1.00
C684   C     0.59855   0.83454   0.51162   0.00000  Uiso   1.00
Cu685  Cu    0.50000   0.83334   0.54689   0.00000  Uiso   1.00
Cu686  Cu    0.50000   0.83333   0.45311   0.00000  Uiso   1.00
N687   N     0.50001   0.83334   0.61736   0.00000  Uiso   1.00
N688   N     0.49999   0.83332   0.38264   0.00000  Uiso   1.00
C689   C     0.34673   0.82493   0.48431   0.00000  Uiso   1.00
C690   C     0.65327   0.84175   0.51567   0.00000  Uiso   1.00
C691   C     0.51207   0.68856   0.46025   0.00000  Uiso   1.00
C692   C     0.48786   0.97810   0.53972   0.00000  Uiso   1.00
C693   C     0.50288   0.97986   0.45762   0.00000  Uiso   1.00
C694   C     0.49708   0.68679   0.54236   0.00000  Uiso   1.00
C695   C     0.49435   0.95723   0.49835   0.00000  Uiso   1.00
C696   C     0.50561   0.70944   0.50163   0.00000  Uiso   1.00
C697   C     0.46320   0.81134   0.35391   0.00000  Uiso   1.00
C698   C     0.53676   0.85536   0.64607   0.00000  Uiso   1.00
C699   C     0.46358   0.81100   0.63797   0.00000  Uiso   1.00
C700   C     0.53641   0.85567   0.36202   0.00000  Uiso   1.00
Cl701  Cl    0.65403   0.78538   0.44592   0.00000  Uiso   1.00
Cl702  Cl    0.34597   0.88134   0.55400   0.00000  Uiso   1.00
Cl703  Cl    0.53713   0.71321   0.41214   0.00000  Uiso   1.00
Cl704  Cl    0.46271   0.95346   0.58779   0.00000  Uiso   1.00
Cl705  Cl    0.49752   0.95797   0.40101   0.00000  Uiso   1.00
Cl706  Cl    0.50246   0.70868   0.59897   0.00000  Uiso   1.00
N707   N     0.42193   0.79014   0.37284   0.00000  Uiso   1.00
O708   O     0.37567   0.80329   0.36221   0.00000  Uiso   1.00
O709   O     0.42742   0.75263   0.38717   0.00000  Uiso   1.00
N710   N     0.57788   0.87672   0.62710   0.00000  Uiso   1.00
O711   O     0.57237   0.91443   0.61347   0.00000  Uiso   1.00
O712   O     0.62415   0.86350   0.63740   0.00000  Uiso   1.00
Cl713  Cl    0.41689   0.77976   0.60428   0.00000  Uiso   1.00
Cl714  Cl    0.58314   0.88689   0.39571   0.00000  Uiso   1.00
O715   O     0.83333   0.77322   0.53958   0.00000  Uiso   1.00
O716   O     0.83334   0.89345   0.46042   0.00000  Uiso   1.00
O717   O     0.83333   0.77321   0.46039   0.00000  Uiso   1.00
O718   O     0.83334   0.89346   0.53961   0.00000  Uiso   1.00
C719   C     0.83638   0.75419   0.50070   0.00000  Uiso   1.00
C720   C     0.83028   0.91247   0.49930   0.00000  Uiso   1.00
O721   O     0.75828   0.83334   0.53046   0.00000  Uiso   1.00
O722   O     0.90839   0.83333   0.46954   0.00000  Uiso   1.00
O723   O     0.75828   0.83333   0.45127   0.00000  Uiso   1.00
O724   O     0.90839   0.83334   0.54873   0.00000  Uiso   1.00
C725   C     0.73478   0.83213   0.48837   0.00000  Uiso   1.00
C726   C     0.93189   0.83454   0.51162   0.00000  Uiso   1.00
Cu727  Cu    0.83333   0.83334   0.54689   0.00000  Uiso   1.00
Cu728  Cu    0.83333   0.83333   0.45311   0.00000  Uiso   1.00
N729   N     0.83335   0.83334   0.61736   0.00000  Uiso   1.00
N730   N     0.83332   0.83332   0.38264   0.00000  Uiso   1.00
C731   C     0.68007   0.82493   0.48431   0.00000  Uiso   1.00
C732   C     0.98660   0.84175   0.51567   0.00000  Uiso   1.00
C733   C     0.84540   0.68856   0.46025   0.00000  Uiso   1.00
C734   C     0.82120   0.97810   0.53972   0.00000  Uiso   1.00
C735   C     0.83621   0.97986   0.45762   0.00000  Uiso   1.00
C736   C     0.83041   0.68679   0.54236   0.00000  Uiso   1.00
C737   C     0.82769   0.95723   0.49835   0.00000  Uiso   1.00
C738   C     0.83894   0.70944   0.50163   0.00000  Uiso   1.00
C739   C     0.79653   0.81134   0.35391   0.00000  Uiso   1.00
C740   C     0.87009   0.85536   0.64607   0.00000  Uiso   1.00
C741   C     0.79692   0.81100   0.63797   0.00000  Uiso   1.00
C742   C     0.86975   0.85567   0.36202   0.00000  Uiso   1.00
Cl743  Cl    0.98737   0.78538   0.44592   0.00000  Uiso   1.00
Cl744  Cl    0.67930   0.88134   0.55400   0.00000  Uiso   1.00
Cl745  Cl    0.87046   0.71321   0.41214   0.00000  Uiso   1.00
Cl746  Cl    0.79605   0.95346   0.58779   0.00000  Uiso   1.00
Cl747  Cl    0.83086   0.95797   0.40101   0.00000  Uiso   1.00
Cl748  Cl    0.83579   0.70868   0.59897   0.00000  Uiso   1.00
N749   N     0.75527   0.79014   0.37284   0.00000  Uiso   1.00
O750   O     0.70900   0.80329   0.36221   0.00000  Uiso   1.00
O751   O     0.76076   0.75263   0.38717   0.00000  Uiso   1.00
N752   N     0.91121   0.87672   0.62710   0.00000  Uiso   1.00
O753   O     0.90570   0.91443   0.61347   0.00000  Uiso   1.00
O754   O     0.95748   0.86350   0.63740   0.00000  Uiso   1.00
Cl755  Cl    0.75022   0.77976   0.60428   0.00000  Uiso   1.00
Cl756  Cl    0.91648   0.88689   0.39571   0.00000  Uiso   1.00
O757   O     0.16666   0.10655   0.87291   0.00000  Uiso   1.00
O758   O     0.16667   0.22678   0.79375   0.00000  Uiso   1.00
O759   O     0.16666   0.10654   0.79372   0.00000  Uiso   1.00
O760   O     0.16667   0.22679   0.87294   0.00000  Uiso   1.00
C761   C     0.16971   0.08753   0.83403   0.00000  Uiso   1.00
C762   C     0.16361   0.24580   0.83263   0.00000  Uiso   1.00
O763   O     0.09161   0.16667   0.86379   0.00000  Uiso   1.00
O764   O     0.24172   0.16666   0.80288   0.00000  Uiso   1.00
O765   O     0.09161   0.16666   0.78460   0.00000  Uiso   1.00
O766   O     0.24172   0.16667   0.88207   0.00000  Uiso   1.00
C767   C     0.06811   0.16547   0.82171   0.00000  Uiso   1.00
C768   C     0.26522   0.16787   0.84496   0.00000  Uiso   1.00
Cu769  Cu    0.16667   0.16667   0.88022   0.00000  Uiso   1.00
Cu770  Cu    0.16667   0.16666   0.78645   0.00000  Uiso   1.00
N771   N     0.16668   0.16668   0.95069   0.00000  Uiso   1.00
N772   N     0.16665   0.16666   0.71597   0.00000  Uiso   1.00
C773   C     0.01340   0.15826   0.81764   0.00000  Uiso   1.00
C774   C     0.31993   0.17508   0.84901   0.00000  Uiso   1.00
C775   C     0.17874   0.02190   0.79358   0.00000  Uiso   1.00
C776   C     0.15453   0.31143   0.87306   0.00000  Uiso   1.00
C777   C     0.16955   0.31320   0.79095   0.00000  Uiso   1.00
C778   C     0.16375   0.02013   0.87570   0.00000  Uiso   1.00
C779   C     0.16102   0.29056   0.83169   0.00000  Uiso   1.00
C780   C     0.17228   0.04277   0.83496   0.00000  Uiso   1.00
C781   C     0.12987   0.14467   0.68725   0.00000  Uiso   1.00
C782   C     0.20342   0.18870   0.97941   0.00000  Uiso   1.00
C783   C     0.13025   0.14434   0.97131   0.00000  Uiso   1.00
C784   C     0.20308   0.18900   0.69535   0.00000  Uiso   1.00
Cl785  Cl    0.32070   0.11871   0.77925   0.00000  Uiso   1.00
Cl786  Cl    0.01263   0.21467   0.88733   0.00000  Uiso   1.00
Cl787  Cl    0.20379   0.04654   0.74547   0.00000  Uiso   1.00
Cl788  Cl    0.12938   0.28679   0.92112   0.00000  Uiso   1.00
Cl789  Cl    0.16419   0.29130   0.73434   0.00000  Uiso   1.00
Cl790  Cl    0.16913   0.04201   0.93231   0.00000  Uiso   1.00
N791   N     0.08860   0.12347   0.70617   0.00000  Uiso   1.00
O792   O     0.04234   0.13662   0.69554   0.00000  Uiso   1.00
O793   O     0.09409   0.08596   0.72051   0.00000  Uiso   1.00
N794   N     0.24454   0.21006   0.96044   0.00000  Uiso   1.00
O795   O     0.23904   0.24777   0.94681   0.00000  Uiso   1.00
O796   O     0.29082   0.19683   0.97073   0.00000  Uiso   1.00
Cl797  Cl    0.08355   0.11309   0.93761   0.00000  Uiso   1.00
Cl798  Cl    0.24981   0.22022   0.72904   0.00000  Uiso   1.00
O799   O     0.50000   0.10655   0.87291   0.00000  Uiso   1.00
O800   O     0.50000   0.22678   0.79375   0.00000  Uiso   1.00
O801   O     0.50000   0.10654   0.79372   0.00000  Uiso   1.00
O802   O     0.50000   0.22679   0.87294   0.00000  Uiso   1.00
C803   C     0.50304   0.08753   0.83403   0.00000  Uiso   1.00
C804   C     0.49695   0.24580   0.83263   0.00000  Uiso   1.00
O805   O     0.42495   0.16667   0.86379   0.00000  Uiso   1.00
O806   O     0.57505   0.16666   0.80288   0.00000  Uiso   1.00
O807   O     0.42494   0.16666   0.78460   0.00000  Uiso   1.00
O808   O     0.57506   0.16667   0.88207   0.00000  Uiso   1.00
C809   C     0.40145   0.16547   0.82171   0.00000  Uiso   1.00
C810   C     0.59855   0.16787   0.84496   0.00000  Uiso   1.00
Cu811  Cu    0.50000   0.16667   0.88022   0.00000  Uiso   1.00
Cu812  Cu    0.50000   0.16666   0.78645   0.00000  Uiso   1.00
N813   N     0.50001   0.16668   0.95069   0.00000  Uiso   1.00
N814   N     0.49999   0.16666   0.71597   0.00000  Uiso   1.00
C815   C     0.34673   0.15826   0.81764   0.00000  Uiso   1.00
C816   C     0.65327   0.17508   0.84901   0.00000  Uiso   1.00
C817   C     0.51207   0.02190   0.79358   0.00000  Uiso   1.00
C818   C     0.48786   0.31143   0.87306   0.00000  Uiso   1.00
C819   C     0.50288   0.31320   0.79095   0.00000  Uiso   1.00
C820   C     0.49708   0.02013   0.87570   0.00000  Uiso   1.00
C821   C     0.49435   0.29056   0.83169   0.00000  Uiso   1.00
C822   C     0.50561   0.04277   0.83496   0.00000  Uiso   1.00
C823   C     0.46320   0.14467   0.68725   0.00000  Uiso   1.00
C824   C     0.53676   0.18870   0.97941   0.00000  Uiso   1.00
C825   C     0.46358   0.14434   0.97131   0.00000  Uiso   1.00
C826   C     0.53641   0.18900   0.69535   0.00000  Uiso   1.00
Cl827  Cl    0.65403   0.11871   0.77925   0.00000  Uiso   1.00
Cl828  Cl    0.34597   0.21467   0.88733   0.00000  Uiso   1.00
Cl829  Cl    0.53713   0.04654   0.74547   0.00000  Uiso   1.00
Cl830  Cl    0.46271   0.28679   0.92112   0.00000  Uiso   1.00
Cl831  Cl    0.49752   0.29130   0.73434   0.00000  Uiso   1.00
Cl832  Cl    0.50246   0.04201   0.93231   0.00000  Uiso   1.00
N833   N     0.42193   0.12347   0.70617   0.00000  Uiso   1.00
O834   O     0.37567   0.13662   0.69554   0.00000  Uiso   1.00
O835   O     0.42742   0.08596   0.72051   0.00000  Uiso   1.00
N836   N     0.57788   0.21006   0.96044   0.00000  Uiso   1.00
O837   O     0.57237   0.24777   0.94681   0.00000  Uiso   1.00
O838   O     0.62415   0.19683   0.97073   0.00000  Uiso   1.00
Cl839  Cl    0.41689   0.11309   0.93761   0.00000  Uiso   1.00
Cl840  Cl    0.58314   0.22022   0.72904   0.00000  Uiso   1.00
O841   O     0.83333   0.10655   0.87291   0.00000  Uiso   1.00
O842   O     0.83334   0.22678   0.79375   0.00000  Uiso   1.00
O843   O     0.83333   0.10654   0.79372   0.00000  Uiso   1.00
O844   O     0.83334   0.22679   0.87294   0.00000  Uiso   1.00
C845   C     0.83638   0.08753   0.83403   0.00000  Uiso   1.00
C846   C     0.83028   0.24580   0.83263   0.00000  Uiso   1.00
O847   O     0.75828   0.16667   0.86379   0.00000  Uiso   1.00
O848   O     0.90839   0.16666   0.80288   0.00000  Uiso   1.00
O849   O     0.75828   0.16666   0.78460   0.00000  Uiso   1.00
O850   O     0.90839   0.16667   0.88207   0.00000  Uiso   1.00
C851   C     0.73478   0.16547   0.82171   0.00000  Uiso   1.00
C852   C     0.93189   0.16787   0.84496   0.00000  Uiso   1.00
Cu853  Cu    0.83333   0.16667   0.88022   0.00000  Uiso   1.00
Cu854  Cu    0.83333   0.16666   0.78645   0.00000  Uiso   1.00
N855   N     0.83335   0.16668   0.95069   0.00000  Uiso   1.00
N856   N     0.83332   0.16666   0.71597   0.00000  Uiso   1.00
C857   C     0.68007   0.15826   0.81764   0.00000  Uiso   1.00
C858   C     0.98660   0.17508   0.84901   0.00000  Uiso   1.00
C859   C     0.84540   0.02190   0.79358   0.00000  Uiso   1.00
C860   C     0.82120   0.31143   0.87306   0.00000  Uiso   1.00
C861   C     0.83621   0.31320   0.79095   0.00000  Uiso   1.00
C862   C     0.83041   0.02013   0.87570   0.00000  Uiso   1.00
C863   C     0.82769   0.29056   0.83169   0.00000  Uiso   1.00
C864   C     0.83894   0.04277   0.83496   0.00000  Uiso   1.00
C865   C     0.79653   0.14467   0.68725   0.00000  Uiso   1.00
C866   C     0.87009   0.18870   0.97941   0.00000  Uiso   1.00
C867   C     0.79692   0.14434   0.97131   0.00000  Uiso   1.00
C868   C     0.86975   0.18900   0.69535   0.00000  Uiso   1.00
Cl869  Cl    0.98737   0.11871   0.77925   0.00000  Uiso   1.00
Cl870  Cl    0.67930   0.21467   0.88733   0.00000  Uiso   1.00
Cl871  Cl    0.87046   0.04654   0.74547   0.00000  Uiso   1.00
Cl872  Cl    0.79605   0.28679   0.92112   0.00000  Uiso   1.00
Cl873  Cl    0.83086   0.29130   0.73434   0.00000  Uiso   1.00
Cl874  Cl    0.83579   0.04201   0.93231   0.00000  Uiso   1.00
N875   N     0.75527   0.12347   0.70617   0.00000  Uiso   1.00
O876   O     0.70900   0.13662   0.69554   0.00000  Uiso   1.00
O877   O     0.76076   0.08596   0.72051   0.00000  Uiso   1.00
N878   N     0.91121   0.21006   0.96044   0.00000  Uiso   1.00
O879   O     0.90570   0.24777   0.94681   0.00000  Uiso   1.00
O880   O     0.95748   0.19683   0.97073   0.00000  Uiso   1.00
Cl881  Cl    0.75022   0.11309   0.93761   0.00000  Uiso   1.00
Cl882  Cl    0.91648   0.22022   0.72904   0.00000  Uiso   1.00
O883   O     0.16666   0.43989   0.87291   0.00000  Uiso   1.00
O884   O     0.16667   0.56011   0.79375   0.00000  Uiso   1.00
O885   O     0.16666   0.43988   0.79372   0.00000  Uiso   1.00
O886   O     0.16667   0.56012   0.87294   0.00000  Uiso   1.00
C887   C     0.16971   0.42086   0.83403   0.00000  Uiso   1.00
C888   C     0.16361   0.57914   0.83263   0.00000  Uiso   1.00
O889   O     0.09161   0.50000   0.86379   0.00000  Uiso   1.00
O890   O     0.24172   0.50000   0.80288   0.00000  Uiso   1.00
O891   O     0.09161   0.49999   0.78460   0.00000  Uiso   1.00
O892   O     0.24172   0.50001   0.88207   0.00000  Uiso   1.00
C893   C     0.06811   0.49880   0.82171   0.00000  Uiso   1.00
C894   C     0.26522   0.50120   0.84496   0.00000  Uiso   1.00
Cu895  Cu    0.16667   0.50001   0.88022   0.00000  Uiso   1.00
Cu896  Cu    0.16667   0.49999   0.78645   0.00000  Uiso   1.00
N897   N     0.16668   0.50001   0.95069   0.00000  Uiso   1.00
N898   N     0.16665   0.49999   0.71597   0.00000  Uiso   1.00
C899   C     0.01340   0.49160   0.81764   0.00000  Uiso   1.00
C900   C     0.31993   0.50841   0.84901   0.00000  Uiso   1.00
C901   C     0.17874   0.35523   0.79358   0.00000  Uiso   1.00
C902   C     0.15453   0.64477   0.87306   0.00000  Uiso   1.00
C903   C     0.16955   0.64653   0.79095   0.00000  Uiso   1.00
C904   C     0.16375   0.35346   0.87570   0.00000  Uiso   1.00
C905   C     0.16102   0.62389   0.83169   0.00000  Uiso   1.00
C906   C     0.17228   0.37610   0.83496   0.00000  Uiso   1.00
C907   C     0.12987   0.47801   0.68725   0.00000  Uiso   1.00
C908   C     0.20342   0.52203   0.97941   0.00000  Uiso   1.00
C909   C     0.13025   0.47767   0.97131   0.00000  Uiso   1.00
C910   C     0.20308   0.52233   0.69535   0.00000  Uiso   1.00
Cl911  Cl    0.32070   0.45205   0.77925   0.00000  Uiso   1.00
Cl912  Cl    0.01263   0.54801   0.88733   0.00000  Uiso   1.00
Cl913  Cl    0.20379   0.37987   0.74547   0.00000  Uiso   1.00
Cl914  Cl    0.12938   0.62013   0.92112   0.00000  Uiso   1.00
Cl915  Cl    0.16419   0.62464   0.73434   0.00000  Uiso   1.00
Cl916  Cl    0.16913   0.37534   0.93231   0.00000  Uiso   1.00
N917   N     0.08860   0.45680   0.70617   0.00000  Uiso   1.00
O918   O     0.04234   0.46996   0.69554   0.00000  Uiso   1.00
O919   O     0.09409   0.41930   0.72051   0.00000  Uiso   1.00
N920   N     0.24454   0.54339   0.96044   0.00000  Uiso   1.00
O921   O     0.23904   0.58110   0.94681   0.00000  Uiso   1.00
O922   O     0.29082   0.53017   0.97073   0.00000  Uiso   1.00
Cl923  Cl    0.08355   0.44642   0.93761   0.00000  Uiso   1.00
Cl924  Cl    0.24981   0.55355   0.72904   0.00000  Uiso   1.00
O925   O     0.50000   0.43989   0.87291   0.00000  Uiso   1.00
O926   O     0.50000   0.56011   0.79375   0.00000  Uiso   1.00
O927   O     0.50000   0.43988   0.79372   0.00000  Uiso   1.00
O928   O     0.50000   0.56012   0.87294   0.00000  Uiso   1.00
C929   C     0.50304   0.42086   0.83403   0.00000  Uiso   1.00
C930   C     0.49695   0.57914   0.83263   0.00000  Uiso   1.00
O931   O     0.42495   0.50000   0.86379   0.00000  Uiso   1.00
O932   O     0.57505   0.50000   0.80288   0.00000  Uiso   1.00
O933   O     0.42494   0.49999   0.78460   0.00000  Uiso   1.00
O934   O     0.57506   0.50001   0.88207   0.00000  Uiso   1.00
C935   C     0.40145   0.49880   0.82171   0.00000  Uiso   1.00
C936   C     0.59855   0.50120   0.84496   0.00000  Uiso   1.00
Cu937  Cu    0.50000   0.50001   0.88022   0.00000  Uiso   1.00
Cu938  Cu    0.50000   0.49999   0.78645   0.00000  Uiso   1.00
N939   N     0.50001   0.50001   0.95069   0.00000  Uiso   1.00
N940   N     0.49999   0.49999   0.71597   0.00000  Uiso   1.00
C941   C     0.34673   0.49160   0.81764   0.00000  Uiso   1.00
C942   C     0.65327   0.50841   0.84901   0.00000  Uiso   1.00
C943   C     0.51207   0.35523   0.79358   0.00000  Uiso   1.00
C944   C     0.48786   0.64477   0.87306   0.00000  Uiso   1.00
C945   C     0.50288   0.64653   0.79095   0.00000  Uiso   1.00
C946   C     0.49708   0.35346   0.87570   0.00000  Uiso   1.00
C947   C     0.49435   0.62389   0.83169   0.00000  Uiso   1.00
C948   C     0.50561   0.37610   0.83496   0.00000  Uiso   1.00
C949   C     0.46320   0.47801   0.68725   0.00000  Uiso   1.00
C950   C     0.53676   0.52203   0.97941   0.00000  Uiso   1.00
C951   C     0.46358   0.47767   0.97131   0.00000  Uiso   1.00
C952   C     0.53641   0.52233   0.69535   0.00000  Uiso   1.00
Cl953  Cl    0.65403   0.45205   0.77925   0.00000  Uiso   1.00
Cl954  Cl    0.34597   0.54801   0.88733   0.00000  Uiso   1.00
Cl955  Cl    0.53713   0.37987   0.74547   0.00000  Uiso   1.00
Cl956  Cl    0.46271   0.62013   0.92112   0.00000  Uiso   1.00
Cl957  Cl    0.49752   0.62464   0.73434   0.00000  Uiso   1.00
Cl958  Cl    0.50246   0.37534   0.93231   0.00000  Uiso   1.00
N959   N     0.42193   0.45680   0.70617   0.00000  Uiso   1.00
O960   O     0.37567   0.46996   0.69554   0.00000  Uiso   1.00
O961   O     0.42742   0.41930   0.72051   0.00000  Uiso   1.00
N962   N     0.57788   0.54339   0.96044   0.00000  Uiso   1.00
O963   O     0.57237   0.58110   0.94681   0.00000  Uiso   1.00
O964   O     0.62415   0.53017   0.97073   0.00000  Uiso   1.00
Cl965  Cl    0.41689   0.44642   0.93761   0.00000  Uiso   1.00
Cl966  Cl    0.58314   0.55355   0.72904   0.00000  Uiso   1.00
O967   O     0.83333   0.43989   0.87291   0.00000  Uiso   1.00
O968   O     0.83334   0.56011   0.79375   0.00000  Uiso   1.00
O969   O     0.83333   0.43988   0.79372   0.00000  Uiso   1.00
O970   O     0.83334   0.56012   0.87294   0.00000  Uiso   1.00
C971   C     0.83638   0.42086   0.83403   0.00000  Uiso   1.00
C972   C     0.83028   0.57914   0.83263   0.00000  Uiso   1.00
O973   O     0.75828   0.50000   0.86379   0.00000  Uiso   1.00
O974   O     0.90839   0.50000   0.80288   0.00000  Uiso   1.00
O975   O     0.75828   0.49999   0.78460   0.00000  Uiso   1.00
O976   O     0.90839   0.50001   0.88207   0.00000  Uiso   1.00
C977   C     0.73478   0.49880   0.82171   0.00000  Uiso   1.00
C978   C     0.93189   0.50120   0.84496   0.00000  Uiso   1.00
Cu979  Cu    0.83333   0.50001   0.88022   0.00000  Uiso   1.00
Cu980  Cu    0.83333   0.49999   0.78645   0.00000  Uiso   1.00
N981   N     0.83335   0.50001   0.95069   0.00000  Uiso   1.00
N982   N     0.83332   0.49999   0.71597   0.00000  Uiso   1.00
C983   C     0.68007   0.49160   0.81764   0.00000  Uiso   1.00
C984   C     0.98660   0.50841   0.84901   0.00000  Uiso   1.00
C985   C     0.84540   0.35523   0.79358   0.00000  Uiso   1.00
C986   C     0.82120   0.64477   0.87306   0.00000  Uiso   1.00
C987   C     0.83621   0.64653   0.79095   0.00000  Uiso   1.00
C988   C     0.83041   0.35346   0.87570   0.00000  Uiso   1.00
C989   C     0.82769   0.62389   0.83169   0.00000  Uiso   1.00
C990   C     0.83894   0.37610   0.83496   0.00000  Uiso   1.00
C991   C     0.79653   0.47801   0.68725   0.00000  Uiso   1.00
C992   C     0.87009   0.52203   0.97941   0.00000  Uiso   1.00
C993   C     0.79692   0.47767   0.97131   0.00000  Uiso   1.00
C994   C     0.86975   0.52233   0.69535   0.00000  Uiso   1.00
Cl995  Cl    0.98737   0.45205   0.77925   0.00000  Uiso   1.00
Cl996  Cl    0.67930   0.54801   0.88733   0.00000  Uiso   1.00
Cl997  Cl    0.87046   0.37987   0.74547   0.00000  Uiso   1.00
Cl998  Cl    0.79605   0.62013   0.92112   0.00000  Uiso   1.00
Cl999  Cl    0.83086   0.62464   0.73434   0.00000  Uiso   1.00
Cl1000 Cl    0.83579   0.37534   0.93231   0.00000  Uiso   1.00
N1001  N     0.75527   0.45680   0.70617   0.00000  Uiso   1.00
O1002  O     0.70900   0.46996   0.69554   0.00000  Uiso   1.00
O1003  O     0.76076   0.41930   0.72051   0.00000  Uiso   1.00
N1004  N     0.91121   0.54339   0.96044   0.00000  Uiso   1.00
O1005  O     0.90570   0.58110   0.94681   0.00000  Uiso   1.00
O1006  O     0.95748   0.53017   0.97073   0.00000  Uiso   1.00
Cl1007 Cl    0.75022   0.44642   0.93761   0.00000  Uiso   1.00
Cl1008 Cl    0.91648   0.55355   0.72904   0.00000  Uiso   1.00
O1009  O     0.16666   0.77322   0.87291   0.00000  Uiso   1.00
O1010  O     0.16667   0.89345   0.79375   0.00000  Uiso   1.00
O1011  O     0.16666   0.77321   0.79372   0.00000  Uiso   1.00
O1012  O     0.16667   0.89346   0.87294   0.00000  Uiso   1.00
C1013  C     0.16971   0.75419   0.83403   0.00000  Uiso   1.00
C1014  C     0.16361   0.91247   0.83263   0.00000  Uiso   1.00
O1015  O     0.09161   0.83334   0.86379   0.00000  Uiso   1.00
O1016  O     0.24172   0.83333   0.80288   0.00000  Uiso   1.00
O1017  O     0.09161   0.83333   0.78460   0.00000  Uiso   1.00
O1018  O     0.24172   0.83334   0.88207   0.00000  Uiso   1.00
C1019  C     0.06811   0.83213   0.82171   0.00000  Uiso   1.00
C1020  C     0.26522   0.83454   0.84496   0.00000  Uiso   1.00
Cu1021 Cu    0.16667   0.83334   0.88022   0.00000  Uiso   1.00
Cu1022 Cu    0.16667   0.83333   0.78645   0.00000  Uiso   1.00
N1023  N     0.16668   0.83334   0.95069   0.00000  Uiso   1.00
N1024  N     0.16665   0.83332   0.71597   0.00000  Uiso   1.00
C1025  C     0.01340   0.82493   0.81764   0.00000  Uiso   1.00
C1026  C     0.31993   0.84175   0.84901   0.00000  Uiso   1.00
C1027  C     0.17874   0.68856   0.79358   0.00000  Uiso   1.00
C1028  C     0.15453   0.97810   0.87306   0.00000  Uiso   1.00
C1029  C     0.16955   0.97986   0.79095   0.00000  Uiso   1.00
C1030  C     0.16375   0.68679   0.87570   0.00000  Uiso   1.00
C1031  C     0.16102   0.95723   0.83169   0.00000  Uiso   1.00
C1032  C     0.17228   0.70944   0.83496   0.00000  Uiso   1.00
C1033  C     0.12987   0.81134   0.68725   0.00000  Uiso   1.00
C1034  C     0.20342   0.85536   0.97941   0.00000  Uiso   1.00
C1035  C     0.13025   0.81100   0.97131   0.00000  Uiso   1.00
C1036  C     0.20308   0.85567   0.69535   0.00000  Uiso   1.00
Cl1037 Cl    0.32070   0.78538   0.77925   0.00000  Uiso   1.00
Cl1038 Cl    0.01263   0.88134   0.88733   0.00000  Uiso   1.00
Cl1039 Cl    0.20379   0.71321   0.74547   0.00000  Uiso   1.00
Cl1040 Cl    0.12938   0.95346   0.92112   0.00000  Uiso   1.00
Cl1041 Cl    0.16419   0.95797   0.73434   0.00000  Uiso   1.00
Cl1042 Cl    0.16913   0.70868   0.93231   0.00000  Uiso   1.00
N1043  N     0.08860   0.79014   0.70617   0.00000  Uiso   1.00
O1044  O     0.04234   0.80329   0.69554   0.00000  Uiso   1.00
O1045  O     0.09409   0.75263   0.72051   0.00000  Uiso   1.00
N1046  N     0.24454   0.87672   0.96044   0.00000  Uiso   1.00
O1047  O     0.23904   0.91443   0.94681   0.00000  Uiso   1.00
O1048  O     0.29082   0.86350   0.97073   0.00000  Uiso   1.00
Cl1049 Cl    0.08355   0.77976   0.93761   0.00000  Uiso   1.00
Cl1050 Cl    0.24981   0.88689   0.72904   0.00000  Uiso   1.00
O1051  O     0.50000   0.77322   0.87291   0.00000  Uiso   1.00
O1052  O     0.50000   0.89345   0.79375   0.00000  Uiso   1.00
O1053  O     0.50000   0.77321   0.79372   0.00000  Uiso   1.00
O1054  O     0.50000   0.89346   0.87294   0.00000  Uiso   1.00
C1055  C     0.50304   0.75419   0.83403   0.00000  Uiso   1.00
C1056  C     0.49695   0.91247   0.83263   0.00000  Uiso   1.00
O1057  O     0.42495   0.83334   0.86379   0.00000  Uiso   1.00
O1058  O     0.57505   0.83333   0.80288   0.00000  Uiso   1.00
O1059  O     0.42494   0.83333   0.78460   0.00000  Uiso   1.00
O1060  O     0.57506   0.83334   0.88207   0.00000  Uiso   1.00
C1061  C     0.40145   0.83213   0.82171   0.00000  Uiso   1.00
C1062  C     0.59855   0.83454   0.84496   0.00000  Uiso   1.00
Cu1063 Cu    0.50000   0.83334   0.88022   0.00000  Uiso   1.00
Cu1064 Cu    0.50000   0.83333   0.78645   0.00000  Uiso   1.00
N1065  N     0.50001   0.83334   0.95069   0.00000  Uiso   1.00
N1066  N     0.49999   0.83332   0.71597   0.00000  Uiso   1.00
C1067  C     0.34673   0.82493   0.81764   0.00000  Uiso   1.00
C1068  C     0.65327   0.84175   0.84901   0.00000  Uiso   1.00
C1069  C     0.51207   0.68856   0.79358   0.00000  Uiso   1.00
C1070  C     0.48786   0.97810   0.87306   0.00000  Uiso   1.00
C1071  C     0.50288   0.97986   0.79095   0.00000  Uiso   1.00
C1072  C     0.49708   0.68679   0.87570   0.00000  Uiso   1.00
C1073  C     0.49435   0.95723   0.83169   0.00000  Uiso   1.00
C1074  C     0.50561   0.70944   0.83496   0.00000  Uiso   1.00
C1075  C     0.46320   0.81134   0.68725   0.00000  Uiso   1.00
C1076  C     0.53676   0.85536   0.97941   0.00000  Uiso   1.00
C1077  C     0.46358   0.81100   0.97131   0.00000  Uiso   1.00
C1078  C     0.53641   0.85567   0.69535   0.00000  Uiso   1.00
Cl1079 Cl    0.65403   0.78538   0.77925   0.00000  Uiso   1.00
Cl1080 Cl    0.34597   0.88134   0.88733   0.00000  Uiso   1.00
Cl1081 Cl    0.53713   0.71321   0.74547   0.00000  Uiso   1.00
Cl1082 Cl    0.46271   0.95346   0.92112   0.00000  Uiso   1.00
Cl1083 Cl    0.49752   0.95797   0.73434   0.00000  Uiso   1.00
Cl1084 Cl    0.50246   0.70868   0.93231   0.00000  Uiso   1.00
N1085  N     0.42193   0.79014   0.70617   0.00000  Uiso   1.00
O1086  O     0.37567   0.80329   0.69554   0.00000  Uiso   1.00
O1087  O     0.42742   0.75263   0.72051   0.00000  Uiso   1.00
N1088  N     0.57788   0.87672   0.96044   0.00000  Uiso   1.00
O1089  O     0.57237   0.91443   0.94681   0.00000  Uiso   1.00
O1090  O     0.62415   0.86350   0.97073   0.00000  Uiso   1.00
Cl1091 Cl    0.41689   0.77976   0.93761   0.00000  Uiso   1.00
Cl1092 Cl    0.58314   0.88689   0.72904   0.00000  Uiso   1.00
O1093  O     0.83333   0.77322   0.87291   0.00000  Uiso   1.00
O1094  O     0.83334   0.89345   0.79375   0.00000  Uiso   1.00
O1095  O     0.83333   0.77321   0.79372   0.00000  Uiso   1.00
O1096  O     0.83334   0.89346   0.87294   0.00000  Uiso   1.00
C1097  C     0.83638   0.75419   0.83403   0.00000  Uiso   1.00
C1098  C     0.83028   0.91247   0.83263   0.00000  Uiso   1.00
O1099  O     0.75828   0.83334   0.86379   0.00000  Uiso   1.00
O1100  O     0.90839   0.83333   0.80288   0.00000  Uiso   1.00
O1101  O     0.75828   0.83333   0.78460   0.00000  Uiso   1.00
O1102  O     0.90839   0.83334   0.88207   0.00000  Uiso   1.00
C1103  C     0.73478   0.83213   0.82171   0.00000  Uiso   1.00
C1104  C     0.93189   0.83454   0.84496   0.00000  Uiso   1.00
Cu1105 Cu    0.83333   0.83334   0.88022   0.00000  Uiso   1.00
Cu1106 Cu    0.83333   0.83333   0.78645   0.00000  Uiso   1.00
N1107  N     0.83335   0.83334   0.95069   0.00000  Uiso   1.00
N1108  N     0.83332   0.83332   0.71597   0.00000  Uiso   1.00
C1109  C     0.68007   0.82493   0.81764   0.00000  Uiso   1.00
C1110  C     0.98660   0.84175   0.84901   0.00000  Uiso   1.00
C1111  C     0.84540   0.68856   0.79358   0.00000  Uiso   1.00
C1112  C     0.82120   0.97810   0.87306   0.00000  Uiso   1.00
C1113  C     0.83621   0.97986   0.79095   0.00000  Uiso   1.00
C1114  C     0.83041   0.68679   0.87570   0.00000  Uiso   1.00
C1115  C     0.82769   0.95723   0.83169   0.00000  Uiso   1.00
C1116  C     0.83894   0.70944   0.83496   0.00000  Uiso   1.00
C1117  C     0.79653   0.81134   0.68725   0.00000  Uiso   1.00
C1118  C     0.87009   0.85536   0.97941   0.00000  Uiso   1.00
C1119  C     0.79692   0.81100   0.97131   0.00000  Uiso   1.00
C1120  C     0.86975   0.85567   0.69535   0.00000  Uiso   1.00
Cl1121 Cl    0.98737   0.78538   0.77925   0.00000  Uiso   1.00
Cl1122 Cl    0.67930   0.88134   0.88733   0.00000  Uiso   1.00
Cl1123 Cl    0.87046   0.71321   0.74547   0.00000  Uiso   1.00
Cl1124 Cl    0.79605   0.95346   0.92112   0.00000  Uiso   1.00
Cl1125 Cl    0.83086   0.95797   0.73434   0.00000  Uiso   1.00
Cl1126 Cl    0.83579   0.70868   0.93231   0.00000  Uiso   1.00
N1127  N     0.75527   0.79014   0.70617   0.00000  Uiso   1.00
O1128  O     0.70900   0.80329   0.69554   0.00000  Uiso   1.00
O1129  O     0.76076   0.75263   0.72051   0.00000  Uiso   1.00
N1130  N     0.91121   0.87672   0.96044   0.00000  Uiso   1.00
O1131  O     0.90570   0.91443   0.94681   0.00000  Uiso   1.00
O1132  O     0.95748   0.86350   0.97073   0.00000  Uiso   1.00
Cl1133 Cl    0.75022   0.77976   0.93761   0.00000  Uiso   1.00
Cl1134 Cl    0.91648   0.88689   0.72904   0.00000  Uiso   1.00
loop_
_geom_bond_atom_site_label_1
_geom_bond_atom_site_label_2
_geom_bond_distance
_geom_bond_site_symmetry_2
_ccdc_geom_bond_type
O1     C5      1.301   .     A
O1     Cu13    1.986   .     S
O2     C6      1.301   .     A
O2     Cu14    1.986   .     S
O3     Cu14    1.980   .     S
O3     C5      1.304   .     A
O4     C6      1.304   .     A
O4     Cu13    1.980   .     S
C5     C24     1.472   .     S
C6     C23     1.472   .     S
O7     C11     1.285   .     A
O7     Cu13    1.963   .     S
O8     C12     1.285   .     A
O8     Cu14    1.963   .     S
O9     Cu14    1.962   .     S
O9     C11     1.300   .     A
O10    C12     1.300   .     A
O10    Cu13    1.962   .     S
C11    C17     1.435   .     S
C12    C18     1.435   .     S
Cu13   N15     2.028   .     S
Cu13   Cu14    2.698   .     S
Cu14   N16     2.028   .     S
N15    C26     1.373   .     A
N15    C27     1.372   .     A
N16    C28     1.372   .     A
N16    C25     1.373   .     A
C17    C102    1.350   1_455 S
C17    Cl113   1.772   1_455 S
C18    C59     1.350   .     S
C18    Cl72    1.772   .     S
C19    Cl31    1.780   .     S
C19    C24     1.414   .     A
C19    C273    1.392   1_545 S
C20    C23     1.414   .     A
C20    Cl32    1.780   .     S
C20    C148    1.392   .     S
C21    C23     1.417   .     A
C21    Cl33    1.775   .     S
C21    C145    1.392   .     S
C22    Cl34    1.775   .     S
C22    C24     1.417   .     A
C22    C272    1.392   1_545 S
C25    N35     1.427   .     S
C25    C783    1.419   1_554 S
C26    N38     1.427   .     S
C26    C406    1.419   .     S
C27    Cl41    1.763   .     S
C27    C403    1.419   .     S
C28    Cl42    1.763   .     S
C28    C782    1.419   1_554 S
Cl29   C59     1.772   .     S
Cl30   C102    1.772   1_455 S
N35    O36     1.301   .     A
N35    O37     1.300   .     A
N38    O40     1.301   .     A
N38    O39     1.300   .     A
O43    C47     1.301   .     A
O43    Cu55    1.986   .     S
O44    C48     1.301   .     A
O44    Cu56    1.986   .     S
O45    Cu56    1.980   .     S
O45    C47     1.304   .     A
O46    C48     1.304   .     A
O46    Cu55    1.980   .     S
C47    C66     1.472   .     S
C48    C65     1.472   .     S
O49    C53     1.285   .     A
O49    Cu55    1.963   .     S
O50    C54     1.285   .     A
O50    Cu56    1.963   .     S
O51    Cu56    1.962   .     S
O51    C53     1.300   .     A
O52    C54     1.300   .     A
O52    Cu55    1.962   .     S
C53    C59     1.435   .     S
C54    C60     1.435   .     S
Cu55   N57     2.028   .     S
Cu55   Cu56    2.698   .     S
Cu56   N58     2.028   .     S
N57    C68     1.373   .     A
N57    C69     1.372   .     A
N58    C70     1.372   .     A
N58    C67     1.373   .     A
C60    C101    1.350   .     S
C60    Cl114   1.772   .     S
C61    Cl73    1.780   .     S
C61    C66     1.414   .     A
C61    C315    1.392   1_545 S
C62    C65     1.414   .     A
C62    Cl74    1.780   .     S
C62    C190    1.392   .     S
C63    C65     1.417   .     A
C63    Cl75    1.775   .     S
C63    C187    1.392   .     S
C64    Cl76    1.775   .     S
C64    C66     1.417   .     A
C64    C314    1.392   1_545 S
C67    N77     1.427   .     S
C67    C825    1.419   1_554 S
C68    N80     1.427   .     S
C68    C448    1.419   .     S
C69    Cl83    1.763   .     S
C69    C445    1.419   .     S
C70    Cl84    1.763   .     S
C70    C824    1.419   1_554 S
Cl71   C101    1.772   .     S
N77    O78     1.301   .     A
N77    O79     1.300   .     A
N80    O82     1.301   .     A
N80    O81     1.300   .     A
O85    C89     1.301   .     A
O85    Cu97    1.986   .     S
O86    C90     1.301   .     A
O86    Cu98    1.986   .     S
O87    Cu98    1.980   .     S
O87    C89     1.304   .     A
O88    C90     1.304   .     A
O88    Cu97    1.980   .     S
C89    C108    1.472   .     S
C90    C107    1.472   .     S
O91    C95     1.285   .     A
O91    Cu97    1.963   .     S
O92    C96     1.285   .     A
O92    Cu98    1.963   .     S
O93    Cu98    1.962   .     S
O93    C95     1.300   .     A
O94    C96     1.300   .     A
O94    Cu97    1.962   .     S
C95    C101    1.435   .     S
C96    C102    1.435   .     S
Cu97   N99     2.028   .     S
Cu97   Cu98    2.698   .     S
Cu98   N100    2.028   .     S
N99    C110    1.373   .     A
N99    C111    1.372   .     A
N100   C112    1.372   .     A
N100   C109    1.373   .     A
C102   C17     1.350   1_655 S
C102   Cl30    1.772   1_655 S
C103   Cl115   1.780   .     S
C103   C108    1.414   .     A
C103   C357    1.392   1_545 S
C104   C107    1.414   .     A
C104   Cl116   1.780   .     S
C104   C232    1.392   .     S
C105   C107    1.417   .     A
C105   Cl117   1.775   .     S
C105   C229    1.392   .     S
C106   Cl118   1.775   .     S
C106   C108    1.417   .     A
C106   C356    1.392   1_545 S
C109   N119    1.427   .     S
C109   C867    1.419   1_554 S
C110   N122    1.427   .     S
C110   C490    1.419   .     S
C111   Cl125   1.763   .     S
C111   C487    1.419   .     S
C112   Cl126   1.763   .     S
C112   C866    1.419   1_554 S
Cl113  C17     1.772   1_655 S
N119   O120    1.301   .     A
N119   O121    1.300   .     A
N122   O124    1.301   .     A
N122   O123    1.300   .     A
O127   C131    1.301   .     A
O127   Cu139   1.986   .     S
O128   C132    1.301   .     A
O128   Cu140   1.986   .     S
O129   Cu140   1.980   .     S
O129   C131    1.304   .     A
O130   C132    1.304   .     A
O130   Cu139   1.980   .     S
C131   C150    1.472   .     S
C132   C149    1.472   .     S
O133   C137    1.285   .     A
O133   Cu139   1.963   .     S
O134   C138    1.285   .     A
O134   Cu140   1.963   .     S
O135   Cu140   1.962   .     S
O135   C137    1.300   .     A
O136   C138    1.300   .     A
O136   Cu139   1.962   .     S
C137   C143    1.435   .     S
C138   C144    1.435   .     S
Cu139  N141    2.028   .     S
Cu139  Cu140   2.698   .     S
Cu140  N142    2.028   .     S
N141   C152    1.373   .     A
N141   C153    1.372   .     A
N142   C154    1.372   .     A
N142   C151    1.373   .     A
C143   C228    1.350   1_455 S
C143   Cl239   1.772   1_455 S
C144   C185    1.350   .     S
C144   Cl198   1.772   .     S
C145   Cl157   1.780   .     S
C145   C150    1.414   .     A
C146   C149    1.414   .     A
C146   Cl158   1.780   .     S
C146   C274    1.392   .     S
C147   C149    1.417   .     A
C147   Cl159   1.775   .     S
C147   C271    1.392   .     S
C148   Cl160   1.775   .     S
C148   C150    1.417   .     A
C151   N161    1.427   .     S
C151   C909    1.419   1_554 S
C152   N164    1.427   .     S
C152   C532    1.419   .     S
C153   Cl167   1.763   .     S
C153   C529    1.419   .     S
C154   Cl168   1.763   .     S
C154   C908    1.419   1_554 S
Cl155  C185    1.772   .     S
Cl156  C228    1.772   1_455 S
N161   O162    1.301   .     A
N161   O163    1.300   .     A
N164   O166    1.301   .     A
N164   O165    1.300   .     A
O169   C173    1.301   .     A
O169   Cu181   1.986   .     S
O170   C174    1.301   .     A
O170   Cu182   1.986   .     S
O171   Cu182   1.980   .     S
O171   C173    1.304   .     A
O172   C174    1.304   .     A
O172   Cu181   1.980   .     S
C173   C192    1.472   .     S
C174   C191    1.472   .     S
O175   C179    1.285   .     A
O175   Cu181   1.963   .     S
O176   C180    1.285   .     A
O176   Cu182   1.963   .     S
O177   Cu182   1.962   .     S
O177   C179    1.300   .     A
O178   C180    1.300   .     A
O178   Cu181   1.962   .     S
C179   C185    1.435   .     S
C180   C186    1.435   .     S
Cu181  N183    2.028   .     S
Cu181  Cu182   2.698   .     S
Cu182  N184    2.028   .     S
N183   C194    1.373   .     A
N183   C195    1.372   .     A
N184   C196    1.372   .     A
N184   C193    1.373   .     A
C186   C227    1.350   .     S
C186   Cl240   1.772   .     S
C187   Cl199   1.780   .     S
C187   C192    1.414   .     A
C188   C191    1.414   .     A
C188   Cl200   1.780   .     S
C188   C316    1.392   .     S
C189   C191    1.417   .     A
C189   Cl201   1.775   .     S
C189   C313    1.392   .     S
C190   Cl202   1.775   .     S
C190   C192    1.417   .     A
C193   N203    1.427   .     S
C193   C951    1.419   1_554 S
C194   N206    1.427   .     S
C194   C574    1.419   .     S
C195   Cl209   1.763   .     S
C195   C571    1.419   .     S
C196   Cl210   1.763   .     S
C196   C950    1.419   1_554 S
Cl197  C227    1.772   .     S
N203   O204    1.301   .     A
N203   O205    1.300   .     A
N206   O208    1.301   .     A
N206   O207    1.300   .     A
O211   C215    1.301   .     A
O211   Cu223   1.986   .     S
O212   C216    1.301   .     A
O212   Cu224   1.986   .     S
O213   Cu224   1.980   .     S
O213   C215    1.304   .     A
O214   C216    1.304   .     A
O214   Cu223   1.980   .     S
C215   C234    1.472   .     S
C216   C233    1.472   .     S
O217   C221    1.285   .     A
O217   Cu223   1.963   .     S
O218   C222    1.285   .     A
O218   Cu224   1.963   .     S
O219   Cu224   1.962   .     S
O219   C221    1.300   .     A
O220   C222    1.300   .     A
O220   Cu223   1.962   .     S
C221   C227    1.435   .     S
C222   C228    1.435   .     S
Cu223  N225    2.028   .     S
Cu223  Cu224   2.698   .     S
Cu224  N226    2.028   .     S
N225   C236    1.373   .     A
N225   C237    1.372   .     A
N226   C238    1.372   .     A
N226   C235    1.373   .     A
C228   C143    1.350   1_655 S
C228   Cl156   1.772   1_655 S
C229   Cl241   1.780   .     S
C229   C234    1.414   .     A
C230   C233    1.414   .     A
C230   Cl242   1.780   .     S
C230   C358    1.392   .     S
C231   C233    1.417   .     A
C231   Cl243   1.775   .     S
C231   C355    1.392   .     S
C232   Cl244   1.775   .     S
C232   C234    1.417   .     A
C235   N245    1.427   .     S
C235   C993    1.419   1_554 S
C236   N248    1.427   .     S
C236   C616    1.419   .     S
C237   Cl251   1.763   .     S
C237   C613    1.419   .     S
C238   Cl252   1.763   .     S
C238   C992    1.419   1_554 S
Cl239  C143    1.772   1_655 S
N245   O246    1.301   .     A
N245   O247    1.300   .     A
N248   O250    1.301   .     A
N248   O249    1.300   .     A
O253   C257    1.301   .     A
O253   Cu265   1.986   .     S
O254   C258    1.301   .     A
O254   Cu266   1.986   .     S
O255   Cu266   1.980   .     S
O255   C257    1.304   .     A
O256   C258    1.304   .     A
O256   Cu265   1.980   .     S
C257   C276    1.472   .     S
C258   C275    1.472   .     S
O259   C263    1.285   .     A
O259   Cu265   1.963   .     S
O260   C264    1.285   .     A
O260   Cu266   1.963   .     S
O261   Cu266   1.962   .     S
O261   C263    1.300   .     A
O262   C264    1.300   .     A
O262   Cu265   1.962   .     S
C263   C269    1.435   .     S
C264   C270    1.435   .     S
Cu265  N267    2.028   .     S
Cu265  Cu266   2.698   .     S
Cu266  N268    2.028   .     S
N267   C278    1.373   .     A
N267   C279    1.372   .     A
N268   C280    1.372   .     A
N268   C277    1.373   .     A
C269   C354    1.350   1_455 S
C269   Cl365   1.772   1_455 S
C270   C311    1.350   .     S
C270   Cl324   1.772   .     S
C271   Cl283   1.780   .     S
C271   C276    1.414   .     A
C272   C275    1.414   .     A
C272   Cl284   1.780   .     S
C272   C22     1.392   1_565 S
C273   C275    1.417   .     A
C273   Cl285   1.775   .     S
C273   C19     1.392   1_565 S
C274   Cl286   1.775   .     S
C274   C276    1.417   .     A
C277   N287    1.427   .     S
C277   C1035   1.419   1_554 S
C278   N290    1.427   .     S
C278   C658    1.419   .     S
C279   Cl293   1.763   .     S
C279   C655    1.419   .     S
C280   Cl294   1.763   .     S
C280   C1034   1.419   1_554 S
Cl281  C311    1.772   .     S
Cl282  C354    1.772   1_455 S
N287   O288    1.301   .     A
N287   O289    1.300   .     A
N290   O292    1.301   .     A
N290   O291    1.300   .     A
O295   C299    1.301   .     A
O295   Cu307   1.986   .     S
O296   C300    1.301   .     A
O296   Cu308   1.986   .     S
O297   Cu308   1.980   .     S
O297   C299    1.304   .     A
O298   C300    1.304   .     A
O298   Cu307   1.980   .     S
C299   C318    1.472   .     S
C300   C317    1.472   .     S
O301   C305    1.285   .     A
O301   Cu307   1.963   .     S
O302   C306    1.285   .     A
O302   Cu308   1.963   .     S
O303   Cu308   1.962   .     S
O303   C305    1.300   .     A
O304   C306    1.300   .     A
O304   Cu307   1.962   .     S
C305   C311    1.435   .     S
C306   C312    1.435   .     S
Cu307  N309    2.028   .     S
Cu307  Cu308   2.698   .     S
Cu308  N310    2.028   .     S
N309   C320    1.373   .     A
N309   C321    1.372   .     A
N310   C322    1.372   .     A
N310   C319    1.373   .     A
C312   C353    1.350   .     S
C312   Cl366   1.772   .     S
C313   Cl325   1.780   .     S
C313   C318    1.414   .     A
C314   C317    1.414   .     A
C314   Cl326   1.780   .     S
C314   C64     1.392   1_565 S
C315   C317    1.417   .     A
C315   Cl327   1.775   .     S
C315   C61     1.392   1_565 S
C316   Cl328   1.775   .     S
C316   C318    1.417   .     A
C319   N329    1.427   .     S
C319   C1077   1.419   1_554 S
C320   N332    1.427   .     S
C320   C700    1.419   .     S
C321   Cl335   1.763   .     S
C321   C697    1.419   .     S
C322   Cl336   1.763   .     S
C322   C1076   1.419   1_554 S
Cl323  C353    1.772   .     S
N329   O330    1.301   .     A
N329   O331    1.300   .     A
N332   O334    1.301   .     A
N332   O333    1.300   .     A
O337   C341    1.301   .     A
O337   Cu349   1.986   .     S
O338   C342    1.301   .     A
O338   Cu350   1.986   .     S
O339   Cu350   1.980   .     S
O339   C341    1.304   .     A
O340   C342    1.304   .     A
O340   Cu349   1.980   .     S
C341   C360    1.472   .     S
C342   C359    1.472   .     S
O343   C347    1.285   .     A
O343   Cu349   1.963   .     S
O344   C348    1.285   .     A
O344   Cu350   1.963   .     S
O345   Cu350   1.962   .     S
O345   C347    1.300   .     A
O346   C348    1.300   .     A
O346   Cu349   1.962   .     S
C347   C353    1.435   .     S
C348   C354    1.435   .     S
Cu349  N351    2.028   .     S
Cu349  Cu350   2.698   .     S
Cu350  N352    2.028   .     S
N351   C362    1.373   .     A
N351   C363    1.372   .     A
N352   C364    1.372   .     A
N352   C361    1.373   .     A
C354   C269    1.350   1_655 S
C354   Cl282   1.772   1_655 S
C355   Cl367   1.780   .     S
C355   C360    1.414   .     A
C356   C359    1.414   .     A
C356   Cl368   1.780   .     S
C356   C106    1.392   1_565 S
C357   C359    1.417   .     A
C357   Cl369   1.775   .     S
C357   C103    1.392   1_565 S
C358   Cl370   1.775   .     S
C358   C360    1.417   .     A
C361   N371    1.427   .     S
C361   C1119   1.419   1_554 S
C362   N374    1.427   .     S
C362   C742    1.419   .     S
C363   Cl377   1.763   .     S
C363   C739    1.419   .     S
C364   Cl378   1.763   .     S
C364   C1118   1.419   1_554 S
Cl365  C269    1.772   1_655 S
N371   O372    1.301   .     A
N371   O373    1.300   .     A
N374   O376    1.301   .     A
N374   O375    1.300   .     A
O379   C383    1.301   .     A
O379   Cu391   1.986   .     S
O380   C384    1.301   .     A
O380   Cu392   1.986   .     S
O381   Cu392   1.980   .     S
O381   C383    1.304   .     A
O382   C384    1.304   .     A
O382   Cu391   1.980   .     S
C383   C402    1.472   .     S
C384   C401    1.472   .     S
O385   C389    1.285   .     A
O385   Cu391   1.963   .     S
O386   C390    1.285   .     A
O386   Cu392   1.963   .     S
O387   Cu392   1.962   .     S
O387   C389    1.300   .     A
O388   C390    1.300   .     A
O388   Cu391   1.962   .     S
C389   C395    1.435   .     S
C390   C396    1.435   .     S
Cu391  N393    2.028   .     S
Cu391  Cu392   2.698   .     S
Cu392  N394    2.028   .     S
N393   C404    1.373   .     A
N393   C405    1.372   .     A
N394   C406    1.372   .     A
N394   C403    1.373   .     A
C395   C480    1.350   1_455 S
C395   Cl491   1.772   1_455 S
C396   C437    1.350   .     S
C396   Cl450   1.772   .     S
C397   Cl409   1.780   .     S
C397   C402    1.414   .     A
C397   C651    1.392   1_545 S
C398   C401    1.414   .     A
C398   Cl410   1.780   .     S
C398   C526    1.392   .     S
C399   C401    1.417   .     A
C399   Cl411   1.775   .     S
C399   C523    1.392   .     S
C400   Cl412   1.775   .     S
C400   C402    1.417   .     A
C400   C650    1.392   1_545 S
C403   N413    1.427   .     S
C404   N416    1.427   .     S
C404   C784    1.419   .     S
C405   Cl419   1.763   .     S
C405   C781    1.419   .     S
C406   Cl420   1.763   .     S
Cl407  C437    1.772   .     S
Cl408  C480    1.772   1_455 S
N413   O414    1.301   .     A
N413   O415    1.300   .     A
N416   O418    1.301   .     A
N416   O417    1.300   .     A
O421   C425    1.301   .     A
O421   Cu433   1.986   .     S
O422   C426    1.301   .     A
O422   Cu434   1.986   .     S
O423   Cu434   1.980   .     S
O423   C425    1.304   .     A
O424   C426    1.304   .     A
O424   Cu433   1.980   .     S
C425   C444    1.472   .     S
C426   C443    1.472   .     S
O427   C431    1.285   .     A
O427   Cu433   1.963   .     S
O428   C432    1.285   .     A
O428   Cu434   1.963   .     S
O429   Cu434   1.962   .     S
O429   C431    1.300   .     A
O430   C432    1.300   .     A
O430   Cu433   1.962   .     S
C431   C437    1.435   .     S
C432   C438    1.435   .     S
Cu433  N435    2.028   .     S
Cu433  Cu434   2.698   .     S
Cu434  N436    2.028   .     S
N435   C446    1.373   .     A
N435   C447    1.372   .     A
N436   C448    1.372   .     A
N436   C445    1.373   .     A
C438   C479    1.350   .     S
C438   Cl492   1.772   .     S
C439   Cl451   1.780   .     S
C439   C444    1.414   .     A
C439   C693    1.392   1_545 S
C440   C443    1.414   .     A
C440   Cl452   1.780   .     S
C440   C568    1.392   .     S
C441   C443    1.417   .     A
C441   Cl453   1.775   .     S
C441   C565    1.392   .     S
C442   Cl454   1.775   .     S
C442   C444    1.417   .     A
C442   C692    1.392   1_545 S
C445   N455    1.427   .     S
C446   N458    1.427   .     S
C446   C826    1.419   .     S
C447   Cl461   1.763   .     S
C447   C823    1.419   .     S
C448   Cl462   1.763   .     S
Cl449  C479    1.772   .     S
N455   O456    1.301   .     A
N455   O457    1.300   .     A
N458   O460    1.301   .     A
N458   O459    1.300   .     A
O463   C467    1.301   .     A
O463   Cu475   1.986   .     S
O464   C468    1.301   .     A
O464   Cu476   1.986   .     S
O465   Cu476   1.980   .     S
O465   C467    1.304   .     A
O466   C468    1.304   .     A
O466   Cu475   1.980   .     S
C467   C486    1.472   .     S
C468   C485    1.472   .     S
O469   C473    1.285   .     A
O469   Cu475   1.963   .     S
O470   C474    1.285   .     A
O470   Cu476   1.963   .     S
O471   Cu476   1.962   .     S
O471   C473    1.300   .     A
O472   C474    1.300   .     A
O472   Cu475   1.962   .     S
C473   C479    1.435   .     S
C474   C480    1.435   .     S
Cu475  N477    2.028   .     S
Cu475  Cu476   2.698   .     S
Cu476  N478    2.028   .     S
N477   C488    1.373   .     A
N477   C489    1.372   .     A
N478   C490    1.372   .     A
N478   C487    1.373   .     A
C480   C395    1.350   1_655 S
C480   Cl408   1.772   1_655 S
C481   Cl493   1.780   .     S
C481   C486    1.414   .     A
C481   C735    1.392   1_545 S
C482   C485    1.414   .     A
C482   Cl494   1.780   .     S
C482   C610    1.392   .     S
C483   C485    1.417   .     A
C483   Cl495   1.775   .     S
C483   C607    1.392   .     S
C484   Cl496   1.775   .     S
C484   C486    1.417   .     A
C484   C734    1.392   1_545 S
C487   N497    1.427   .     S
C488   N500    1.427   .     S
C488   C868    1.419   .     S
C489   Cl503   1.763   .     S
C489   C865    1.419   .     S
C490   Cl504   1.763   .     S
Cl491  C395    1.772   1_655 S
N497   O498    1.301   .     A
N497   O499    1.300   .     A
N500   O502    1.301   .     A
N500   O501    1.300   .     A
O505   C509    1.301   .     A
O505   Cu517   1.986   .     S
O506   C510    1.301   .     A
O506   Cu518   1.986   .     S
O507   Cu518   1.980   .     S
O507   C509    1.304   .     A
O508   C510    1.304   .     A
O508   Cu517   1.980   .     S
C509   C528    1.472   .     S
C510   C527    1.472   .     S
O511   C515    1.285   .     A
O511   Cu517   1.963   .     S
O512   C516    1.285   .     A
O512   Cu518   1.963   .     S
O513   Cu518   1.962   .     S
O513   C515    1.300   .     A
O514   C516    1.300   .     A
O514   Cu517   1.962   .     S
C515   C521    1.435   .     S
C516   C522    1.435   .     S
Cu517  N519    2.028   .     S
Cu517  Cu518   2.698   .     S
Cu518  N520    2.028   .     S
N519   C530    1.373   .     A
N519   C531    1.372   .     A
N520   C532    1.372   .     A
N520   C529    1.373   .     A
C521   C606    1.350   1_455 S
C521   Cl617   1.772   1_455 S
C522   C563    1.350   .     S
C522   Cl576   1.772   .     S
C523   Cl535   1.780   .     S
C523   C528    1.414   .     A
C524   C527    1.414   .     A
C524   Cl536   1.780   .     S
C524   C652    1.392   .     S
C525   C527    1.417   .     A
C525   Cl537   1.775   .     S
C525   C649    1.392   .     S
C526   Cl538   1.775   .     S
C526   C528    1.417   .     A
C529   N539    1.427   .     S
C530   N542    1.427   .     S
C530   C910    1.419   .     S
C531   Cl545   1.763   .     S
C531   C907    1.419   .     S
C532   Cl546   1.763   .     S
Cl533  C563    1.772   .     S
Cl534  C606    1.772   1_455 S
N539   O540    1.301   .     A
N539   O541    1.300   .     A
N542   O544    1.301   .     A
N542   O543    1.300   .     A
O547   C551    1.301   .     A
O547   Cu559   1.986   .     S
O548   C552    1.301   .     A
O548   Cu560   1.986   .     S
O549   Cu560   1.980   .     S
O549   C551    1.304   .     A
O550   C552    1.304   .     A
O550   Cu559   1.980   .     S
C551   C570    1.472   .     S
C552   C569    1.472   .     S
O553   C557    1.285   .     A
O553   Cu559   1.963   .     S
O554   C558    1.285   .     A
O554   Cu560   1.963   .     S
O555   Cu560   1.962   .     S
O555   C557    1.300   .     A
O556   C558    1.300   .     A
O556   Cu559   1.962   .     S
C557   C563    1.435   .     S
C558   C564    1.435   .     S
Cu559  N561    2.028   .     S
Cu559  Cu560   2.698   .     S
Cu560  N562    2.028   .     S
N561   C572    1.373   .     A
N561   C573    1.372   .     A
N562   C574    1.372   .     A
N562   C571    1.373   .     A
C564   C605    1.350   .     S
C564   Cl618   1.772   .     S
C565   Cl577   1.780   .     S
C565   C570    1.414   .     A
C566   C569    1.414   .     A
C566   Cl578   1.780   .     S
C566   C694    1.392   .     S
C567   C569    1.417   .     A
C567   Cl579   1.775   .     S
C567   C691    1.392   .     S
C568   Cl580   1.775   .     S
C568   C570    1.417   .     A
C571   N581    1.427   .     S
C572   N584    1.427   .     S
C572   C952    1.419   .     S
C573   Cl587   1.763   .     S
C573   C949    1.419   .     S
C574   Cl588   1.763   .     S
Cl575  C605    1.772   .     S
N581   O582    1.301   .     A
N581   O583    1.300   .     A
N584   O586    1.301   .     A
N584   O585    1.300   .     A
O589   C593    1.301   .     A
O589   Cu601   1.986   .     S
O590   C594    1.301   .     A
O590   Cu602   1.986   .     S
O591   Cu602   1.980   .     S
O591   C593    1.304   .     A
O592   C594    1.304   .     A
O592   Cu601   1.980   .     S
C593   C612    1.472   .     S
C594   C611    1.472   .     S
O595   C599    1.285   .     A
O595   Cu601   1.963   .     S
O596   C600    1.285   .     A
O596   Cu602   1.963   .     S
O597   Cu602   1.962   .     S
O597   C599    1.300   .     A
O598   C600    1.300   .     A
O598   Cu601   1.962   .     S
C599   C605    1.435   .     S
C600   C606    1.435   .     S
Cu601  N603    2.028   .     S
Cu601  Cu602   2.698   .     S
Cu602  N604    2.028   .     S
N603   C614    1.373   .     A
N603   C615    1.372   .     A
N604   C616    1.372   .     A
N604   C613    1.373   .     A
C606   C521    1.350   1_655 S
C606   Cl534   1.772   1_655 S
C607   Cl619   1.780   .     S
C607   C612    1.414   .     A
C608   C611    1.414   .     A
C608   Cl620   1.780   .     S
C608   C736    1.392   .     S
C609   C611    1.417   .     A
C609   Cl621   1.775   .     S
C609   C733    1.392   .     S
C610   Cl622   1.775   .     S
C610   C612    1.417   .     A
C613   N623    1.427   .     S
C614   N626    1.427   .     S
C614   C994    1.419   .     S
C615   Cl629   1.763   .     S
C615   C991    1.419   .     S
C616   Cl630   1.763   .     S
Cl617  C521    1.772   1_655 S
N623   O624    1.301   .     A
N623   O625    1.300   .     A
N626   O628    1.301   .     A
N626   O627    1.300   .     A
O631   C635    1.301   .     A
O631   Cu643   1.986   .     S
O632   C636    1.301   .     A
O632   Cu644   1.986   .     S
O633   Cu644   1.980   .     S
O633   C635    1.304   .     A
O634   C636    1.304   .     A
O634   Cu643   1.980   .     S
C635   C654    1.472   .     S
C636   C653    1.472   .     S
O637   C641    1.285   .     A
O637   Cu643   1.963   .     S
O638   C642    1.285   .     A
O638   Cu644   1.963   .     S
O639   Cu644   1.962   .     S
O639   C641    1.300   .     A
O640   C642    1.300   .     A
O640   Cu643   1.962   .     S
C641   C647    1.435   .     S
C642   C648    1.435   .     S
Cu643  N645    2.028   .     S
Cu643  Cu644   2.698   .     S
Cu644  N646    2.028   .     S
N645   C656    1.373   .     A
N645   C657    1.372   .     A
N646   C658    1.372   .     A
N646   C655    1.373   .     A
C647   C732    1.350   1_455 S
C647   Cl743   1.772   1_455 S
C648   C689    1.350   .     S
C648   Cl702   1.772   .     S
C649   Cl661   1.780   .     S
C649   C654    1.414   .     A
C650   C653    1.414   .     A
C650   Cl662   1.780   .     S
C650   C400    1.392   1_565 S
C651   C653    1.417   .     A
C651   Cl663   1.775   .     S
C651   C397    1.392   1_565 S
C652   Cl664   1.775   .     S
C652   C654    1.417   .     A
C655   N665    1.427   .     S
C656   N668    1.427   .     S
C656   C1036   1.419   .     S
C657   Cl671   1.763   .     S
C657   C1033   1.419   .     S
C658   Cl672   1.763   .     S
Cl659  C689    1.772   .     S
Cl660  C732    1.772   1_455 S
N665   O666    1.301   .     A
N665   O667    1.300   .     A
N668   O670    1.301   .     A
N668   O669    1.300   .     A
O673   C677    1.301   .     A
O673   Cu685   1.986   .     S
O674   C678    1.301   .     A
O674   Cu686   1.986   .     S
O675   Cu686   1.980   .     S
O675   C677    1.304   .     A
O676   C678    1.304   .     A
O676   Cu685   1.980   .     S
C677   C696    1.472   .     S
C678   C695    1.472   .     S
O679   C683    1.285   .     A
O679   Cu685   1.963   .     S
O680   C684    1.285   .     A
O680   Cu686   1.963   .     S
O681   Cu686   1.962   .     S
O681   C683    1.300   .     A
O682   C684    1.300   .     A
O682   Cu685   1.962   .     S
C683   C689    1.435   .     S
C684   C690    1.435   .     S
Cu685  N687    2.028   .     S
Cu685  Cu686   2.698   .     S
Cu686  N688    2.028   .     S
N687   C698    1.373   .     A
N687   C699    1.372   .     A
N688   C700    1.372   .     A
N688   C697    1.373   .     A
C690   C731    1.350   .     S
C690   Cl744   1.772   .     S
C691   Cl703   1.780   .     S
C691   C696    1.414   .     A
C692   C695    1.414   .     A
C692   Cl704   1.780   .     S
C692   C442    1.392   1_565 S
C693   C695    1.417   .     A
C693   Cl705   1.775   .     S
C693   C439    1.392   1_565 S
C694   Cl706   1.775   .     S
C694   C696    1.417   .     A
C697   N707    1.427   .     S
C698   N710    1.427   .     S
C698   C1078   1.419   .     S
C699   Cl713   1.763   .     S
C699   C1075   1.419   .     S
C700   Cl714   1.763   .     S
Cl701  C731    1.772   .     S
N707   O708    1.301   .     A
N707   O709    1.300   .     A
N710   O712    1.301   .     A
N710   O711    1.300   .     A
O715   C719    1.301   .     A
O715   Cu727   1.986   .     S
O716   C720    1.301   .     A
O716   Cu728   1.986   .     S
O717   Cu728   1.980   .     S
O717   C719    1.304   .     A
O718   C720    1.304   .     A
O718   Cu727   1.980   .     S
C719   C738    1.472   .     S
C720   C737    1.472   .     S
O721   C725    1.285   .     A
O721   Cu727   1.963   .     S
O722   C726    1.285   .     A
O722   Cu728   1.963   .     S
O723   Cu728   1.962   .     S
O723   C725    1.300   .     A
O724   C726    1.300   .     A
O724   Cu727   1.962   .     S
C725   C731    1.435   .     S
C726   C732    1.435   .     S
Cu727  N729    2.028   .     S
Cu727  Cu728   2.698   .     S
Cu728  N730    2.028   .     S
N729   C740    1.373   .     A
N729   C741    1.372   .     A
N730   C742    1.372   .     A
N730   C739    1.373   .     A
C732   C647    1.350   1_655 S
C732   Cl660   1.772   1_655 S
C733   Cl745   1.780   .     S
C733   C738    1.414   .     A
C734   C737    1.414   .     A
C734   Cl746   1.780   .     S
C734   C484    1.392   1_565 S
C735   C737    1.417   .     A
C735   Cl747   1.775   .     S
C735   C481    1.392   1_565 S
C736   Cl748   1.775   .     S
C736   C738    1.417   .     A
C739   N749    1.427   .     S
C740   N752    1.427   .     S
C740   C1120   1.419   .     S
C741   Cl755   1.763   .     S
C741   C1117   1.419   .     S
C742   Cl756   1.763   .     S
Cl743  C647    1.772   1_655 S
N749   O750    1.301   .     A
N749   O751    1.300   .     A
N752   O754    1.301   .     A
N752   O753    1.300   .     A
O757   C761    1.301   .     A
O757   Cu769   1.986   .     S
O758   C762    1.301   .     A
O758   Cu770   1.986   .     S
O759   Cu770   1.980   .     S
O759   C761    1.304   .     A
O760   C762    1.304   .     A
O760   Cu769   1.980   .     S
C761   C780    1.472   .     S
C762   C779    1.472   .     S
O763   C767    1.285   .     A
O763   Cu769   1.963   .     S
O764   C768    1.285   .     A
O764   Cu770   1.963   .     S
O765   Cu770   1.962   .     S
O765   C767    1.300   .     A
O766   C768    1.300   .     A
O766   Cu769   1.962   .     S
C767   C773    1.435   .     S
C768   C774    1.435   .     S
Cu769  N771    2.028   .     S
Cu769  Cu770   2.698   .     S
Cu770  N772    2.028   .     S
N771   C782    1.373   .     A
N771   C783    1.372   .     A
N772   C784    1.372   .     A
N772   C781    1.373   .     A
C773   C858    1.350   1_455 S
C773   Cl869   1.772   1_455 S
C774   C815    1.350   .     S
C774   Cl828   1.772   .     S
C775   Cl787   1.780   .     S
C775   C780    1.414   .     A
C775   C1029   1.392   1_545 S
C776   C779    1.414   .     A
C776   Cl788   1.780   .     S
C776   C904    1.392   .     S
C777   C779    1.417   .     A
C777   Cl789   1.775   .     S
C777   C901    1.392   .     S
C778   Cl790   1.775   .     S
C778   C780    1.417   .     A
C778   C1028   1.392   1_545 S
C781   N791    1.427   .     S
C782   N794    1.427   .     S
C782   C28     1.419   1_556 S
C783   Cl797   1.763   .     S
C783   C25     1.419   1_556 S
C784   Cl798   1.763   .     S
Cl785  C815    1.772   .     S
Cl786  C858    1.772   1_455 S
N791   O792    1.301   .     A
N791   O793    1.300   .     A
N794   O796    1.301   .     A
N794   O795    1.300   .     A
O799   C803    1.301   .     A
O799   Cu811   1.986   .     S
O800   C804    1.301   .     A
O800   Cu812   1.986   .     S
O801   Cu812   1.980   .     S
O801   C803    1.304   .     A
O802   C804    1.304   .     A
O802   Cu811   1.980   .     S
C803   C822    1.472   .     S
C804   C821    1.472   .     S
O805   C809    1.285   .     A
O805   Cu811   1.963   .     S
O806   C810    1.285   .     A
O806   Cu812   1.963   .     S
O807   Cu812   1.962   .     S
O807   C809    1.300   .     A
O808   C810    1.300   .     A
O808   Cu811   1.962   .     S
C809   C815    1.435   .     S
C810   C816    1.435   .     S
Cu811  N813    2.028   .     S
Cu811  Cu812   2.698   .     S
Cu812  N814    2.028   .     S
N813   C824    1.373   .     A
N813   C825    1.372   .     A
N814   C826    1.372   .     A
N814   C823    1.373   .     A
C816   C857    1.350   .     S
C816   Cl870   1.772   .     S
C817   Cl829   1.780   .     S
C817   C822    1.414   .     A
C817   C1071   1.392   1_545 S
C818   C821    1.414   .     A
C818   Cl830   1.780   .     S
C818   C946    1.392   .     S
C819   C821    1.417   .     A
C819   Cl831   1.775   .     S
C819   C943    1.392   .     S
C820   Cl832   1.775   .     S
C820   C822    1.417   .     A
C820   C1070   1.392   1_545 S
C823   N833    1.427   .     S
C824   N836    1.427   .     S
C824   C70     1.419   1_556 S
C825   Cl839   1.763   .     S
C825   C67     1.419   1_556 S
C826   Cl840   1.763   .     S
Cl827  C857    1.772   .     S
N833   O834    1.301   .     A
N833   O835    1.300   .     A
N836   O838    1.301   .     A
N836   O837    1.300   .     A
O841   C845    1.301   .     A
O841   Cu853   1.986   .     S
O842   C846    1.301   .     A
O842   Cu854   1.986   .     S
O843   Cu854   1.980   .     S
O843   C845    1.304   .     A
O844   C846    1.304   .     A
O844   Cu853   1.980   .     S
C845   C864    1.472   .     S
C846   C863    1.472   .     S
O847   C851    1.285   .     A
O847   Cu853   1.963   .     S
O848   C852    1.285   .     A
O848   Cu854   1.963   .     S
O849   Cu854   1.962   .     S
O849   C851    1.300   .     A
O850   C852    1.300   .     A
O850   Cu853   1.962   .     S
C851   C857    1.435   .     S
C852   C858    1.435   .     S
Cu853  N855    2.028   .     S
Cu853  Cu854   2.698   .     S
Cu854  N856    2.028   .     S
N855   C866    1.373   .     A
N855   C867    1.372   .     A
N856   C868    1.372   .     A
N856   C865    1.373   .     A
C858   C773    1.350   1_655 S
C858   Cl786   1.772   1_655 S
C859   Cl871   1.780   .     S
C859   C864    1.414   .     A
C859   C1113   1.392   1_545 S
C860   C863    1.414   .     A
C860   Cl872   1.780   .     S
C860   C988    1.392   .     S
C861   C863    1.417   .     A
C861   Cl873   1.775   .     S
C861   C985    1.392   .     S
C862   Cl874   1.775   .     S
C862   C864    1.417   .     A
C862   C1112   1.392   1_545 S
C865   N875    1.427   .     S
C866   N878    1.427   .     S
C866   C112    1.419   1_556 S
C867   Cl881   1.763   .     S
C867   C109    1.419   1_556 S
C868   Cl882   1.763   .     S
Cl869  C773    1.772   1_655 S
N875   O876    1.301   .     A
N875   O877    1.300   .     A
N878   O880    1.301   .     A
N878   O879    1.300   .     A
O883   C887    1.301   .     A
O883   Cu895   1.986   .     S
O884   C888    1.301   .     A
O884   Cu896   1.986   .     S
O885   Cu896   1.980   .     S
O885   C887    1.304   .     A
O886   C888    1.304   .     A
O886   Cu895   1.980   .     S
C887   C906    1.472   .     S
C888   C905    1.472   .     S
O889   C893    1.285   .     A
O889   Cu895   1.963   .     S
O890   C894    1.285   .     A
O890   Cu896   1.963   .     S
O891   Cu896   1.962   .     S
O891   C893    1.300   .     A
O892   C894    1.300   .     A
O892   Cu895   1.962   .     S
C893   C899    1.435   .     S
C894   C900    1.435   .     S
Cu895  N897    2.028   .     S
Cu895  Cu896   2.698   .     S
Cu896  N898    2.028   .     S
N897   C908    1.373   .     A
N897   C909    1.372   .     A
N898   C910    1.372   .     A
N898   C907    1.373   .     A
C899   C984    1.350   1_455 S
C899   Cl995   1.772   1_455 S
C900   C941    1.350   .     S
C900   Cl954   1.772   .     S
C901   Cl913   1.780   .     S
C901   C906    1.414   .     A
C902   C905    1.414   .     A
C902   Cl914   1.780   .     S
C902   C1030   1.392   .     S
C903   C905    1.417   .     A
C903   Cl915   1.775   .     S
C903   C1027   1.392   .     S
C904   Cl916   1.775   .     S
C904   C906    1.417   .     A
C907   N917    1.427   .     S
C908   N920    1.427   .     S
C908   C154    1.419   1_556 S
C909   Cl923   1.763   .     S
C909   C151    1.419   1_556 S
C910   Cl924   1.763   .     S
Cl911  C941    1.772   .     S
Cl912  C984    1.772   1_455 S
N917   O918    1.301   .     A
N917   O919    1.300   .     A
N920   O922    1.301   .     A
N920   O921    1.300   .     A
O925   C929    1.301   .     A
O925   Cu937   1.986   .     S
O926   C930    1.301   .     A
O926   Cu938   1.986   .     S
O927   Cu938   1.980   .     S
O927   C929    1.304   .     A
O928   C930    1.304   .     A
O928   Cu937   1.980   .     S
C929   C948    1.472   .     S
C930   C947    1.472   .     S
O931   C935    1.285   .     A
O931   Cu937   1.963   .     S
O932   C936    1.285   .     A
O932   Cu938   1.963   .     S
O933   Cu938   1.962   .     S
O933   C935    1.300   .     A
O934   C936    1.300   .     A
O934   Cu937   1.962   .     S
C935   C941    1.435   .     S
C936   C942    1.435   .     S
Cu937  N939    2.028   .     S
Cu937  Cu938   2.698   .     S
Cu938  N940    2.028   .     S
N939   C950    1.373   .     A
N939   C951    1.372   .     A
N940   C952    1.372   .     A
N940   C949    1.373   .     A
C942   C983    1.350   .     S
C942   Cl996   1.772   .     S
C943   Cl955   1.780   .     S
C943   C948    1.414   .     A
C944   C947    1.414   .     A
C944   Cl956   1.780   .     S
C944   C1072   1.392   .     S
C945   C947    1.417   .     A
C945   Cl957   1.775   .     S
C945   C1069   1.392   .     S
C946   Cl958   1.775   .     S
C946   C948    1.417   .     A
C949   N959    1.427   .     S
C950   N962    1.427   .     S
C950   C196    1.419   1_556 S
C951   Cl965   1.763   .     S
C951   C193    1.419   1_556 S
C952   Cl966   1.763   .     S
Cl953  C983    1.772   .     S
N959   O960    1.301   .     A
N959   O961    1.300   .     A
N962   O964    1.301   .     A
N962   O963    1.300   .     A
O967   C971    1.301   .     A
O967   Cu979   1.986   .     S
O968   C972    1.301   .     A
O968   Cu980   1.986   .     S
O969   Cu980   1.980   .     S
O969   C971    1.304   .     A
O970   C972    1.304   .     A
O970   Cu979   1.980   .     S
C971   C990    1.472   .     S
C972   C989    1.472   .     S
O973   C977    1.285   .     A
O973   Cu979   1.963   .     S
O974   C978    1.285   .     A
O974   Cu980   1.963   .     S
O975   Cu980   1.962   .     S
O975   C977    1.300   .     A
O976   C978    1.300   .     A
O976   Cu979   1.962   .     S
C977   C983    1.435   .     S
C978   C984    1.435   .     S
Cu979  N981    2.028   .     S
Cu979  Cu980   2.698   .     S
Cu980  N982    2.028   .     S
N981   C992    1.373   .     A
N981   C993    1.372   .     A
N982   C994    1.372   .     A
N982   C991    1.373   .     A
C984   C899    1.350   1_655 S
C984   Cl912   1.772   1_655 S
C985   Cl997   1.780   .     S
C985   C990    1.414   .     A
C986   C989    1.414   .     A
C986   Cl998   1.780   .     S
C986   C1114   1.392   .     S
C987   C989    1.417   .     A
C987   Cl999   1.775   .     S
C987   C1111   1.392   .     S
C988   Cl1000  1.775   .     S
C988   C990    1.417   .     A
C991   N1001   1.427   .     S
C992   N1004   1.427   .     S
C992   C238    1.419   1_556 S
C993   Cl1007  1.763   .     S
C993   C235    1.419   1_556 S
C994   Cl1008  1.763   .     S
Cl995  C899    1.772   1_655 S
N1001  O1002   1.301   .     A
N1001  O1003   1.300   .     A
N1004  O1006   1.301   .     A
N1004  O1005   1.300   .     A
O1009  C1013   1.301   .     A
O1009  Cu1021  1.986   .     S
O1010  C1014   1.301   .     A
O1010  Cu1022  1.986   .     S
O1011  Cu1022  1.980   .     S
O1011  C1013   1.304   .     A
O1012  C1014   1.304   .     A
O1012  Cu1021  1.980   .     S
C1013  C1032   1.472   .     S
C1014  C1031   1.472   .     S
O1015  C1019   1.285   .     A
O1015  Cu1021  1.963   .     S
O1016  C1020   1.285   .     A
O1016  Cu1022  1.963   .     S
O1017  Cu1022  1.962   .     S
O1017  C1019   1.300   .     A
O1018  C1020   1.300   .     A
O1018  Cu1021  1.962   .     S
C1019  C1025   1.435   .     S
C1020  C1026   1.435   .     S
Cu1021 N1023   2.028   .     S
Cu1021 Cu1022  2.698   .     S
Cu1022 N1024   2.028   .     S
N1023  C1034   1.373   .     A
N1023  C1035   1.372   .     A
N1024  C1036   1.372   .     A
N1024  C1033   1.373   .     A
C1025  C1110   1.350   1_455 S
C1025  Cl1121  1.772   1_455 S
C1026  C1067   1.350   .     S
C1026  Cl1080  1.772   .     S
C1027  Cl1039  1.780   .     S
C1027  C1032   1.414   .     A
C1028  C1031   1.414   .     A
C1028  Cl1040  1.780   .     S
C1028  C778    1.392   1_565 S
C1029  C1031   1.417   .     A
C1029  Cl1041  1.775   .     S
C1029  C775    1.392   1_565 S
C1030  Cl1042  1.775   .     S
C1030  C1032   1.417   .     A
C1033  N1043   1.427   .     S
C1034  N1046   1.427   .     S
C1034  C280    1.419   1_556 S
C1035  Cl1049  1.763   .     S
C1035  C277    1.419   1_556 S
C1036  Cl1050  1.763   .     S
Cl1037 C1067   1.772   .     S
Cl1038 C1110   1.772   1_455 S
N1043  O1044   1.301   .     A
N1043  O1045   1.300   .     A
N1046  O1048   1.301   .     A
N1046  O1047   1.300   .     A
O1051  C1055   1.301   .     A
O1051  Cu1063  1.986   .     S
O1052  C1056   1.301   .     A
O1052  Cu1064  1.986   .     S
O1053  Cu1064  1.980   .     S
O1053  C1055   1.304   .     A
O1054  C1056   1.304   .     A
O1054  Cu1063  1.980   .     S
C1055  C1074   1.472   .     S
C1056  C1073   1.472   .     S
O1057  C1061   1.285   .     A
O1057  Cu1063  1.963   .     S
O1058  C1062   1.285   .     A
O1058  Cu1064  1.963   .     S
O1059  Cu1064  1.962   .     S
O1059  C1061   1.300   .     A
O1060  C1062   1.300   .     A
O1060  Cu1063  1.962   .     S
C1061  C1067   1.435   .     S
C1062  C1068   1.435   .     S
Cu1063 N1065   2.028   .     S
Cu1063 Cu1064  2.698   .     S
Cu1064 N1066   2.028   .     S
N1065  C1076   1.373   .     A
N1065  C1077   1.372   .     A
N1066  C1078   1.372   .     A
N1066  C1075   1.373   .     A
C1068  C1109   1.350   .     S
C1068  Cl1122  1.772   .     S
C1069  Cl1081  1.780   .     S
C1069  C1074   1.414   .     A
C1070  C1073   1.414   .     A
C1070  Cl1082  1.780   .     S
C1070  C820    1.392   1_565 S
C1071  C1073   1.417   .     A
C1071  Cl1083  1.775   .     S
C1071  C817    1.392   1_565 S
C1072  Cl1084  1.775   .     S
C1072  C1074   1.417   .     A
C1075  N1085   1.427   .     S
C1076  N1088   1.427   .     S
C1076  C322    1.419   1_556 S
C1077  Cl1091  1.763   .     S
C1077  C319    1.419   1_556 S
C1078  Cl1092  1.763   .     S
Cl1079 C1109   1.772   .     S
N1085  O1086   1.301   .     A
N1085  O1087   1.300   .     A
N1088  O1090   1.301   .     A
N1088  O1089   1.300   .     A
O1093  C1097   1.301   .     A
O1093  Cu1105  1.986   .     S
O1094  C1098   1.301   .     A
O1094  Cu1106  1.986   .     S
O1095  Cu1106  1.980   .     S
O1095  C1097   1.304   .     A
O1096  C1098   1.304   .     A
O1096  Cu1105  1.980   .     S
C1097  C1116   1.472   .     S
C1098  C1115   1.472   .     S
O1099  C1103   1.285   .     A
O1099  Cu1105  1.963   .     S
O1100  C1104   1.285   .     A
O1100  Cu1106  1.963   .     S
O1101  Cu1106  1.962   .     S
O1101  C1103   1.300   .     A
O1102  C1104   1.300   .     A
O1102  Cu1105  1.962   .     S
C1103  C1109   1.435   .     S
C1104  C1110   1.435   .     S
Cu1105 N1107   2.028   .     S
Cu1105 Cu1106  2.698   .     S
Cu1106 N1108   2.028   .     S
N1107  C1118   1.373   .     A
N1107  C1119   1.372   .     A
N1108  C1120   1.372   .     A
N1108  C1117   1.373   .     A
C1110  C1025   1.350   1_655 S
C1110  Cl1038  1.772   1_655 S
C1111  Cl1123  1.780   .     S
C1111  C1116   1.414   .     A
C1112  C1115   1.414   .     A
C1112  Cl1124  1.780   .     S
C1112  C862    1.392   1_565 S
C1113  C1115   1.417   .     A
C1113  Cl1125  1.775   .     S
C1113  C859    1.392   1_565 S
C1114  Cl1126  1.775   .     S
C1114  C1116   1.417   .     A
C1117  N1127   1.427   .     S
C1118  N1130   1.427   .     S
C1118  C364    1.419   1_556 S
C1119  Cl1133  1.763   .     S
C1119  C361    1.419   1_556 S
C1120  Cl1134  1.763   .     S
Cl1121 C1025   1.772   1_655 S
N1127  O1128   1.301   .     A
N1127  O1129   1.300   .     A
N1130  O1132   1.301   .     A
N1130  O1131   1.300   .     A
