data_str_m2_o10_o17_pcu_sym.201
_audit_creation_date              2020-01-03
_audit_creation_method            'Materials Studio'
_symmetry_space_group_name_H-M    'P1'
_symmetry_Int_Tables_number       1
_symmetry_cell_setting            triclinic
loop_
_symmetry_equiv_pos_as_xyz
  x,y,z
_cell_length_a                    30.0062
_cell_length_b                    26.1624
_cell_length_c                    22.4355
_cell_angle_alpha                 102.6244
_cell_angle_beta                  94.7978
_cell_angle_gamma                 93.4150
loop_
_atom_site_label
_atom_site_type_symbol
_atom_site_fract_x
_atom_site_fract_y
_atom_site_fract_z
_atom_site_U_iso_or_equiv
_atom_site_adp_type
_atom_site_occupancy
C1     C     0.24711   0.06673   0.15145   0.00000  Uiso   1.00
C2     C     0.25288   0.26660   0.18188   0.00000  Uiso   1.00
C3     C     0.01384   0.07108   0.11492   0.00000  Uiso   1.00
C4     C     0.48722   0.25060   0.24442   0.00000  Uiso   1.00
C5     C     0.24058   0.01079   0.14453   0.00000  Uiso   1.00
C6     C     0.25938   0.32254   0.18880   0.00000  Uiso   1.00
C7     C     0.16465   0.16572   0.16710   0.00000  Uiso   1.00
C8     C     0.33543   0.16745   0.16630   0.00000  Uiso   1.00
C9     C     0.41136   0.21115   0.20291   0.00000  Uiso   1.00
C10    C     0.08946   0.11683   0.14138   0.00000  Uiso   1.00
C11    C     0.38377   0.16858   0.16591   0.00000  Uiso   1.00
C12    C     0.11649   0.16333   0.16879   0.00000  Uiso   1.00
C13    C     0.40183   0.12505   0.13150   0.00000  Uiso   1.00
C14    C     0.09818   0.20836   0.19902   0.00000  Uiso   1.00
C15    C     0.44843   0.12050   0.13872   0.00000  Uiso   1.00
C16    C     0.05203   0.20672   0.20618   0.00000  Uiso   1.00
C17    C     0.47683   0.16391   0.17335   0.00000  Uiso   1.00
C18    C     0.02374   0.16241   0.17389   0.00000  Uiso   1.00
C19    C     0.45835   0.20904   0.20686   0.00000  Uiso   1.00
C20    C     0.04241   0.11666   0.14235   0.00000  Uiso   1.00
C21    C     0.46699   0.07273   0.11487   0.00000  Uiso   1.00
C22    C     0.03391   0.24763   0.24662   0.00000  Uiso   1.00
Cu23   Cu    0.25501   0.17246   0.22813   0.00000  Uiso   1.00
Cu24   Cu    0.24500   0.16087   0.10521   0.00000  Uiso   1.00
N25    N     0.23745   0.15214   0.01284   0.00000  Uiso   1.00
N26    N     0.26256   0.18119   0.32049   0.00000  Uiso   1.00
O27    O     0.25326   0.09538   0.20659   0.00000  Uiso   1.00
O28    O     0.24675   0.23796   0.12674   0.00000  Uiso   1.00
O29    O     0.24480   0.08559   0.10279   0.00000  Uiso   1.00
O30    O     0.25520   0.24774   0.23055   0.00000  Uiso   1.00
O31    O     0.18936   0.17155   0.21857   0.00000  Uiso   1.00
O32    O     0.31065   0.16179   0.11476   0.00000  Uiso   1.00
O33    O     0.18090   0.16176   0.11477   0.00000  Uiso   1.00
O34    O     0.31910   0.17157   0.21857   0.00000  Uiso   1.00
O35    O     0.39315   0.25532   0.23457   0.00000  Uiso   1.00
H36    H     0.36325   0.25889   0.21435   0.00000  Uiso   1.00
O37    O     0.10800   0.07178   0.11253   0.00000  Uiso   1.00
H38    H     0.14031   0.07314   0.12628   0.00000  Uiso   1.00
O39    O     0.37288   0.08737   0.09175   0.00000  Uiso   1.00
H40    H     0.38669   0.07805   0.05256   0.00000  Uiso   1.00
O41    O     0.12620   0.25389   0.21904   0.00000  Uiso   1.00
H42    H     0.10952   0.28352   0.21051   0.00000  Uiso   1.00
O43    O     0.43955   0.02694   0.09201   0.00000  Uiso   1.00
C44    C     0.43216   0.00249   0.14090   0.00000  Uiso   1.00
H45    H     0.41074   0.29875   0.12247   0.00000  Uiso   1.00
H46    H     0.46418   0.32547   0.16234   0.00000  Uiso   1.00
H47    H     0.41413   0.02763   0.17620   0.00000  Uiso   1.00
O48    O     0.06147   0.28427   0.29025   0.00000  Uiso   1.00
C49    C     0.07410   0.26128   0.00657   0.00000  Uiso   1.00
H50    H     0.09490   0.29113   0.04246   0.00000  Uiso   1.00
H51    H     0.09487   0.22769   0.32587   0.00000  Uiso   1.00
H52    H     0.04425   0.24827   0.02741   0.00000  Uiso   1.00
O53    O     0.03234   0.02505   0.08956   0.00000  Uiso   1.00
H54    H     0.00862   0.33009   0.07146   0.00000  Uiso   1.00
O55    O     0.46934   0.29313   0.27994   0.00000  Uiso   1.00
H56    H     0.49281   0.32250   0.29449   0.00000  Uiso   1.00
O57    O     0.21316   0.31384   0.09488   0.00000  Uiso   1.00
H58    H     0.19931   0.00365   0.07026   0.00000  Uiso   1.00
O59    O     0.28678   0.01949   0.23848   0.00000  Uiso   1.00
H60    H     0.30063   0.32968   0.26311   0.00000  Uiso   1.00
O61    O     0.20775   0.11730   0.30807   0.00000  Uiso   1.00
H62    H     0.19186   0.09876   0.00177   0.00000  Uiso   1.00
O63    O     0.29226   0.21603   0.02527   0.00000  Uiso   1.00
H64    H     0.30816   0.23456   0.33156   0.00000  Uiso   1.00
C65    C     0.74711   0.06673   0.15145   0.00000  Uiso   1.00
C66    C     0.75288   0.26660   0.18188   0.00000  Uiso   1.00
C67    C     0.51384   0.07108   0.11492   0.00000  Uiso   1.00
C68    C     0.98722   0.25060   0.24442   0.00000  Uiso   1.00
C69    C     0.74058   0.01079   0.14453   0.00000  Uiso   1.00
C70    C     0.75938   0.32254   0.18880   0.00000  Uiso   1.00
C71    C     0.66465   0.16572   0.16710   0.00000  Uiso   1.00
C72    C     0.83543   0.16745   0.16630   0.00000  Uiso   1.00
C73    C     0.91136   0.21115   0.20291   0.00000  Uiso   1.00
C74    C     0.58946   0.11683   0.14138   0.00000  Uiso   1.00
C75    C     0.88377   0.16858   0.16591   0.00000  Uiso   1.00
C76    C     0.61649   0.16333   0.16879   0.00000  Uiso   1.00
C77    C     0.90183   0.12505   0.13150   0.00000  Uiso   1.00
C78    C     0.59818   0.20836   0.19902   0.00000  Uiso   1.00
C79    C     0.94843   0.12050   0.13872   0.00000  Uiso   1.00
C80    C     0.55203   0.20672   0.20618   0.00000  Uiso   1.00
C81    C     0.97683   0.16391   0.17335   0.00000  Uiso   1.00
C82    C     0.52374   0.16241   0.17389   0.00000  Uiso   1.00
C83    C     0.95835   0.20904   0.20686   0.00000  Uiso   1.00
C84    C     0.54241   0.11666   0.14235   0.00000  Uiso   1.00
C85    C     0.96699   0.07273   0.11487   0.00000  Uiso   1.00
C86    C     0.53391   0.24763   0.24662   0.00000  Uiso   1.00
Cu87   Cu    0.75501   0.17246   0.22813   0.00000  Uiso   1.00
Cu88   Cu    0.74500   0.16087   0.10521   0.00000  Uiso   1.00
N89    N     0.73745   0.15214   0.01284   0.00000  Uiso   1.00
N90    N     0.76256   0.18119   0.32049   0.00000  Uiso   1.00
O91    O     0.75326   0.09538   0.20659   0.00000  Uiso   1.00
O92    O     0.74675   0.23796   0.12674   0.00000  Uiso   1.00
O93    O     0.74480   0.08559   0.10279   0.00000  Uiso   1.00
O94    O     0.75520   0.24774   0.23055   0.00000  Uiso   1.00
O95    O     0.68936   0.17155   0.21857   0.00000  Uiso   1.00
O96    O     0.81065   0.16179   0.11476   0.00000  Uiso   1.00
O97    O     0.68090   0.16176   0.11477   0.00000  Uiso   1.00
O98    O     0.81910   0.17157   0.21857   0.00000  Uiso   1.00
O99    O     0.89315   0.25532   0.23457   0.00000  Uiso   1.00
H100   H     0.86325   0.25889   0.21435   0.00000  Uiso   1.00
O101   O     0.60800   0.07178   0.11253   0.00000  Uiso   1.00
H102   H     0.64031   0.07314   0.12628   0.00000  Uiso   1.00
O103   O     0.87288   0.08737   0.09175   0.00000  Uiso   1.00
H104   H     0.88669   0.07805   0.05256   0.00000  Uiso   1.00
O105   O     0.62620   0.25389   0.21904   0.00000  Uiso   1.00
H106   H     0.60952   0.28352   0.21051   0.00000  Uiso   1.00
O107   O     0.93955   0.02694   0.09201   0.00000  Uiso   1.00
C108   C     0.93216   0.00249   0.14090   0.00000  Uiso   1.00
H109   H     0.91074   0.29875   0.12247   0.00000  Uiso   1.00
H110   H     0.96418   0.32547   0.16234   0.00000  Uiso   1.00
H111   H     0.91413   0.02763   0.17620   0.00000  Uiso   1.00
O112   O     0.56147   0.28427   0.29025   0.00000  Uiso   1.00
C113   C     0.57410   0.26128   0.00657   0.00000  Uiso   1.00
H114   H     0.59490   0.29113   0.04246   0.00000  Uiso   1.00
H115   H     0.59487   0.22769   0.32587   0.00000  Uiso   1.00
H116   H     0.54425   0.24827   0.02741   0.00000  Uiso   1.00
O117   O     0.53234   0.02505   0.08956   0.00000  Uiso   1.00
H118   H     0.50862   0.33009   0.07146   0.00000  Uiso   1.00
O119   O     0.96934   0.29313   0.27994   0.00000  Uiso   1.00
H120   H     0.99281   0.32250   0.29449   0.00000  Uiso   1.00
O121   O     0.71316   0.31384   0.09488   0.00000  Uiso   1.00
H122   H     0.69931   0.00365   0.07026   0.00000  Uiso   1.00
O123   O     0.78678   0.01949   0.23848   0.00000  Uiso   1.00
H124   H     0.80063   0.32968   0.26311   0.00000  Uiso   1.00
O125   O     0.70775   0.11730   0.30807   0.00000  Uiso   1.00
H126   H     0.69186   0.09876   0.00177   0.00000  Uiso   1.00
O127   O     0.79226   0.21603   0.02527   0.00000  Uiso   1.00
H128   H     0.80816   0.23456   0.33156   0.00000  Uiso   1.00
C129   C     0.24711   0.40007   0.15145   0.00000  Uiso   1.00
C130   C     0.25288   0.59993   0.18188   0.00000  Uiso   1.00
C131   C     0.01384   0.40441   0.11492   0.00000  Uiso   1.00
C132   C     0.48722   0.58393   0.24442   0.00000  Uiso   1.00
C133   C     0.24058   0.34412   0.14453   0.00000  Uiso   1.00
C134   C     0.25938   0.65588   0.18880   0.00000  Uiso   1.00
C135   C     0.16465   0.49905   0.16710   0.00000  Uiso   1.00
C136   C     0.33543   0.50078   0.16630   0.00000  Uiso   1.00
C137   C     0.41136   0.54448   0.20291   0.00000  Uiso   1.00
C138   C     0.08946   0.45016   0.14138   0.00000  Uiso   1.00
C139   C     0.38377   0.50191   0.16591   0.00000  Uiso   1.00
C140   C     0.11649   0.49666   0.16879   0.00000  Uiso   1.00
C141   C     0.40183   0.45838   0.13150   0.00000  Uiso   1.00
C142   C     0.09818   0.54169   0.19902   0.00000  Uiso   1.00
C143   C     0.44843   0.45384   0.13872   0.00000  Uiso   1.00
C144   C     0.05203   0.54006   0.20618   0.00000  Uiso   1.00
C145   C     0.47683   0.49725   0.17335   0.00000  Uiso   1.00
C146   C     0.02374   0.49574   0.17389   0.00000  Uiso   1.00
C147   C     0.45835   0.54237   0.20686   0.00000  Uiso   1.00
C148   C     0.04241   0.45000   0.14235   0.00000  Uiso   1.00
C149   C     0.46699   0.40606   0.11487   0.00000  Uiso   1.00
C150   C     0.03391   0.58097   0.24662   0.00000  Uiso   1.00
Cu151  Cu    0.25501   0.50579   0.22813   0.00000  Uiso   1.00
Cu152  Cu    0.24500   0.49421   0.10521   0.00000  Uiso   1.00
N153   N     0.23745   0.48547   0.01284   0.00000  Uiso   1.00
N154   N     0.26256   0.51453   0.32049   0.00000  Uiso   1.00
O155   O     0.25326   0.42871   0.20659   0.00000  Uiso   1.00
O156   O     0.24675   0.57129   0.12674   0.00000  Uiso   1.00
O157   O     0.24480   0.41892   0.10279   0.00000  Uiso   1.00
O158   O     0.25520   0.58108   0.23055   0.00000  Uiso   1.00
O159   O     0.18936   0.50488   0.21857   0.00000  Uiso   1.00
O160   O     0.31065   0.49512   0.11476   0.00000  Uiso   1.00
O161   O     0.18090   0.49510   0.11477   0.00000  Uiso   1.00
O162   O     0.31910   0.50490   0.21857   0.00000  Uiso   1.00
O163   O     0.39315   0.58866   0.23457   0.00000  Uiso   1.00
H164   H     0.36325   0.59222   0.21435   0.00000  Uiso   1.00
O165   O     0.10800   0.40512   0.11253   0.00000  Uiso   1.00
H166   H     0.14031   0.40648   0.12628   0.00000  Uiso   1.00
O167   O     0.37288   0.42070   0.09175   0.00000  Uiso   1.00
H168   H     0.38669   0.41139   0.05256   0.00000  Uiso   1.00
O169   O     0.12620   0.58723   0.21904   0.00000  Uiso   1.00
H170   H     0.10952   0.61685   0.21051   0.00000  Uiso   1.00
O171   O     0.43955   0.36027   0.09201   0.00000  Uiso   1.00
C172   C     0.43216   0.33582   0.14090   0.00000  Uiso   1.00
H173   H     0.41074   0.63208   0.12247   0.00000  Uiso   1.00
H174   H     0.46418   0.65880   0.16234   0.00000  Uiso   1.00
H175   H     0.41413   0.36097   0.17620   0.00000  Uiso   1.00
O176   O     0.06147   0.61760   0.29025   0.00000  Uiso   1.00
C177   C     0.07410   0.59461   0.00657   0.00000  Uiso   1.00
H178   H     0.09490   0.62446   0.04246   0.00000  Uiso   1.00
H179   H     0.09487   0.56103   0.32587   0.00000  Uiso   1.00
H180   H     0.04425   0.58160   0.02741   0.00000  Uiso   1.00
O181   O     0.03234   0.35838   0.08956   0.00000  Uiso   1.00
H182   H     0.00862   0.66342   0.07146   0.00000  Uiso   1.00
O183   O     0.46934   0.62647   0.27994   0.00000  Uiso   1.00
H184   H     0.49281   0.65583   0.29449   0.00000  Uiso   1.00
O185   O     0.21316   0.64717   0.09488   0.00000  Uiso   1.00
H186   H     0.19931   0.33698   0.07026   0.00000  Uiso   1.00
O187   O     0.28678   0.35283   0.23848   0.00000  Uiso   1.00
H188   H     0.30063   0.66302   0.26311   0.00000  Uiso   1.00
O189   O     0.20775   0.45063   0.30807   0.00000  Uiso   1.00
H190   H     0.19186   0.43209   0.00177   0.00000  Uiso   1.00
O191   O     0.29226   0.54937   0.02527   0.00000  Uiso   1.00
H192   H     0.30816   0.56789   0.33156   0.00000  Uiso   1.00
C193   C     0.74711   0.40007   0.15145   0.00000  Uiso   1.00
C194   C     0.75288   0.59993   0.18188   0.00000  Uiso   1.00
C195   C     0.51384   0.40441   0.11492   0.00000  Uiso   1.00
C196   C     0.98722   0.58393   0.24442   0.00000  Uiso   1.00
C197   C     0.74058   0.34412   0.14453   0.00000  Uiso   1.00
C198   C     0.75938   0.65588   0.18880   0.00000  Uiso   1.00
C199   C     0.66465   0.49905   0.16710   0.00000  Uiso   1.00
C200   C     0.83543   0.50078   0.16630   0.00000  Uiso   1.00
C201   C     0.91136   0.54448   0.20291   0.00000  Uiso   1.00
C202   C     0.58946   0.45016   0.14138   0.00000  Uiso   1.00
C203   C     0.88377   0.50191   0.16591   0.00000  Uiso   1.00
C204   C     0.61649   0.49666   0.16879   0.00000  Uiso   1.00
C205   C     0.90183   0.45838   0.13150   0.00000  Uiso   1.00
C206   C     0.59818   0.54169   0.19902   0.00000  Uiso   1.00
C207   C     0.94843   0.45384   0.13872   0.00000  Uiso   1.00
C208   C     0.55203   0.54006   0.20618   0.00000  Uiso   1.00
C209   C     0.97683   0.49725   0.17335   0.00000  Uiso   1.00
C210   C     0.52374   0.49574   0.17389   0.00000  Uiso   1.00
C211   C     0.95835   0.54237   0.20686   0.00000  Uiso   1.00
C212   C     0.54241   0.45000   0.14235   0.00000  Uiso   1.00
C213   C     0.96699   0.40606   0.11487   0.00000  Uiso   1.00
C214   C     0.53391   0.58097   0.24662   0.00000  Uiso   1.00
Cu215  Cu    0.75501   0.50579   0.22813   0.00000  Uiso   1.00
Cu216  Cu    0.74500   0.49421   0.10521   0.00000  Uiso   1.00
N217   N     0.73745   0.48547   0.01284   0.00000  Uiso   1.00
N218   N     0.76256   0.51453   0.32049   0.00000  Uiso   1.00
O219   O     0.75326   0.42871   0.20659   0.00000  Uiso   1.00
O220   O     0.74675   0.57129   0.12674   0.00000  Uiso   1.00
O221   O     0.74480   0.41892   0.10279   0.00000  Uiso   1.00
O222   O     0.75520   0.58108   0.23055   0.00000  Uiso   1.00
O223   O     0.68936   0.50488   0.21857   0.00000  Uiso   1.00
O224   O     0.81065   0.49512   0.11476   0.00000  Uiso   1.00
O225   O     0.68090   0.49510   0.11477   0.00000  Uiso   1.00
O226   O     0.81910   0.50490   0.21857   0.00000  Uiso   1.00
O227   O     0.89315   0.58866   0.23457   0.00000  Uiso   1.00
H228   H     0.86325   0.59222   0.21435   0.00000  Uiso   1.00
O229   O     0.60800   0.40512   0.11253   0.00000  Uiso   1.00
H230   H     0.64031   0.40648   0.12628   0.00000  Uiso   1.00
O231   O     0.87288   0.42070   0.09175   0.00000  Uiso   1.00
H232   H     0.88669   0.41139   0.05256   0.00000  Uiso   1.00
O233   O     0.62620   0.58723   0.21904   0.00000  Uiso   1.00
H234   H     0.60952   0.61685   0.21051   0.00000  Uiso   1.00
O235   O     0.93955   0.36027   0.09201   0.00000  Uiso   1.00
C236   C     0.93216   0.33582   0.14090   0.00000  Uiso   1.00
H237   H     0.91074   0.63208   0.12247   0.00000  Uiso   1.00
H238   H     0.96418   0.65880   0.16234   0.00000  Uiso   1.00
H239   H     0.91413   0.36097   0.17620   0.00000  Uiso   1.00
O240   O     0.56147   0.61760   0.29025   0.00000  Uiso   1.00
C241   C     0.57410   0.59461   0.00657   0.00000  Uiso   1.00
H242   H     0.59490   0.62446   0.04246   0.00000  Uiso   1.00
H243   H     0.59487   0.56103   0.32587   0.00000  Uiso   1.00
H244   H     0.54425   0.58160   0.02741   0.00000  Uiso   1.00
O245   O     0.53234   0.35838   0.08956   0.00000  Uiso   1.00
H246   H     0.50862   0.66342   0.07146   0.00000  Uiso   1.00
O247   O     0.96934   0.62647   0.27994   0.00000  Uiso   1.00
H248   H     0.99281   0.65583   0.29449   0.00000  Uiso   1.00
O249   O     0.71316   0.64717   0.09488   0.00000  Uiso   1.00
H250   H     0.69931   0.33698   0.07026   0.00000  Uiso   1.00
O251   O     0.78678   0.35283   0.23848   0.00000  Uiso   1.00
H252   H     0.80063   0.66302   0.26311   0.00000  Uiso   1.00
O253   O     0.70775   0.45063   0.30807   0.00000  Uiso   1.00
H254   H     0.69186   0.43209   0.00177   0.00000  Uiso   1.00
O255   O     0.79226   0.54937   0.02527   0.00000  Uiso   1.00
H256   H     0.80816   0.56789   0.33156   0.00000  Uiso   1.00
C257   C     0.24711   0.73340   0.15145   0.00000  Uiso   1.00
C258   C     0.25288   0.93326   0.18188   0.00000  Uiso   1.00
C259   C     0.01384   0.73774   0.11492   0.00000  Uiso   1.00
C260   C     0.48722   0.91726   0.24442   0.00000  Uiso   1.00
C261   C     0.24058   0.67745   0.14453   0.00000  Uiso   1.00
C262   C     0.25938   0.98921   0.18880   0.00000  Uiso   1.00
C263   C     0.16465   0.83238   0.16710   0.00000  Uiso   1.00
C264   C     0.33543   0.83411   0.16630   0.00000  Uiso   1.00
C265   C     0.41136   0.87782   0.20291   0.00000  Uiso   1.00
C266   C     0.08946   0.78349   0.14138   0.00000  Uiso   1.00
C267   C     0.38377   0.83525   0.16591   0.00000  Uiso   1.00
C268   C     0.11649   0.83000   0.16879   0.00000  Uiso   1.00
C269   C     0.40183   0.79171   0.13150   0.00000  Uiso   1.00
C270   C     0.09818   0.87502   0.19902   0.00000  Uiso   1.00
C271   C     0.44843   0.78717   0.13872   0.00000  Uiso   1.00
C272   C     0.05203   0.87339   0.20618   0.00000  Uiso   1.00
C273   C     0.47683   0.83058   0.17335   0.00000  Uiso   1.00
C274   C     0.02374   0.82907   0.17389   0.00000  Uiso   1.00
C275   C     0.45835   0.87570   0.20686   0.00000  Uiso   1.00
C276   C     0.04241   0.78333   0.14235   0.00000  Uiso   1.00
C277   C     0.46699   0.73939   0.11487   0.00000  Uiso   1.00
C278   C     0.03391   0.91430   0.24662   0.00000  Uiso   1.00
Cu279  Cu    0.25501   0.83913   0.22813   0.00000  Uiso   1.00
Cu280  Cu    0.24500   0.82754   0.10521   0.00000  Uiso   1.00
N281   N     0.23745   0.81881   0.01284   0.00000  Uiso   1.00
N282   N     0.26256   0.84786   0.32049   0.00000  Uiso   1.00
O283   O     0.25326   0.76204   0.20659   0.00000  Uiso   1.00
O284   O     0.24675   0.90462   0.12674   0.00000  Uiso   1.00
O285   O     0.24480   0.75226   0.10279   0.00000  Uiso   1.00
O286   O     0.25520   0.91441   0.23055   0.00000  Uiso   1.00
O287   O     0.18936   0.83821   0.21857   0.00000  Uiso   1.00
O288   O     0.31065   0.82845   0.11476   0.00000  Uiso   1.00
O289   O     0.18090   0.82843   0.11477   0.00000  Uiso   1.00
O290   O     0.31910   0.83824   0.21857   0.00000  Uiso   1.00
O291   O     0.39315   0.92199   0.23457   0.00000  Uiso   1.00
H292   H     0.36325   0.92556   0.21435   0.00000  Uiso   1.00
O293   O     0.10800   0.73845   0.11253   0.00000  Uiso   1.00
H294   H     0.14031   0.73981   0.12628   0.00000  Uiso   1.00
O295   O     0.37288   0.75403   0.09175   0.00000  Uiso   1.00
H296   H     0.38669   0.74472   0.05256   0.00000  Uiso   1.00
O297   O     0.12620   0.92056   0.21904   0.00000  Uiso   1.00
H298   H     0.10952   0.95019   0.21051   0.00000  Uiso   1.00
O299   O     0.43955   0.69360   0.09201   0.00000  Uiso   1.00
C300   C     0.43216   0.66916   0.14090   0.00000  Uiso   1.00
H301   H     0.41074   0.96541   0.12247   0.00000  Uiso   1.00
H302   H     0.46418   0.99213   0.16234   0.00000  Uiso   1.00
H303   H     0.41413   0.69430   0.17620   0.00000  Uiso   1.00
O304   O     0.06147   0.95094   0.29025   0.00000  Uiso   1.00
C305   C     0.07410   0.92795   0.00657   0.00000  Uiso   1.00
H306   H     0.09490   0.95779   0.04246   0.00000  Uiso   1.00
H307   H     0.09487   0.89436   0.32587   0.00000  Uiso   1.00
H308   H     0.04425   0.91493   0.02741   0.00000  Uiso   1.00
O309   O     0.03234   0.69171   0.08956   0.00000  Uiso   1.00
H310   H     0.00862   0.99675   0.07146   0.00000  Uiso   1.00
O311   O     0.46934   0.95980   0.27994   0.00000  Uiso   1.00
H312   H     0.49281   0.98917   0.29449   0.00000  Uiso   1.00
O313   O     0.21316   0.98051   0.09488   0.00000  Uiso   1.00
H314   H     0.19931   0.67031   0.07026   0.00000  Uiso   1.00
O315   O     0.28678   0.68616   0.23848   0.00000  Uiso   1.00
H316   H     0.30063   0.99635   0.26311   0.00000  Uiso   1.00
O317   O     0.20775   0.78396   0.30807   0.00000  Uiso   1.00
H318   H     0.19186   0.76542   0.00177   0.00000  Uiso   1.00
O319   O     0.29226   0.88270   0.02527   0.00000  Uiso   1.00
H320   H     0.30816   0.90123   0.33156   0.00000  Uiso   1.00
C321   C     0.74711   0.73340   0.15145   0.00000  Uiso   1.00
C322   C     0.75288   0.93326   0.18188   0.00000  Uiso   1.00
C323   C     0.51384   0.73774   0.11492   0.00000  Uiso   1.00
C324   C     0.98722   0.91726   0.24442   0.00000  Uiso   1.00
C325   C     0.74058   0.67745   0.14453   0.00000  Uiso   1.00
C326   C     0.75938   0.98921   0.18880   0.00000  Uiso   1.00
C327   C     0.66465   0.83238   0.16710   0.00000  Uiso   1.00
C328   C     0.83543   0.83411   0.16630   0.00000  Uiso   1.00
C329   C     0.91136   0.87782   0.20291   0.00000  Uiso   1.00
C330   C     0.58946   0.78349   0.14138   0.00000  Uiso   1.00
C331   C     0.88377   0.83525   0.16591   0.00000  Uiso   1.00
C332   C     0.61649   0.83000   0.16879   0.00000  Uiso   1.00
C333   C     0.90183   0.79171   0.13150   0.00000  Uiso   1.00
C334   C     0.59818   0.87502   0.19902   0.00000  Uiso   1.00
C335   C     0.94843   0.78717   0.13872   0.00000  Uiso   1.00
C336   C     0.55203   0.87339   0.20618   0.00000  Uiso   1.00
C337   C     0.97683   0.83058   0.17335   0.00000  Uiso   1.00
C338   C     0.52374   0.82907   0.17389   0.00000  Uiso   1.00
C339   C     0.95835   0.87570   0.20686   0.00000  Uiso   1.00
C340   C     0.54241   0.78333   0.14235   0.00000  Uiso   1.00
C341   C     0.96699   0.73939   0.11487   0.00000  Uiso   1.00
C342   C     0.53391   0.91430   0.24662   0.00000  Uiso   1.00
Cu343  Cu    0.75501   0.83913   0.22813   0.00000  Uiso   1.00
Cu344  Cu    0.74500   0.82754   0.10521   0.00000  Uiso   1.00
N345   N     0.73745   0.81881   0.01284   0.00000  Uiso   1.00
N346   N     0.76256   0.84786   0.32049   0.00000  Uiso   1.00
O347   O     0.75326   0.76204   0.20659   0.00000  Uiso   1.00
O348   O     0.74675   0.90462   0.12674   0.00000  Uiso   1.00
O349   O     0.74480   0.75226   0.10279   0.00000  Uiso   1.00
O350   O     0.75520   0.91441   0.23055   0.00000  Uiso   1.00
O351   O     0.68936   0.83821   0.21857   0.00000  Uiso   1.00
O352   O     0.81065   0.82845   0.11476   0.00000  Uiso   1.00
O353   O     0.68090   0.82843   0.11477   0.00000  Uiso   1.00
O354   O     0.81910   0.83824   0.21857   0.00000  Uiso   1.00
O355   O     0.89315   0.92199   0.23457   0.00000  Uiso   1.00
H356   H     0.86325   0.92556   0.21435   0.00000  Uiso   1.00
O357   O     0.60800   0.73845   0.11253   0.00000  Uiso   1.00
H358   H     0.64031   0.73981   0.12628   0.00000  Uiso   1.00
O359   O     0.87288   0.75403   0.09175   0.00000  Uiso   1.00
H360   H     0.88669   0.74472   0.05256   0.00000  Uiso   1.00
O361   O     0.62620   0.92056   0.21904   0.00000  Uiso   1.00
H362   H     0.60952   0.95019   0.21051   0.00000  Uiso   1.00
O363   O     0.93955   0.69360   0.09201   0.00000  Uiso   1.00
C364   C     0.93216   0.66916   0.14090   0.00000  Uiso   1.00
H365   H     0.91074   0.96541   0.12247   0.00000  Uiso   1.00
H366   H     0.96418   0.99213   0.16234   0.00000  Uiso   1.00
H367   H     0.91413   0.69430   0.17620   0.00000  Uiso   1.00
O368   O     0.56147   0.95094   0.29025   0.00000  Uiso   1.00
C369   C     0.57410   0.92795   0.00657   0.00000  Uiso   1.00
H370   H     0.59490   0.95779   0.04246   0.00000  Uiso   1.00
H371   H     0.59487   0.89436   0.32587   0.00000  Uiso   1.00
H372   H     0.54425   0.91493   0.02741   0.00000  Uiso   1.00
O373   O     0.53234   0.69171   0.08956   0.00000  Uiso   1.00
H374   H     0.50862   0.99675   0.07146   0.00000  Uiso   1.00
O375   O     0.96934   0.95980   0.27994   0.00000  Uiso   1.00
H376   H     0.99281   0.98917   0.29449   0.00000  Uiso   1.00
O377   O     0.71316   0.98051   0.09488   0.00000  Uiso   1.00
H378   H     0.69931   0.67031   0.07026   0.00000  Uiso   1.00
O379   O     0.78678   0.68616   0.23848   0.00000  Uiso   1.00
H380   H     0.80063   0.99635   0.26311   0.00000  Uiso   1.00
O381   O     0.70775   0.78396   0.30807   0.00000  Uiso   1.00
H382   H     0.69186   0.76542   0.00177   0.00000  Uiso   1.00
O383   O     0.79226   0.88270   0.02527   0.00000  Uiso   1.00
H384   H     0.80816   0.90123   0.33156   0.00000  Uiso   1.00
C385   C     0.24711   0.06673   0.48478   0.00000  Uiso   1.00
C386   C     0.25288   0.26660   0.51521   0.00000  Uiso   1.00
C387   C     0.01384   0.07108   0.44826   0.00000  Uiso   1.00
C388   C     0.48722   0.25060   0.57775   0.00000  Uiso   1.00
C389   C     0.24058   0.01079   0.47787   0.00000  Uiso   1.00
C390   C     0.25938   0.32254   0.52214   0.00000  Uiso   1.00
C391   C     0.16465   0.16572   0.50043   0.00000  Uiso   1.00
C392   C     0.33543   0.16745   0.49963   0.00000  Uiso   1.00
C393   C     0.41136   0.21115   0.53624   0.00000  Uiso   1.00
C394   C     0.08946   0.11683   0.47471   0.00000  Uiso   1.00
C395   C     0.38377   0.16858   0.49924   0.00000  Uiso   1.00
C396   C     0.11649   0.16333   0.50212   0.00000  Uiso   1.00
C397   C     0.40183   0.12505   0.46484   0.00000  Uiso   1.00
C398   C     0.09818   0.20836   0.53236   0.00000  Uiso   1.00
C399   C     0.44843   0.12050   0.47206   0.00000  Uiso   1.00
C400   C     0.05203   0.20672   0.53951   0.00000  Uiso   1.00
C401   C     0.47683   0.16391   0.50668   0.00000  Uiso   1.00
C402   C     0.02374   0.16241   0.50722   0.00000  Uiso   1.00
C403   C     0.45835   0.20904   0.54019   0.00000  Uiso   1.00
C404   C     0.04241   0.11666   0.47569   0.00000  Uiso   1.00
C405   C     0.46699   0.07273   0.44820   0.00000  Uiso   1.00
C406   C     0.03391   0.24763   0.57996   0.00000  Uiso   1.00
Cu407  Cu    0.25501   0.17246   0.56146   0.00000  Uiso   1.00
Cu408  Cu    0.24500   0.16087   0.43854   0.00000  Uiso   1.00
N409   N     0.23745   0.15214   0.34617   0.00000  Uiso   1.00
N410   N     0.26256   0.18119   0.65383   0.00000  Uiso   1.00
O411   O     0.25326   0.09538   0.53992   0.00000  Uiso   1.00
O412   O     0.24675   0.23796   0.46008   0.00000  Uiso   1.00
O413   O     0.24480   0.08559   0.43612   0.00000  Uiso   1.00
O414   O     0.25520   0.24774   0.56388   0.00000  Uiso   1.00
O415   O     0.18936   0.17155   0.55191   0.00000  Uiso   1.00
O416   O     0.31065   0.16179   0.44809   0.00000  Uiso   1.00
O417   O     0.18090   0.16176   0.44810   0.00000  Uiso   1.00
O418   O     0.31910   0.17157   0.55190   0.00000  Uiso   1.00
O419   O     0.39315   0.25532   0.56790   0.00000  Uiso   1.00
H420   H     0.36325   0.25889   0.54768   0.00000  Uiso   1.00
O421   O     0.10800   0.07178   0.44586   0.00000  Uiso   1.00
H422   H     0.14031   0.07314   0.45962   0.00000  Uiso   1.00
O423   O     0.37288   0.08737   0.42508   0.00000  Uiso   1.00
H424   H     0.38669   0.07805   0.38589   0.00000  Uiso   1.00
O425   O     0.12620   0.25389   0.55237   0.00000  Uiso   1.00
H426   H     0.10952   0.28352   0.54385   0.00000  Uiso   1.00
O427   O     0.43955   0.02694   0.42535   0.00000  Uiso   1.00
C428   C     0.43216   0.00249   0.47423   0.00000  Uiso   1.00
H429   H     0.41074   0.29875   0.45580   0.00000  Uiso   1.00
H430   H     0.46418   0.32547   0.49567   0.00000  Uiso   1.00
H431   H     0.41413   0.02763   0.50953   0.00000  Uiso   1.00
O432   O     0.06147   0.28427   0.62359   0.00000  Uiso   1.00
C433   C     0.07410   0.26128   0.33990   0.00000  Uiso   1.00
H434   H     0.09490   0.29113   0.37579   0.00000  Uiso   1.00
H435   H     0.09487   0.22769   0.65920   0.00000  Uiso   1.00
H436   H     0.04425   0.24827   0.36074   0.00000  Uiso   1.00
O437   O     0.03234   0.02505   0.42290   0.00000  Uiso   1.00
H438   H     0.00862   0.33009   0.40479   0.00000  Uiso   1.00
O439   O     0.46934   0.29313   0.61327   0.00000  Uiso   1.00
H440   H     0.49281   0.32250   0.62782   0.00000  Uiso   1.00
O441   O     0.21316   0.31384   0.42821   0.00000  Uiso   1.00
H442   H     0.19931   0.00365   0.40359   0.00000  Uiso   1.00
O443   O     0.28678   0.01949   0.57181   0.00000  Uiso   1.00
H444   H     0.30063   0.32968   0.59644   0.00000  Uiso   1.00
O445   O     0.20775   0.11730   0.64140   0.00000  Uiso   1.00
H446   H     0.19186   0.09876   0.33510   0.00000  Uiso   1.00
O447   O     0.29226   0.21603   0.35860   0.00000  Uiso   1.00
H448   H     0.30816   0.23456   0.66490   0.00000  Uiso   1.00
C449   C     0.74711   0.06673   0.48478   0.00000  Uiso   1.00
C450   C     0.75288   0.26660   0.51521   0.00000  Uiso   1.00
C451   C     0.51384   0.07108   0.44826   0.00000  Uiso   1.00
C452   C     0.98722   0.25060   0.57775   0.00000  Uiso   1.00
C453   C     0.74058   0.01079   0.47787   0.00000  Uiso   1.00
C454   C     0.75938   0.32254   0.52214   0.00000  Uiso   1.00
C455   C     0.66465   0.16572   0.50043   0.00000  Uiso   1.00
C456   C     0.83543   0.16745   0.49963   0.00000  Uiso   1.00
C457   C     0.91136   0.21115   0.53624   0.00000  Uiso   1.00
C458   C     0.58946   0.11683   0.47471   0.00000  Uiso   1.00
C459   C     0.88377   0.16858   0.49924   0.00000  Uiso   1.00
C460   C     0.61649   0.16333   0.50212   0.00000  Uiso   1.00
C461   C     0.90183   0.12505   0.46484   0.00000  Uiso   1.00
C462   C     0.59818   0.20836   0.53236   0.00000  Uiso   1.00
C463   C     0.94843   0.12050   0.47206   0.00000  Uiso   1.00
C464   C     0.55203   0.20672   0.53951   0.00000  Uiso   1.00
C465   C     0.97683   0.16391   0.50668   0.00000  Uiso   1.00
C466   C     0.52374   0.16241   0.50722   0.00000  Uiso   1.00
C467   C     0.95835   0.20904   0.54019   0.00000  Uiso   1.00
C468   C     0.54241   0.11666   0.47569   0.00000  Uiso   1.00
C469   C     0.96699   0.07273   0.44820   0.00000  Uiso   1.00
C470   C     0.53391   0.24763   0.57996   0.00000  Uiso   1.00
Cu471  Cu    0.75501   0.17246   0.56146   0.00000  Uiso   1.00
Cu472  Cu    0.74500   0.16087   0.43854   0.00000  Uiso   1.00
N473   N     0.73745   0.15214   0.34617   0.00000  Uiso   1.00
N474   N     0.76256   0.18119   0.65383   0.00000  Uiso   1.00
O475   O     0.75326   0.09538   0.53992   0.00000  Uiso   1.00
O476   O     0.74675   0.23796   0.46008   0.00000  Uiso   1.00
O477   O     0.74480   0.08559   0.43612   0.00000  Uiso   1.00
O478   O     0.75520   0.24774   0.56388   0.00000  Uiso   1.00
O479   O     0.68936   0.17155   0.55191   0.00000  Uiso   1.00
O480   O     0.81065   0.16179   0.44809   0.00000  Uiso   1.00
O481   O     0.68090   0.16176   0.44810   0.00000  Uiso   1.00
O482   O     0.81910   0.17157   0.55190   0.00000  Uiso   1.00
O483   O     0.89315   0.25532   0.56790   0.00000  Uiso   1.00
H484   H     0.86325   0.25889   0.54768   0.00000  Uiso   1.00
O485   O     0.60800   0.07178   0.44586   0.00000  Uiso   1.00
H486   H     0.64031   0.07314   0.45962   0.00000  Uiso   1.00
O487   O     0.87288   0.08737   0.42508   0.00000  Uiso   1.00
H488   H     0.88669   0.07805   0.38589   0.00000  Uiso   1.00
O489   O     0.62620   0.25389   0.55237   0.00000  Uiso   1.00
H490   H     0.60952   0.28352   0.54385   0.00000  Uiso   1.00
O491   O     0.93955   0.02694   0.42535   0.00000  Uiso   1.00
C492   C     0.93216   0.00249   0.47423   0.00000  Uiso   1.00
H493   H     0.91074   0.29875   0.45580   0.00000  Uiso   1.00
H494   H     0.96418   0.32547   0.49567   0.00000  Uiso   1.00
H495   H     0.91413   0.02763   0.50953   0.00000  Uiso   1.00
O496   O     0.56147   0.28427   0.62359   0.00000  Uiso   1.00
C497   C     0.57410   0.26128   0.33990   0.00000  Uiso   1.00
H498   H     0.59490   0.29113   0.37579   0.00000  Uiso   1.00
H499   H     0.59487   0.22769   0.65920   0.00000  Uiso   1.00
H500   H     0.54425   0.24827   0.36074   0.00000  Uiso   1.00
O501   O     0.53234   0.02505   0.42290   0.00000  Uiso   1.00
H502   H     0.50862   0.33009   0.40479   0.00000  Uiso   1.00
O503   O     0.96934   0.29313   0.61327   0.00000  Uiso   1.00
H504   H     0.99281   0.32250   0.62782   0.00000  Uiso   1.00
O505   O     0.71316   0.31384   0.42821   0.00000  Uiso   1.00
H506   H     0.69931   0.00365   0.40359   0.00000  Uiso   1.00
O507   O     0.78678   0.01949   0.57181   0.00000  Uiso   1.00
H508   H     0.80063   0.32968   0.59644   0.00000  Uiso   1.00
O509   O     0.70775   0.11730   0.64140   0.00000  Uiso   1.00
H510   H     0.69186   0.09876   0.33510   0.00000  Uiso   1.00
O511   O     0.79226   0.21603   0.35860   0.00000  Uiso   1.00
H512   H     0.80816   0.23456   0.66490   0.00000  Uiso   1.00
C513   C     0.24711   0.40007   0.48478   0.00000  Uiso   1.00
C514   C     0.25288   0.59993   0.51521   0.00000  Uiso   1.00
C515   C     0.01384   0.40441   0.44826   0.00000  Uiso   1.00
C516   C     0.48722   0.58393   0.57775   0.00000  Uiso   1.00
C517   C     0.24058   0.34412   0.47787   0.00000  Uiso   1.00
C518   C     0.25938   0.65588   0.52214   0.00000  Uiso   1.00
C519   C     0.16465   0.49905   0.50043   0.00000  Uiso   1.00
C520   C     0.33543   0.50078   0.49963   0.00000  Uiso   1.00
C521   C     0.41136   0.54448   0.53624   0.00000  Uiso   1.00
C522   C     0.08946   0.45016   0.47471   0.00000  Uiso   1.00
C523   C     0.38377   0.50191   0.49924   0.00000  Uiso   1.00
C524   C     0.11649   0.49666   0.50212   0.00000  Uiso   1.00
C525   C     0.40183   0.45838   0.46484   0.00000  Uiso   1.00
C526   C     0.09818   0.54169   0.53236   0.00000  Uiso   1.00
C527   C     0.44843   0.45384   0.47206   0.00000  Uiso   1.00
C528   C     0.05203   0.54006   0.53951   0.00000  Uiso   1.00
C529   C     0.47683   0.49725   0.50668   0.00000  Uiso   1.00
C530   C     0.02374   0.49574   0.50722   0.00000  Uiso   1.00
C531   C     0.45835   0.54237   0.54019   0.00000  Uiso   1.00
C532   C     0.04241   0.45000   0.47569   0.00000  Uiso   1.00
C533   C     0.46699   0.40606   0.44820   0.00000  Uiso   1.00
C534   C     0.03391   0.58097   0.57996   0.00000  Uiso   1.00
Cu535  Cu    0.25501   0.50579   0.56146   0.00000  Uiso   1.00
Cu536  Cu    0.24500   0.49421   0.43854   0.00000  Uiso   1.00
N537   N     0.23745   0.48547   0.34617   0.00000  Uiso   1.00
N538   N     0.26256   0.51453   0.65383   0.00000  Uiso   1.00
O539   O     0.25326   0.42871   0.53992   0.00000  Uiso   1.00
O540   O     0.24675   0.57129   0.46008   0.00000  Uiso   1.00
O541   O     0.24480   0.41892   0.43612   0.00000  Uiso   1.00
O542   O     0.25520   0.58108   0.56388   0.00000  Uiso   1.00
O543   O     0.18936   0.50488   0.55191   0.00000  Uiso   1.00
O544   O     0.31065   0.49512   0.44809   0.00000  Uiso   1.00
O545   O     0.18090   0.49510   0.44810   0.00000  Uiso   1.00
O546   O     0.31910   0.50490   0.55190   0.00000  Uiso   1.00
O547   O     0.39315   0.58866   0.56790   0.00000  Uiso   1.00
H548   H     0.36325   0.59222   0.54768   0.00000  Uiso   1.00
O549   O     0.10800   0.40512   0.44586   0.00000  Uiso   1.00
H550   H     0.14031   0.40648   0.45962   0.00000  Uiso   1.00
O551   O     0.37288   0.42070   0.42508   0.00000  Uiso   1.00
H552   H     0.38669   0.41139   0.38589   0.00000  Uiso   1.00
O553   O     0.12620   0.58723   0.55237   0.00000  Uiso   1.00
H554   H     0.10952   0.61685   0.54385   0.00000  Uiso   1.00
O555   O     0.43955   0.36027   0.42535   0.00000  Uiso   1.00
C556   C     0.43216   0.33582   0.47423   0.00000  Uiso   1.00
H557   H     0.41074   0.63208   0.45580   0.00000  Uiso   1.00
H558   H     0.46418   0.65880   0.49567   0.00000  Uiso   1.00
H559   H     0.41413   0.36097   0.50953   0.00000  Uiso   1.00
O560   O     0.06147   0.61760   0.62359   0.00000  Uiso   1.00
C561   C     0.07410   0.59461   0.33990   0.00000  Uiso   1.00
H562   H     0.09490   0.62446   0.37579   0.00000  Uiso   1.00
H563   H     0.09487   0.56103   0.65920   0.00000  Uiso   1.00
H564   H     0.04425   0.58160   0.36074   0.00000  Uiso   1.00
O565   O     0.03234   0.35838   0.42290   0.00000  Uiso   1.00
H566   H     0.00862   0.66342   0.40479   0.00000  Uiso   1.00
O567   O     0.46934   0.62647   0.61327   0.00000  Uiso   1.00
H568   H     0.49281   0.65583   0.62782   0.00000  Uiso   1.00
O569   O     0.21316   0.64717   0.42821   0.00000  Uiso   1.00
H570   H     0.19931   0.33698   0.40359   0.00000  Uiso   1.00
O571   O     0.28678   0.35283   0.57181   0.00000  Uiso   1.00
H572   H     0.30063   0.66302   0.59644   0.00000  Uiso   1.00
O573   O     0.20775   0.45063   0.64140   0.00000  Uiso   1.00
H574   H     0.19186   0.43209   0.33510   0.00000  Uiso   1.00
O575   O     0.29226   0.54937   0.35860   0.00000  Uiso   1.00
H576   H     0.30816   0.56789   0.66490   0.00000  Uiso   1.00
C577   C     0.74711   0.40007   0.48478   0.00000  Uiso   1.00
C578   C     0.75288   0.59993   0.51521   0.00000  Uiso   1.00
C579   C     0.51384   0.40441   0.44826   0.00000  Uiso   1.00
C580   C     0.98722   0.58393   0.57775   0.00000  Uiso   1.00
C581   C     0.74058   0.34412   0.47787   0.00000  Uiso   1.00
C582   C     0.75938   0.65588   0.52214   0.00000  Uiso   1.00
C583   C     0.66465   0.49905   0.50043   0.00000  Uiso   1.00
C584   C     0.83543   0.50078   0.49963   0.00000  Uiso   1.00
C585   C     0.91136   0.54448   0.53624   0.00000  Uiso   1.00
C586   C     0.58946   0.45016   0.47471   0.00000  Uiso   1.00
C587   C     0.88377   0.50191   0.49924   0.00000  Uiso   1.00
C588   C     0.61649   0.49666   0.50212   0.00000  Uiso   1.00
C589   C     0.90183   0.45838   0.46484   0.00000  Uiso   1.00
C590   C     0.59818   0.54169   0.53236   0.00000  Uiso   1.00
C591   C     0.94843   0.45384   0.47206   0.00000  Uiso   1.00
C592   C     0.55203   0.54006   0.53951   0.00000  Uiso   1.00
C593   C     0.97683   0.49725   0.50668   0.00000  Uiso   1.00
C594   C     0.52374   0.49574   0.50722   0.00000  Uiso   1.00
C595   C     0.95835   0.54237   0.54019   0.00000  Uiso   1.00
C596   C     0.54241   0.45000   0.47569   0.00000  Uiso   1.00
C597   C     0.96699   0.40606   0.44820   0.00000  Uiso   1.00
C598   C     0.53391   0.58097   0.57996   0.00000  Uiso   1.00
Cu599  Cu    0.75501   0.50579   0.56146   0.00000  Uiso   1.00
Cu600  Cu    0.74500   0.49421   0.43854   0.00000  Uiso   1.00
N601   N     0.73745   0.48547   0.34617   0.00000  Uiso   1.00
N602   N     0.76256   0.51453   0.65383   0.00000  Uiso   1.00
O603   O     0.75326   0.42871   0.53992   0.00000  Uiso   1.00
O604   O     0.74675   0.57129   0.46008   0.00000  Uiso   1.00
O605   O     0.74480   0.41892   0.43612   0.00000  Uiso   1.00
O606   O     0.75520   0.58108   0.56388   0.00000  Uiso   1.00
O607   O     0.68936   0.50488   0.55191   0.00000  Uiso   1.00
O608   O     0.81065   0.49512   0.44809   0.00000  Uiso   1.00
O609   O     0.68090   0.49510   0.44810   0.00000  Uiso   1.00
O610   O     0.81910   0.50490   0.55190   0.00000  Uiso   1.00
O611   O     0.89315   0.58866   0.56790   0.00000  Uiso   1.00
H612   H     0.86325   0.59222   0.54768   0.00000  Uiso   1.00
O613   O     0.60800   0.40512   0.44586   0.00000  Uiso   1.00
H614   H     0.64031   0.40648   0.45962   0.00000  Uiso   1.00
O615   O     0.87288   0.42070   0.42508   0.00000  Uiso   1.00
H616   H     0.88669   0.41139   0.38589   0.00000  Uiso   1.00
O617   O     0.62620   0.58723   0.55237   0.00000  Uiso   1.00
H618   H     0.60952   0.61685   0.54385   0.00000  Uiso   1.00
O619   O     0.93955   0.36027   0.42535   0.00000  Uiso   1.00
C620   C     0.93216   0.33582   0.47423   0.00000  Uiso   1.00
H621   H     0.91074   0.63208   0.45580   0.00000  Uiso   1.00
H622   H     0.96418   0.65880   0.49567   0.00000  Uiso   1.00
H623   H     0.91413   0.36097   0.50953   0.00000  Uiso   1.00
O624   O     0.56147   0.61760   0.62359   0.00000  Uiso   1.00
C625   C     0.57410   0.59461   0.33990   0.00000  Uiso   1.00
H626   H     0.59490   0.62446   0.37579   0.00000  Uiso   1.00
H627   H     0.59487   0.56103   0.65920   0.00000  Uiso   1.00
H628   H     0.54425   0.58160   0.36074   0.00000  Uiso   1.00
O629   O     0.53234   0.35838   0.42290   0.00000  Uiso   1.00
H630   H     0.50862   0.66342   0.40479   0.00000  Uiso   1.00
O631   O     0.96934   0.62647   0.61327   0.00000  Uiso   1.00
H632   H     0.99281   0.65583   0.62782   0.00000  Uiso   1.00
O633   O     0.71316   0.64717   0.42821   0.00000  Uiso   1.00
H634   H     0.69931   0.33698   0.40359   0.00000  Uiso   1.00
O635   O     0.78678   0.35283   0.57181   0.00000  Uiso   1.00
H636   H     0.80063   0.66302   0.59644   0.00000  Uiso   1.00
O637   O     0.70775   0.45063   0.64140   0.00000  Uiso   1.00
H638   H     0.69186   0.43209   0.33510   0.00000  Uiso   1.00
O639   O     0.79226   0.54937   0.35860   0.00000  Uiso   1.00
H640   H     0.80816   0.56789   0.66490   0.00000  Uiso   1.00
C641   C     0.24711   0.73340   0.48478   0.00000  Uiso   1.00
C642   C     0.25288   0.93326   0.51521   0.00000  Uiso   1.00
C643   C     0.01384   0.73774   0.44826   0.00000  Uiso   1.00
C644   C     0.48722   0.91726   0.57775   0.00000  Uiso   1.00
C645   C     0.24058   0.67745   0.47787   0.00000  Uiso   1.00
C646   C     0.25938   0.98921   0.52214   0.00000  Uiso   1.00
C647   C     0.16465   0.83238   0.50043   0.00000  Uiso   1.00
C648   C     0.33543   0.83411   0.49963   0.00000  Uiso   1.00
C649   C     0.41136   0.87782   0.53624   0.00000  Uiso   1.00
C650   C     0.08946   0.78349   0.47471   0.00000  Uiso   1.00
C651   C     0.38377   0.83525   0.49924   0.00000  Uiso   1.00
C652   C     0.11649   0.83000   0.50212   0.00000  Uiso   1.00
C653   C     0.40183   0.79171   0.46484   0.00000  Uiso   1.00
C654   C     0.09818   0.87502   0.53236   0.00000  Uiso   1.00
C655   C     0.44843   0.78717   0.47206   0.00000  Uiso   1.00
C656   C     0.05203   0.87339   0.53951   0.00000  Uiso   1.00
C657   C     0.47683   0.83058   0.50668   0.00000  Uiso   1.00
C658   C     0.02374   0.82907   0.50722   0.00000  Uiso   1.00
C659   C     0.45835   0.87570   0.54019   0.00000  Uiso   1.00
C660   C     0.04241   0.78333   0.47569   0.00000  Uiso   1.00
C661   C     0.46699   0.73939   0.44820   0.00000  Uiso   1.00
C662   C     0.03391   0.91430   0.57996   0.00000  Uiso   1.00
Cu663  Cu    0.25501   0.83913   0.56146   0.00000  Uiso   1.00
Cu664  Cu    0.24500   0.82754   0.43854   0.00000  Uiso   1.00
N665   N     0.23745   0.81881   0.34617   0.00000  Uiso   1.00
N666   N     0.26256   0.84786   0.65383   0.00000  Uiso   1.00
O667   O     0.25326   0.76204   0.53992   0.00000  Uiso   1.00
O668   O     0.24675   0.90462   0.46008   0.00000  Uiso   1.00
O669   O     0.24480   0.75226   0.43612   0.00000  Uiso   1.00
O670   O     0.25520   0.91441   0.56388   0.00000  Uiso   1.00
O671   O     0.18936   0.83821   0.55191   0.00000  Uiso   1.00
O672   O     0.31065   0.82845   0.44809   0.00000  Uiso   1.00
O673   O     0.18090   0.82843   0.44810   0.00000  Uiso   1.00
O674   O     0.31910   0.83824   0.55190   0.00000  Uiso   1.00
O675   O     0.39315   0.92199   0.56790   0.00000  Uiso   1.00
H676   H     0.36325   0.92556   0.54768   0.00000  Uiso   1.00
O677   O     0.10800   0.73845   0.44586   0.00000  Uiso   1.00
H678   H     0.14031   0.73981   0.45962   0.00000  Uiso   1.00
O679   O     0.37288   0.75403   0.42508   0.00000  Uiso   1.00
H680   H     0.38669   0.74472   0.38589   0.00000  Uiso   1.00
O681   O     0.12620   0.92056   0.55237   0.00000  Uiso   1.00
H682   H     0.10952   0.95019   0.54385   0.00000  Uiso   1.00
O683   O     0.43955   0.69360   0.42535   0.00000  Uiso   1.00
C684   C     0.43216   0.66916   0.47423   0.00000  Uiso   1.00
H685   H     0.41074   0.96541   0.45580   0.00000  Uiso   1.00
H686   H     0.46418   0.99213   0.49567   0.00000  Uiso   1.00
H687   H     0.41413   0.69430   0.50953   0.00000  Uiso   1.00
O688   O     0.06147   0.95094   0.62359   0.00000  Uiso   1.00
C689   C     0.07410   0.92795   0.33990   0.00000  Uiso   1.00
H690   H     0.09490   0.95779   0.37579   0.00000  Uiso   1.00
H691   H     0.09487   0.89436   0.65920   0.00000  Uiso   1.00
H692   H     0.04425   0.91493   0.36074   0.00000  Uiso   1.00
O693   O     0.03234   0.69171   0.42290   0.00000  Uiso   1.00
H694   H     0.00862   0.99675   0.40479   0.00000  Uiso   1.00
O695   O     0.46934   0.95980   0.61327   0.00000  Uiso   1.00
H696   H     0.49281   0.98917   0.62782   0.00000  Uiso   1.00
O697   O     0.21316   0.98051   0.42821   0.00000  Uiso   1.00
H698   H     0.19931   0.67031   0.40359   0.00000  Uiso   1.00
O699   O     0.28678   0.68616   0.57181   0.00000  Uiso   1.00
H700   H     0.30063   0.99635   0.59644   0.00000  Uiso   1.00
O701   O     0.20775   0.78396   0.64140   0.00000  Uiso   1.00
H702   H     0.19186   0.76542   0.33510   0.00000  Uiso   1.00
O703   O     0.29226   0.88270   0.35860   0.00000  Uiso   1.00
H704   H     0.30816   0.90123   0.66490   0.00000  Uiso   1.00
C705   C     0.74711   0.73340   0.48478   0.00000  Uiso   1.00
C706   C     0.75288   0.93326   0.51521   0.00000  Uiso   1.00
C707   C     0.51384   0.73774   0.44826   0.00000  Uiso   1.00
C708   C     0.98722   0.91726   0.57775   0.00000  Uiso   1.00
C709   C     0.74058   0.67745   0.47787   0.00000  Uiso   1.00
C710   C     0.75938   0.98921   0.52214   0.00000  Uiso   1.00
C711   C     0.66465   0.83238   0.50043   0.00000  Uiso   1.00
C712   C     0.83543   0.83411   0.49963   0.00000  Uiso   1.00
C713   C     0.91136   0.87782   0.53624   0.00000  Uiso   1.00
C714   C     0.58946   0.78349   0.47471   0.00000  Uiso   1.00
C715   C     0.88377   0.83525   0.49924   0.00000  Uiso   1.00
C716   C     0.61649   0.83000   0.50212   0.00000  Uiso   1.00
C717   C     0.90183   0.79171   0.46484   0.00000  Uiso   1.00
C718   C     0.59818   0.87502   0.53236   0.00000  Uiso   1.00
C719   C     0.94843   0.78717   0.47206   0.00000  Uiso   1.00
C720   C     0.55203   0.87339   0.53951   0.00000  Uiso   1.00
C721   C     0.97683   0.83058   0.50668   0.00000  Uiso   1.00
C722   C     0.52374   0.82907   0.50722   0.00000  Uiso   1.00
C723   C     0.95835   0.87570   0.54019   0.00000  Uiso   1.00
C724   C     0.54241   0.78333   0.47569   0.00000  Uiso   1.00
C725   C     0.96699   0.73939   0.44820   0.00000  Uiso   1.00
C726   C     0.53391   0.91430   0.57996   0.00000  Uiso   1.00
Cu727  Cu    0.75501   0.83913   0.56146   0.00000  Uiso   1.00
Cu728  Cu    0.74500   0.82754   0.43854   0.00000  Uiso   1.00
N729   N     0.73745   0.81881   0.34617   0.00000  Uiso   1.00
N730   N     0.76256   0.84786   0.65383   0.00000  Uiso   1.00
O731   O     0.75326   0.76204   0.53992   0.00000  Uiso   1.00
O732   O     0.74675   0.90462   0.46008   0.00000  Uiso   1.00
O733   O     0.74480   0.75226   0.43612   0.00000  Uiso   1.00
O734   O     0.75520   0.91441   0.56388   0.00000  Uiso   1.00
O735   O     0.68936   0.83821   0.55191   0.00000  Uiso   1.00
O736   O     0.81065   0.82845   0.44809   0.00000  Uiso   1.00
O737   O     0.68090   0.82843   0.44810   0.00000  Uiso   1.00
O738   O     0.81910   0.83824   0.55190   0.00000  Uiso   1.00
O739   O     0.89315   0.92199   0.56790   0.00000  Uiso   1.00
H740   H     0.86325   0.92556   0.54768   0.00000  Uiso   1.00
O741   O     0.60800   0.73845   0.44586   0.00000  Uiso   1.00
H742   H     0.64031   0.73981   0.45962   0.00000  Uiso   1.00
O743   O     0.87288   0.75403   0.42508   0.00000  Uiso   1.00
H744   H     0.88669   0.74472   0.38589   0.00000  Uiso   1.00
O745   O     0.62620   0.92056   0.55237   0.00000  Uiso   1.00
H746   H     0.60952   0.95019   0.54385   0.00000  Uiso   1.00
O747   O     0.93955   0.69360   0.42535   0.00000  Uiso   1.00
C748   C     0.93216   0.66916   0.47423   0.00000  Uiso   1.00
H749   H     0.91074   0.96541   0.45580   0.00000  Uiso   1.00
H750   H     0.96418   0.99213   0.49567   0.00000  Uiso   1.00
H751   H     0.91413   0.69430   0.50953   0.00000  Uiso   1.00
O752   O     0.56147   0.95094   0.62359   0.00000  Uiso   1.00
C753   C     0.57410   0.92795   0.33990   0.00000  Uiso   1.00
H754   H     0.59490   0.95779   0.37579   0.00000  Uiso   1.00
H755   H     0.59487   0.89436   0.65920   0.00000  Uiso   1.00
H756   H     0.54425   0.91493   0.36074   0.00000  Uiso   1.00
O757   O     0.53234   0.69171   0.42290   0.00000  Uiso   1.00
H758   H     0.50862   0.99675   0.40479   0.00000  Uiso   1.00
O759   O     0.96934   0.95980   0.61327   0.00000  Uiso   1.00
H760   H     0.99281   0.98917   0.62782   0.00000  Uiso   1.00
O761   O     0.71316   0.98051   0.42821   0.00000  Uiso   1.00
H762   H     0.69931   0.67031   0.40359   0.00000  Uiso   1.00
O763   O     0.78678   0.68616   0.57181   0.00000  Uiso   1.00
H764   H     0.80063   0.99635   0.59644   0.00000  Uiso   1.00
O765   O     0.70775   0.78396   0.64140   0.00000  Uiso   1.00
H766   H     0.69186   0.76542   0.33510   0.00000  Uiso   1.00
O767   O     0.79226   0.88270   0.35860   0.00000  Uiso   1.00
H768   H     0.80816   0.90123   0.66490   0.00000  Uiso   1.00
C769   C     0.24711   0.06673   0.81812   0.00000  Uiso   1.00
C770   C     0.25288   0.26660   0.84855   0.00000  Uiso   1.00
C771   C     0.01384   0.07108   0.78159   0.00000  Uiso   1.00
C772   C     0.48722   0.25060   0.91109   0.00000  Uiso   1.00
C773   C     0.24058   0.01079   0.81120   0.00000  Uiso   1.00
C774   C     0.25938   0.32254   0.85547   0.00000  Uiso   1.00
C775   C     0.16465   0.16572   0.83376   0.00000  Uiso   1.00
C776   C     0.33543   0.16745   0.83297   0.00000  Uiso   1.00
C777   C     0.41136   0.21115   0.86957   0.00000  Uiso   1.00
C778   C     0.08946   0.11683   0.80804   0.00000  Uiso   1.00
C779   C     0.38377   0.16858   0.83257   0.00000  Uiso   1.00
C780   C     0.11649   0.16333   0.83546   0.00000  Uiso   1.00
C781   C     0.40183   0.12505   0.79817   0.00000  Uiso   1.00
C782   C     0.09818   0.20836   0.86569   0.00000  Uiso   1.00
C783   C     0.44843   0.12050   0.80539   0.00000  Uiso   1.00
C784   C     0.05203   0.20672   0.87285   0.00000  Uiso   1.00
C785   C     0.47683   0.16391   0.84002   0.00000  Uiso   1.00
C786   C     0.02374   0.16241   0.84055   0.00000  Uiso   1.00
C787   C     0.45835   0.20904   0.87353   0.00000  Uiso   1.00
C788   C     0.04241   0.11666   0.80902   0.00000  Uiso   1.00
C789   C     0.46699   0.07273   0.78154   0.00000  Uiso   1.00
C790   C     0.03391   0.24763   0.91329   0.00000  Uiso   1.00
Cu791  Cu    0.25501   0.17246   0.89479   0.00000  Uiso   1.00
Cu792  Cu    0.24500   0.16087   0.77187   0.00000  Uiso   1.00
N793   N     0.23745   0.15214   0.67951   0.00000  Uiso   1.00
N794   N     0.26256   0.18119   0.98716   0.00000  Uiso   1.00
O795   O     0.25326   0.09538   0.87326   0.00000  Uiso   1.00
O796   O     0.24675   0.23796   0.79341   0.00000  Uiso   1.00
O797   O     0.24480   0.08559   0.76945   0.00000  Uiso   1.00
O798   O     0.25520   0.24774   0.89721   0.00000  Uiso   1.00
O799   O     0.18936   0.17155   0.88524   0.00000  Uiso   1.00
O800   O     0.31065   0.16179   0.78143   0.00000  Uiso   1.00
O801   O     0.18090   0.16176   0.78143   0.00000  Uiso   1.00
O802   O     0.31910   0.17157   0.88523   0.00000  Uiso   1.00
O803   O     0.39315   0.25532   0.90123   0.00000  Uiso   1.00
H804   H     0.36325   0.25889   0.88101   0.00000  Uiso   1.00
O805   O     0.10800   0.07178   0.77920   0.00000  Uiso   1.00
H806   H     0.14031   0.07314   0.79295   0.00000  Uiso   1.00
O807   O     0.37288   0.08737   0.75841   0.00000  Uiso   1.00
H808   H     0.38669   0.07805   0.71923   0.00000  Uiso   1.00
O809   O     0.12620   0.25389   0.88571   0.00000  Uiso   1.00
H810   H     0.10952   0.28352   0.87718   0.00000  Uiso   1.00
O811   O     0.43955   0.02694   0.75868   0.00000  Uiso   1.00
C812   C     0.43216   0.00249   0.80756   0.00000  Uiso   1.00
H813   H     0.41074   0.29875   0.78913   0.00000  Uiso   1.00
H814   H     0.46418   0.32547   0.82900   0.00000  Uiso   1.00
H815   H     0.41413   0.02763   0.84287   0.00000  Uiso   1.00
O816   O     0.06147   0.28427   0.95692   0.00000  Uiso   1.00
C817   C     0.07410   0.26128   0.67324   0.00000  Uiso   1.00
H818   H     0.09490   0.29113   0.70912   0.00000  Uiso   1.00
H819   H     0.09487   0.22769   0.99253   0.00000  Uiso   1.00
H820   H     0.04425   0.24827   0.69408   0.00000  Uiso   1.00
O821   O     0.03234   0.02505   0.75623   0.00000  Uiso   1.00
H822   H     0.00862   0.33009   0.73813   0.00000  Uiso   1.00
O823   O     0.46934   0.29313   0.94660   0.00000  Uiso   1.00
H824   H     0.49281   0.32250   0.96116   0.00000  Uiso   1.00
O825   O     0.21316   0.31384   0.76155   0.00000  Uiso   1.00
H826   H     0.19931   0.00365   0.73692   0.00000  Uiso   1.00
O827   O     0.28678   0.01949   0.90515   0.00000  Uiso   1.00
H828   H     0.30063   0.32968   0.92977   0.00000  Uiso   1.00
O829   O     0.20775   0.11730   0.97473   0.00000  Uiso   1.00
H830   H     0.19186   0.09876   0.66844   0.00000  Uiso   1.00
O831   O     0.29226   0.21603   0.69193   0.00000  Uiso   1.00
H832   H     0.30816   0.23456   0.99823   0.00000  Uiso   1.00
C833   C     0.74711   0.06673   0.81812   0.00000  Uiso   1.00
C834   C     0.75288   0.26660   0.84855   0.00000  Uiso   1.00
C835   C     0.51384   0.07108   0.78159   0.00000  Uiso   1.00
C836   C     0.98722   0.25060   0.91109   0.00000  Uiso   1.00
C837   C     0.74058   0.01079   0.81120   0.00000  Uiso   1.00
C838   C     0.75938   0.32254   0.85547   0.00000  Uiso   1.00
C839   C     0.66465   0.16572   0.83376   0.00000  Uiso   1.00
C840   C     0.83543   0.16745   0.83297   0.00000  Uiso   1.00
C841   C     0.91136   0.21115   0.86957   0.00000  Uiso   1.00
C842   C     0.58946   0.11683   0.80804   0.00000  Uiso   1.00
C843   C     0.88377   0.16858   0.83257   0.00000  Uiso   1.00
C844   C     0.61649   0.16333   0.83546   0.00000  Uiso   1.00
C845   C     0.90183   0.12505   0.79817   0.00000  Uiso   1.00
C846   C     0.59818   0.20836   0.86569   0.00000  Uiso   1.00
C847   C     0.94843   0.12050   0.80539   0.00000  Uiso   1.00
C848   C     0.55203   0.20672   0.87285   0.00000  Uiso   1.00
C849   C     0.97683   0.16391   0.84002   0.00000  Uiso   1.00
C850   C     0.52374   0.16241   0.84055   0.00000  Uiso   1.00
C851   C     0.95835   0.20904   0.87353   0.00000  Uiso   1.00
C852   C     0.54241   0.11666   0.80902   0.00000  Uiso   1.00
C853   C     0.96699   0.07273   0.78154   0.00000  Uiso   1.00
C854   C     0.53391   0.24763   0.91329   0.00000  Uiso   1.00
Cu855  Cu    0.75501   0.17246   0.89479   0.00000  Uiso   1.00
Cu856  Cu    0.74500   0.16087   0.77187   0.00000  Uiso   1.00
N857   N     0.73745   0.15214   0.67951   0.00000  Uiso   1.00
N858   N     0.76256   0.18119   0.98716   0.00000  Uiso   1.00
O859   O     0.75326   0.09538   0.87326   0.00000  Uiso   1.00
O860   O     0.74675   0.23796   0.79341   0.00000  Uiso   1.00
O861   O     0.74480   0.08559   0.76945   0.00000  Uiso   1.00
O862   O     0.75520   0.24774   0.89721   0.00000  Uiso   1.00
O863   O     0.68936   0.17155   0.88524   0.00000  Uiso   1.00
O864   O     0.81065   0.16179   0.78143   0.00000  Uiso   1.00
O865   O     0.68090   0.16176   0.78143   0.00000  Uiso   1.00
O866   O     0.81910   0.17157   0.88523   0.00000  Uiso   1.00
O867   O     0.89315   0.25532   0.90123   0.00000  Uiso   1.00
H868   H     0.86325   0.25889   0.88101   0.00000  Uiso   1.00
O869   O     0.60800   0.07178   0.77920   0.00000  Uiso   1.00
H870   H     0.64031   0.07314   0.79295   0.00000  Uiso   1.00
O871   O     0.87288   0.08737   0.75841   0.00000  Uiso   1.00
H872   H     0.88669   0.07805   0.71923   0.00000  Uiso   1.00
O873   O     0.62620   0.25389   0.88571   0.00000  Uiso   1.00
H874   H     0.60952   0.28352   0.87718   0.00000  Uiso   1.00
O875   O     0.93955   0.02694   0.75868   0.00000  Uiso   1.00
C876   C     0.93216   0.00249   0.80756   0.00000  Uiso   1.00
H877   H     0.91074   0.29875   0.78913   0.00000  Uiso   1.00
H878   H     0.96418   0.32547   0.82900   0.00000  Uiso   1.00
H879   H     0.91413   0.02763   0.84287   0.00000  Uiso   1.00
O880   O     0.56147   0.28427   0.95692   0.00000  Uiso   1.00
C881   C     0.57410   0.26128   0.67324   0.00000  Uiso   1.00
H882   H     0.59490   0.29113   0.70912   0.00000  Uiso   1.00
H883   H     0.59487   0.22769   0.99253   0.00000  Uiso   1.00
H884   H     0.54425   0.24827   0.69408   0.00000  Uiso   1.00
O885   O     0.53234   0.02505   0.75623   0.00000  Uiso   1.00
H886   H     0.50862   0.33009   0.73813   0.00000  Uiso   1.00
O887   O     0.96934   0.29313   0.94660   0.00000  Uiso   1.00
H888   H     0.99281   0.32250   0.96116   0.00000  Uiso   1.00
O889   O     0.71316   0.31384   0.76155   0.00000  Uiso   1.00
H890   H     0.69931   0.00365   0.73692   0.00000  Uiso   1.00
O891   O     0.78678   0.01949   0.90515   0.00000  Uiso   1.00
H892   H     0.80063   0.32968   0.92977   0.00000  Uiso   1.00
O893   O     0.70775   0.11730   0.97473   0.00000  Uiso   1.00
H894   H     0.69186   0.09876   0.66844   0.00000  Uiso   1.00
O895   O     0.79226   0.21603   0.69193   0.00000  Uiso   1.00
H896   H     0.80816   0.23456   0.99823   0.00000  Uiso   1.00
C897   C     0.24711   0.40007   0.81812   0.00000  Uiso   1.00
C898   C     0.25288   0.59993   0.84855   0.00000  Uiso   1.00
C899   C     0.01384   0.40441   0.78159   0.00000  Uiso   1.00
C900   C     0.48722   0.58393   0.91109   0.00000  Uiso   1.00
C901   C     0.24058   0.34412   0.81120   0.00000  Uiso   1.00
C902   C     0.25938   0.65588   0.85547   0.00000  Uiso   1.00
C903   C     0.16465   0.49905   0.83376   0.00000  Uiso   1.00
C904   C     0.33543   0.50078   0.83297   0.00000  Uiso   1.00
C905   C     0.41136   0.54448   0.86957   0.00000  Uiso   1.00
C906   C     0.08946   0.45016   0.80804   0.00000  Uiso   1.00
C907   C     0.38377   0.50191   0.83257   0.00000  Uiso   1.00
C908   C     0.11649   0.49666   0.83546   0.00000  Uiso   1.00
C909   C     0.40183   0.45838   0.79817   0.00000  Uiso   1.00
C910   C     0.09818   0.54169   0.86569   0.00000  Uiso   1.00
C911   C     0.44843   0.45384   0.80539   0.00000  Uiso   1.00
C912   C     0.05203   0.54006   0.87285   0.00000  Uiso   1.00
C913   C     0.47683   0.49725   0.84002   0.00000  Uiso   1.00
C914   C     0.02374   0.49574   0.84055   0.00000  Uiso   1.00
C915   C     0.45835   0.54237   0.87353   0.00000  Uiso   1.00
C916   C     0.04241   0.45000   0.80902   0.00000  Uiso   1.00
C917   C     0.46699   0.40606   0.78154   0.00000  Uiso   1.00
C918   C     0.03391   0.58097   0.91329   0.00000  Uiso   1.00
Cu919  Cu    0.25501   0.50579   0.89479   0.00000  Uiso   1.00
Cu920  Cu    0.24500   0.49421   0.77187   0.00000  Uiso   1.00
N921   N     0.23745   0.48547   0.67951   0.00000  Uiso   1.00
N922   N     0.26256   0.51453   0.98716   0.00000  Uiso   1.00
O923   O     0.25326   0.42871   0.87326   0.00000  Uiso   1.00
O924   O     0.24675   0.57129   0.79341   0.00000  Uiso   1.00
O925   O     0.24480   0.41892   0.76945   0.00000  Uiso   1.00
O926   O     0.25520   0.58108   0.89721   0.00000  Uiso   1.00
O927   O     0.18936   0.50488   0.88524   0.00000  Uiso   1.00
O928   O     0.31065   0.49512   0.78143   0.00000  Uiso   1.00
O929   O     0.18090   0.49510   0.78143   0.00000  Uiso   1.00
O930   O     0.31910   0.50490   0.88523   0.00000  Uiso   1.00
O931   O     0.39315   0.58866   0.90123   0.00000  Uiso   1.00
H932   H     0.36325   0.59222   0.88101   0.00000  Uiso   1.00
O933   O     0.10800   0.40512   0.77920   0.00000  Uiso   1.00
H934   H     0.14031   0.40648   0.79295   0.00000  Uiso   1.00
O935   O     0.37288   0.42070   0.75841   0.00000  Uiso   1.00
H936   H     0.38669   0.41139   0.71923   0.00000  Uiso   1.00
O937   O     0.12620   0.58723   0.88571   0.00000  Uiso   1.00
H938   H     0.10952   0.61685   0.87718   0.00000  Uiso   1.00
O939   O     0.43955   0.36027   0.75868   0.00000  Uiso   1.00
C940   C     0.43216   0.33582   0.80756   0.00000  Uiso   1.00
H941   H     0.41074   0.63208   0.78913   0.00000  Uiso   1.00
H942   H     0.46418   0.65880   0.82900   0.00000  Uiso   1.00
H943   H     0.41413   0.36097   0.84287   0.00000  Uiso   1.00
O944   O     0.06147   0.61760   0.95692   0.00000  Uiso   1.00
C945   C     0.07410   0.59461   0.67324   0.00000  Uiso   1.00
H946   H     0.09490   0.62446   0.70912   0.00000  Uiso   1.00
H947   H     0.09487   0.56103   0.99253   0.00000  Uiso   1.00
H948   H     0.04425   0.58160   0.69408   0.00000  Uiso   1.00
O949   O     0.03234   0.35838   0.75623   0.00000  Uiso   1.00
H950   H     0.00862   0.66342   0.73813   0.00000  Uiso   1.00
O951   O     0.46934   0.62647   0.94660   0.00000  Uiso   1.00
H952   H     0.49281   0.65583   0.96116   0.00000  Uiso   1.00
O953   O     0.21316   0.64717   0.76155   0.00000  Uiso   1.00
H954   H     0.19931   0.33698   0.73692   0.00000  Uiso   1.00
O955   O     0.28678   0.35283   0.90515   0.00000  Uiso   1.00
H956   H     0.30063   0.66302   0.92977   0.00000  Uiso   1.00
O957   O     0.20775   0.45063   0.97473   0.00000  Uiso   1.00
H958   H     0.19186   0.43209   0.66844   0.00000  Uiso   1.00
O959   O     0.29226   0.54937   0.69193   0.00000  Uiso   1.00
H960   H     0.30816   0.56789   0.99823   0.00000  Uiso   1.00
C961   C     0.74711   0.40007   0.81812   0.00000  Uiso   1.00
C962   C     0.75288   0.59993   0.84855   0.00000  Uiso   1.00
C963   C     0.51384   0.40441   0.78159   0.00000  Uiso   1.00
C964   C     0.98722   0.58393   0.91109   0.00000  Uiso   1.00
C965   C     0.74058   0.34412   0.81120   0.00000  Uiso   1.00
C966   C     0.75938   0.65588   0.85547   0.00000  Uiso   1.00
C967   C     0.66465   0.49905   0.83376   0.00000  Uiso   1.00
C968   C     0.83543   0.50078   0.83297   0.00000  Uiso   1.00
C969   C     0.91136   0.54448   0.86957   0.00000  Uiso   1.00
C970   C     0.58946   0.45016   0.80804   0.00000  Uiso   1.00
C971   C     0.88377   0.50191   0.83257   0.00000  Uiso   1.00
C972   C     0.61649   0.49666   0.83546   0.00000  Uiso   1.00
C973   C     0.90183   0.45838   0.79817   0.00000  Uiso   1.00
C974   C     0.59818   0.54169   0.86569   0.00000  Uiso   1.00
C975   C     0.94843   0.45384   0.80539   0.00000  Uiso   1.00
C976   C     0.55203   0.54006   0.87285   0.00000  Uiso   1.00
C977   C     0.97683   0.49725   0.84002   0.00000  Uiso   1.00
C978   C     0.52374   0.49574   0.84055   0.00000  Uiso   1.00
C979   C     0.95835   0.54237   0.87353   0.00000  Uiso   1.00
C980   C     0.54241   0.45000   0.80902   0.00000  Uiso   1.00
C981   C     0.96699   0.40606   0.78154   0.00000  Uiso   1.00
C982   C     0.53391   0.58097   0.91329   0.00000  Uiso   1.00
Cu983  Cu    0.75501   0.50579   0.89479   0.00000  Uiso   1.00
Cu984  Cu    0.74500   0.49421   0.77187   0.00000  Uiso   1.00
N985   N     0.73745   0.48547   0.67951   0.00000  Uiso   1.00
N986   N     0.76256   0.51453   0.98716   0.00000  Uiso   1.00
O987   O     0.75326   0.42871   0.87326   0.00000  Uiso   1.00
O988   O     0.74675   0.57129   0.79341   0.00000  Uiso   1.00
O989   O     0.74480   0.41892   0.76945   0.00000  Uiso   1.00
O990   O     0.75520   0.58108   0.89721   0.00000  Uiso   1.00
O991   O     0.68936   0.50488   0.88524   0.00000  Uiso   1.00
O992   O     0.81065   0.49512   0.78143   0.00000  Uiso   1.00
O993   O     0.68090   0.49510   0.78143   0.00000  Uiso   1.00
O994   O     0.81910   0.50490   0.88523   0.00000  Uiso   1.00
O995   O     0.89315   0.58866   0.90123   0.00000  Uiso   1.00
H996   H     0.86325   0.59222   0.88101   0.00000  Uiso   1.00
O997   O     0.60800   0.40512   0.77920   0.00000  Uiso   1.00
H998   H     0.64031   0.40648   0.79295   0.00000  Uiso   1.00
O999   O     0.87288   0.42070   0.75841   0.00000  Uiso   1.00
H1000  H     0.88669   0.41139   0.71923   0.00000  Uiso   1.00
O1001  O     0.62620   0.58723   0.88571   0.00000  Uiso   1.00
H1002  H     0.60952   0.61685   0.87718   0.00000  Uiso   1.00
O1003  O     0.93955   0.36027   0.75868   0.00000  Uiso   1.00
C1004  C     0.93216   0.33582   0.80756   0.00000  Uiso   1.00
H1005  H     0.91074   0.63208   0.78913   0.00000  Uiso   1.00
H1006  H     0.96418   0.65880   0.82900   0.00000  Uiso   1.00
H1007  H     0.91413   0.36097   0.84287   0.00000  Uiso   1.00
O1008  O     0.56147   0.61760   0.95692   0.00000  Uiso   1.00
C1009  C     0.57410   0.59461   0.67324   0.00000  Uiso   1.00
H1010  H     0.59490   0.62446   0.70912   0.00000  Uiso   1.00
H1011  H     0.59487   0.56103   0.99253   0.00000  Uiso   1.00
H1012  H     0.54425   0.58160   0.69408   0.00000  Uiso   1.00
O1013  O     0.53234   0.35838   0.75623   0.00000  Uiso   1.00
H1014  H     0.50862   0.66342   0.73813   0.00000  Uiso   1.00
O1015  O     0.96934   0.62647   0.94660   0.00000  Uiso   1.00
H1016  H     0.99281   0.65583   0.96116   0.00000  Uiso   1.00
O1017  O     0.71316   0.64717   0.76155   0.00000  Uiso   1.00
H1018  H     0.69931   0.33698   0.73692   0.00000  Uiso   1.00
O1019  O     0.78678   0.35283   0.90515   0.00000  Uiso   1.00
H1020  H     0.80063   0.66302   0.92977   0.00000  Uiso   1.00
O1021  O     0.70775   0.45063   0.97473   0.00000  Uiso   1.00
H1022  H     0.69186   0.43209   0.66844   0.00000  Uiso   1.00
O1023  O     0.79226   0.54937   0.69193   0.00000  Uiso   1.00
H1024  H     0.80816   0.56789   0.99823   0.00000  Uiso   1.00
C1025  C     0.24711   0.73340   0.81812   0.00000  Uiso   1.00
C1026  C     0.25288   0.93326   0.84855   0.00000  Uiso   1.00
C1027  C     0.01384   0.73774   0.78159   0.00000  Uiso   1.00
C1028  C     0.48722   0.91726   0.91109   0.00000  Uiso   1.00
C1029  C     0.24058   0.67745   0.81120   0.00000  Uiso   1.00
C1030  C     0.25938   0.98921   0.85547   0.00000  Uiso   1.00
C1031  C     0.16465   0.83238   0.83376   0.00000  Uiso   1.00
C1032  C     0.33543   0.83411   0.83297   0.00000  Uiso   1.00
C1033  C     0.41136   0.87782   0.86957   0.00000  Uiso   1.00
C1034  C     0.08946   0.78349   0.80804   0.00000  Uiso   1.00
C1035  C     0.38377   0.83525   0.83257   0.00000  Uiso   1.00
C1036  C     0.11649   0.83000   0.83546   0.00000  Uiso   1.00
C1037  C     0.40183   0.79171   0.79817   0.00000  Uiso   1.00
C1038  C     0.09818   0.87502   0.86569   0.00000  Uiso   1.00
C1039  C     0.44843   0.78717   0.80539   0.00000  Uiso   1.00
C1040  C     0.05203   0.87339   0.87285   0.00000  Uiso   1.00
C1041  C     0.47683   0.83058   0.84002   0.00000  Uiso   1.00
C1042  C     0.02374   0.82907   0.84055   0.00000  Uiso   1.00
C1043  C     0.45835   0.87570   0.87353   0.00000  Uiso   1.00
C1044  C     0.04241   0.78333   0.80902   0.00000  Uiso   1.00
C1045  C     0.46699   0.73939   0.78154   0.00000  Uiso   1.00
C1046  C     0.03391   0.91430   0.91329   0.00000  Uiso   1.00
Cu1047 Cu    0.25501   0.83913   0.89479   0.00000  Uiso   1.00
Cu1048 Cu    0.24500   0.82754   0.77187   0.00000  Uiso   1.00
N1049  N     0.23745   0.81881   0.67951   0.00000  Uiso   1.00
N1050  N     0.26256   0.84786   0.98716   0.00000  Uiso   1.00
O1051  O     0.25326   0.76204   0.87326   0.00000  Uiso   1.00
O1052  O     0.24675   0.90462   0.79341   0.00000  Uiso   1.00
O1053  O     0.24480   0.75226   0.76945   0.00000  Uiso   1.00
O1054  O     0.25520   0.91441   0.89721   0.00000  Uiso   1.00
O1055  O     0.18936   0.83821   0.88524   0.00000  Uiso   1.00
O1056  O     0.31065   0.82845   0.78143   0.00000  Uiso   1.00
O1057  O     0.18090   0.82843   0.78143   0.00000  Uiso   1.00
O1058  O     0.31910   0.83824   0.88523   0.00000  Uiso   1.00
O1059  O     0.39315   0.92199   0.90123   0.00000  Uiso   1.00
H1060  H     0.36325   0.92556   0.88101   0.00000  Uiso   1.00
O1061  O     0.10800   0.73845   0.77920   0.00000  Uiso   1.00
H1062  H     0.14031   0.73981   0.79295   0.00000  Uiso   1.00
O1063  O     0.37288   0.75403   0.75841   0.00000  Uiso   1.00
H1064  H     0.38669   0.74472   0.71923   0.00000  Uiso   1.00
O1065  O     0.12620   0.92056   0.88571   0.00000  Uiso   1.00
H1066  H     0.10952   0.95019   0.87718   0.00000  Uiso   1.00
O1067  O     0.43955   0.69360   0.75868   0.00000  Uiso   1.00
C1068  C     0.43216   0.66916   0.80756   0.00000  Uiso   1.00
H1069  H     0.41074   0.96541   0.78913   0.00000  Uiso   1.00
H1070  H     0.46418   0.99213   0.82900   0.00000  Uiso   1.00
H1071  H     0.41413   0.69430   0.84287   0.00000  Uiso   1.00
O1072  O     0.06147   0.95094   0.95692   0.00000  Uiso   1.00
C1073  C     0.07410   0.92795   0.67324   0.00000  Uiso   1.00
H1074  H     0.09490   0.95779   0.70912   0.00000  Uiso   1.00
H1075  H     0.09487   0.89436   0.99253   0.00000  Uiso   1.00
H1076  H     0.04425   0.91493   0.69408   0.00000  Uiso   1.00
O1077  O     0.03234   0.69171   0.75623   0.00000  Uiso   1.00
H1078  H     0.00862   0.99675   0.73813   0.00000  Uiso   1.00
O1079  O     0.46934   0.95980   0.94660   0.00000  Uiso   1.00
H1080  H     0.49281   0.98917   0.96116   0.00000  Uiso   1.00
O1081  O     0.21316   0.98051   0.76155   0.00000  Uiso   1.00
H1082  H     0.19931   0.67031   0.73692   0.00000  Uiso   1.00
O1083  O     0.28678   0.68616   0.90515   0.00000  Uiso   1.00
H1084  H     0.30063   0.99635   0.92977   0.00000  Uiso   1.00
O1085  O     0.20775   0.78396   0.97473   0.00000  Uiso   1.00
H1086  H     0.19186   0.76542   0.66844   0.00000  Uiso   1.00
O1087  O     0.29226   0.88270   0.69193   0.00000  Uiso   1.00
H1088  H     0.30816   0.90123   0.99823   0.00000  Uiso   1.00
C1089  C     0.74711   0.73340   0.81812   0.00000  Uiso   1.00
C1090  C     0.75288   0.93326   0.84855   0.00000  Uiso   1.00
C1091  C     0.51384   0.73774   0.78159   0.00000  Uiso   1.00
C1092  C     0.98722   0.91726   0.91109   0.00000  Uiso   1.00
C1093  C     0.74058   0.67745   0.81120   0.00000  Uiso   1.00
C1094  C     0.75938   0.98921   0.85547   0.00000  Uiso   1.00
C1095  C     0.66465   0.83238   0.83376   0.00000  Uiso   1.00
C1096  C     0.83543   0.83411   0.83297   0.00000  Uiso   1.00
C1097  C     0.91136   0.87782   0.86957   0.00000  Uiso   1.00
C1098  C     0.58946   0.78349   0.80804   0.00000  Uiso   1.00
C1099  C     0.88377   0.83525   0.83257   0.00000  Uiso   1.00
C1100  C     0.61649   0.83000   0.83546   0.00000  Uiso   1.00
C1101  C     0.90183   0.79171   0.79817   0.00000  Uiso   1.00
C1102  C     0.59818   0.87502   0.86569   0.00000  Uiso   1.00
C1103  C     0.94843   0.78717   0.80539   0.00000  Uiso   1.00
C1104  C     0.55203   0.87339   0.87285   0.00000  Uiso   1.00
C1105  C     0.97683   0.83058   0.84002   0.00000  Uiso   1.00
C1106  C     0.52374   0.82907   0.84055   0.00000  Uiso   1.00
C1107  C     0.95835   0.87570   0.87353   0.00000  Uiso   1.00
C1108  C     0.54241   0.78333   0.80902   0.00000  Uiso   1.00
C1109  C     0.96699   0.73939   0.78154   0.00000  Uiso   1.00
C1110  C     0.53391   0.91430   0.91329   0.00000  Uiso   1.00
Cu1111 Cu    0.75501   0.83913   0.89479   0.00000  Uiso   1.00
Cu1112 Cu    0.74500   0.82754   0.77187   0.00000  Uiso   1.00
N1113  N     0.73745   0.81881   0.67951   0.00000  Uiso   1.00
N1114  N     0.76256   0.84786   0.98716   0.00000  Uiso   1.00
O1115  O     0.75326   0.76204   0.87326   0.00000  Uiso   1.00
O1116  O     0.74675   0.90462   0.79341   0.00000  Uiso   1.00
O1117  O     0.74480   0.75226   0.76945   0.00000  Uiso   1.00
O1118  O     0.75520   0.91441   0.89721   0.00000  Uiso   1.00
O1119  O     0.68936   0.83821   0.88524   0.00000  Uiso   1.00
O1120  O     0.81065   0.82845   0.78143   0.00000  Uiso   1.00
O1121  O     0.68090   0.82843   0.78143   0.00000  Uiso   1.00
O1122  O     0.81910   0.83824   0.88523   0.00000  Uiso   1.00
O1123  O     0.89315   0.92199   0.90123   0.00000  Uiso   1.00
H1124  H     0.86325   0.92556   0.88101   0.00000  Uiso   1.00
O1125  O     0.60800   0.73845   0.77920   0.00000  Uiso   1.00
H1126  H     0.64031   0.73981   0.79295   0.00000  Uiso   1.00
O1127  O     0.87288   0.75403   0.75841   0.00000  Uiso   1.00
H1128  H     0.88669   0.74472   0.71923   0.00000  Uiso   1.00
O1129  O     0.62620   0.92056   0.88571   0.00000  Uiso   1.00
H1130  H     0.60952   0.95019   0.87718   0.00000  Uiso   1.00
O1131  O     0.93955   0.69360   0.75868   0.00000  Uiso   1.00
C1132  C     0.93216   0.66916   0.80756   0.00000  Uiso   1.00
H1133  H     0.91074   0.96541   0.78913   0.00000  Uiso   1.00
H1134  H     0.96418   0.99213   0.82900   0.00000  Uiso   1.00
H1135  H     0.91413   0.69430   0.84287   0.00000  Uiso   1.00
O1136  O     0.56147   0.95094   0.95692   0.00000  Uiso   1.00
C1137  C     0.57410   0.92795   0.67324   0.00000  Uiso   1.00
H1138  H     0.59490   0.95779   0.70912   0.00000  Uiso   1.00
H1139  H     0.59487   0.89436   0.99253   0.00000  Uiso   1.00
H1140  H     0.54425   0.91493   0.69408   0.00000  Uiso   1.00
O1141  O     0.53234   0.69171   0.75623   0.00000  Uiso   1.00
H1142  H     0.50862   0.99675   0.73813   0.00000  Uiso   1.00
O1143  O     0.96934   0.95980   0.94660   0.00000  Uiso   1.00
H1144  H     0.99281   0.98917   0.96116   0.00000  Uiso   1.00
O1145  O     0.71316   0.98051   0.76155   0.00000  Uiso   1.00
H1146  H     0.69931   0.67031   0.73692   0.00000  Uiso   1.00
O1147  O     0.78678   0.68616   0.90515   0.00000  Uiso   1.00
H1148  H     0.80063   0.99635   0.92977   0.00000  Uiso   1.00
O1149  O     0.70775   0.78396   0.97473   0.00000  Uiso   1.00
H1150  H     0.69186   0.76542   0.66844   0.00000  Uiso   1.00
O1151  O     0.79226   0.88270   0.69193   0.00000  Uiso   1.00
H1152  H     0.80816   0.90123   0.99823   0.00000  Uiso   1.00
loop_
_geom_bond_atom_site_label_1
_geom_bond_atom_site_label_2
_geom_bond_distance
_geom_bond_site_symmetry_2
_ccdc_geom_bond_type
C1     O29     1.291   .     A
C1     C5      1.438   .     S
C1     O27     1.291   .     A
C2     O30     1.291   .     A
C2     C6      1.437   .     S
C2     O28     1.291   .     A
C3     O53     1.384   .     S
C3     C20     1.416   .     A
C3     C85     1.409   1_455 S
C4     O55     1.384   .     S
C4     C19     1.417   .     A
C4     C86     1.405   .     S
C5     C262    1.346   1_545 S
C5     O313    1.389   1_545 S
C6     C133    1.346   .     S
C6     O187    1.389   .     S
C7     O33     1.294   .     A
C7     C12     1.447   .     S
C7     O31     1.293   .     A
C8     O34     1.294   .     A
C8     C11     1.450   .     S
C8     O32     1.296   .     A
C9     C11     1.409   .     A
C9     O35     1.386   .     S
C9     C19     1.411   .     A
C10    C12     1.410   .     A
C10    O37     1.386   .     S
C10    C20     1.414   .     A
C11    C13     1.395   .     A
C12    C14     1.393   .     A
C13    C15     1.409   .     A
C13    O39     1.381   .     S
C14    O41     1.383   .     S
C14    C16     1.406   .     A
C15    C17     1.417   .     A
C15    C21     1.414   .     A
C16    C18     1.415   .     A
C16    C22     1.411   .     A
C17    C19     1.423   .     A
C17    C82     1.410   .     S
C18    C20     1.422   .     A
C18    C81     1.410   1_455 S
C21    O43     1.385   .     S
C21    C67     1.409   .     S
C22    O48     1.386   .     S
C22    C68     1.405   1_455 S
Cu23   O27     1.965   .     S
Cu23   O34     1.954   .     S
Cu23   Cu24    2.697   .     S
Cu23   O30     1.958   .     S
Cu23   N26     2.026   .     S
Cu23   O31     1.962   .     S
Cu24   O32     1.962   .     S
Cu24   N25     2.026   .     S
Cu24   O33     1.954   .     S
Cu24   O29     1.958   .     S
Cu24   O28     1.965   .     S
N25    N794    1.294   1_554 S
N25    O829    1.338   1_554 S
N26    N409    1.294   .     S
N26    O447    1.338   .     S
O35    H36     0.990   .     S
O37    H38     0.989   .     S
O39    H40     0.992   .     S
O41    H42     0.991   .     S
O43    C44     1.411   .     S
C44    H47     1.113   .     S
C44    H301    1.109   1_545 S
C44    H302    1.113   1_545 S
H45    C172    1.109   .     S
H46    C172    1.113   .     S
O48    C433    1.413   .     S
C49    H52     1.114   .     S
C49    H50     1.109   .     S
C49    O816    1.413   1_554 S
C49    H819    1.112   1_554 S
H51    C433    1.112   .     S
O53    H310    0.988   1_545 S
H54    O181    0.988   .     S
O55    H56     0.990   .     S
O57    C133    1.389   .     S
O57    H186    0.991   .     S
H58    O313    0.991   1_545 S
O59    C262    1.389   1_545 S
O59    H316    0.991   1_545 S
H60    O187    0.991   .     S
O61    N409    1.338   .     S
O61    H446    0.990   .     S
H62    O829    0.990   1_554 S
O63    N794    1.338   1_554 S
O63    H832    0.990   1_554 S
H64    O447    0.990   .     S
C65    O93     1.291   .     A
C65    C69     1.438   .     S
C65    O91     1.291   .     A
C66    O94     1.291   .     A
C66    C70     1.437   .     S
C66    O92     1.291   .     A
C67    O117    1.384   .     S
C67    C84     1.416   .     A
C68    O119    1.384   .     S
C68    C83     1.417   .     A
C68    C22     1.405   1_655 S
C69    C326    1.346   1_545 S
C69    O377    1.389   1_545 S
C70    C197    1.346   .     S
C70    O251    1.389   .     S
C71    O97     1.294   .     A
C71    C76     1.447   .     S
C71    O95     1.293   .     A
C72    O98     1.294   .     A
C72    C75     1.450   .     S
C72    O96     1.296   .     A
C73    C75     1.409   .     A
C73    O99     1.386   .     S
C73    C83     1.411   .     A
C74    C76     1.410   .     A
C74    O101    1.386   .     S
C74    C84     1.414   .     A
C75    C77     1.395   .     A
C76    C78     1.393   .     A
C77    C79     1.409   .     A
C77    O103    1.381   .     S
C78    O105    1.383   .     S
C78    C80     1.406   .     A
C79    C81     1.417   .     A
C79    C85     1.414   .     A
C80    C82     1.415   .     A
C80    C86     1.411   .     A
C81    C83     1.423   .     A
C81    C18     1.410   1_655 S
C82    C84     1.422   .     A
C85    O107    1.385   .     S
C85    C3      1.409   1_655 S
C86    O112    1.386   .     S
Cu87   O91     1.965   .     S
Cu87   O98     1.954   .     S
Cu87   Cu88    2.697   .     S
Cu87   O94     1.958   .     S
Cu87   N90     2.026   .     S
Cu87   O95     1.962   .     S
Cu88   O96     1.962   .     S
Cu88   N89     2.026   .     S
Cu88   O97     1.954   .     S
Cu88   O93     1.958   .     S
Cu88   O92     1.965   .     S
N89    N858    1.294   1_554 S
N89    O893    1.338   1_554 S
N90    N473    1.294   .     S
N90    O511    1.338   .     S
O99    H100    0.990   .     S
O101   H102    0.989   .     S
O103   H104    0.992   .     S
O105   H106    0.991   .     S
O107   C108    1.411   .     S
C108   H111    1.113   .     S
C108   H365    1.109   1_545 S
C108   H366    1.113   1_545 S
H109   C236    1.109   .     S
H110   C236    1.113   .     S
O112   C497    1.413   .     S
C113   H116    1.114   .     S
C113   H114    1.109   .     S
C113   O880    1.413   1_554 S
C113   H883    1.112   1_554 S
H115   C497    1.112   .     S
O117   H374    0.988   1_545 S
H118   O245    0.988   .     S
O119   H120    0.990   .     S
O121   C197    1.389   .     S
O121   H250    0.991   .     S
H122   O377    0.991   1_545 S
O123   C326    1.389   1_545 S
O123   H380    0.991   1_545 S
H124   O251    0.991   .     S
O125   N473    1.338   .     S
O125   H510    0.990   .     S
H126   O893    0.990   1_554 S
O127   N858    1.338   1_554 S
O127   H896    0.990   1_554 S
H128   O511    0.990   .     S
C129   O157    1.291   .     A
C129   C133    1.438   .     S
C129   O155    1.291   .     A
C130   O158    1.291   .     A
C130   C134    1.437   .     S
C130   O156    1.291   .     A
C131   O181    1.384   .     S
C131   C148    1.416   .     A
C131   C213    1.409   1_455 S
C132   O183    1.384   .     S
C132   C147    1.417   .     A
C132   C214    1.405   .     S
C134   C261    1.346   .     S
C134   O315    1.389   .     S
C135   O161    1.294   .     A
C135   C140    1.447   .     S
C135   O159    1.293   .     A
C136   O162    1.294   .     A
C136   C139    1.450   .     S
C136   O160    1.296   .     A
C137   C139    1.409   .     A
C137   O163    1.386   .     S
C137   C147    1.411   .     A
C138   C140    1.410   .     A
C138   O165    1.386   .     S
C138   C148    1.414   .     A
C139   C141    1.395   .     A
C140   C142    1.393   .     A
C141   C143    1.409   .     A
C141   O167    1.381   .     S
C142   O169    1.383   .     S
C142   C144    1.406   .     A
C143   C145    1.417   .     A
C143   C149    1.414   .     A
C144   C146    1.415   .     A
C144   C150    1.411   .     A
C145   C147    1.423   .     A
C145   C210    1.410   .     S
C146   C148    1.422   .     A
C146   C209    1.410   1_455 S
C149   O171    1.385   .     S
C149   C195    1.409   .     S
C150   O176    1.386   .     S
C150   C196    1.405   1_455 S
Cu151  O155    1.965   .     S
Cu151  O162    1.954   .     S
Cu151  Cu152   2.697   .     S
Cu151  O158    1.958   .     S
Cu151  N154    2.026   .     S
Cu151  O159    1.962   .     S
Cu152  O160    1.962   .     S
Cu152  N153    2.026   .     S
Cu152  O161    1.954   .     S
Cu152  O157    1.958   .     S
Cu152  O156    1.965   .     S
N153   N922    1.294   1_554 S
N153   O957    1.338   1_554 S
N154   N537    1.294   .     S
N154   O575    1.338   .     S
O163   H164    0.990   .     S
O165   H166    0.989   .     S
O167   H168    0.992   .     S
O169   H170    0.991   .     S
O171   C172    1.411   .     S
C172   H175    1.113   .     S
H173   C300    1.109   .     S
H174   C300    1.113   .     S
O176   C561    1.413   .     S
C177   H180    1.114   .     S
C177   H178    1.109   .     S
C177   O944    1.413   1_554 S
C177   H947    1.112   1_554 S
H179   C561    1.112   .     S
H182   O309    0.988   .     S
O183   H184    0.990   .     S
O185   C261    1.389   .     S
O185   H314    0.991   .     S
H188   O315    0.991   .     S
O189   N537    1.338   .     S
O189   H574    0.990   .     S
H190   O957    0.990   1_554 S
O191   N922    1.338   1_554 S
O191   H960    0.990   1_554 S
H192   O575    0.990   .     S
C193   O221    1.291   .     A
C193   C197    1.438   .     S
C193   O219    1.291   .     A
C194   O222    1.291   .     A
C194   C198    1.437   .     S
C194   O220    1.291   .     A
C195   O245    1.384   .     S
C195   C212    1.416   .     A
C196   O247    1.384   .     S
C196   C211    1.417   .     A
C196   C150    1.405   1_655 S
C198   C325    1.346   .     S
C198   O379    1.389   .     S
C199   O225    1.294   .     A
C199   C204    1.447   .     S
C199   O223    1.293   .     A
C200   O226    1.294   .     A
C200   C203    1.450   .     S
C200   O224    1.296   .     A
C201   C203    1.409   .     A
C201   O227    1.386   .     S
C201   C211    1.411   .     A
C202   C204    1.410   .     A
C202   O229    1.386   .     S
C202   C212    1.414   .     A
C203   C205    1.395   .     A
C204   C206    1.393   .     A
C205   C207    1.409   .     A
C205   O231    1.381   .     S
C206   O233    1.383   .     S
C206   C208    1.406   .     A
C207   C209    1.417   .     A
C207   C213    1.414   .     A
C208   C210    1.415   .     A
C208   C214    1.411   .     A
C209   C211    1.423   .     A
C209   C146    1.410   1_655 S
C210   C212    1.422   .     A
C213   O235    1.385   .     S
C213   C131    1.409   1_655 S
C214   O240    1.386   .     S
Cu215  O219    1.965   .     S
Cu215  O226    1.954   .     S
Cu215  Cu216   2.697   .     S
Cu215  O222    1.958   .     S
Cu215  N218    2.026   .     S
Cu215  O223    1.962   .     S
Cu216  O224    1.962   .     S
Cu216  N217    2.026   .     S
Cu216  O225    1.954   .     S
Cu216  O221    1.958   .     S
Cu216  O220    1.965   .     S
N217   N986    1.294   1_554 S
N217   O1021   1.338   1_554 S
N218   N601    1.294   .     S
N218   O639    1.338   .     S
O227   H228    0.990   .     S
O229   H230    0.989   .     S
O231   H232    0.992   .     S
O233   H234    0.991   .     S
O235   C236    1.411   .     S
C236   H239    1.113   .     S
H237   C364    1.109   .     S
H238   C364    1.113   .     S
O240   C625    1.413   .     S
C241   H244    1.114   .     S
C241   H242    1.109   .     S
C241   O1008   1.413   1_554 S
C241   H1011   1.112   1_554 S
H243   C625    1.112   .     S
H246   O373    0.988   .     S
O247   H248    0.990   .     S
O249   C325    1.389   .     S
O249   H378    0.991   .     S
H252   O379    0.991   .     S
O253   N601    1.338   .     S
O253   H638    0.990   .     S
H254   O1021   0.990   1_554 S
O255   N986    1.338   1_554 S
O255   H1024   0.990   1_554 S
H256   O639    0.990   .     S
C257   O285    1.291   .     A
C257   C261    1.438   .     S
C257   O283    1.291   .     A
C258   O286    1.291   .     A
C258   C262    1.437   .     S
C258   O284    1.291   .     A
C259   O309    1.384   .     S
C259   C276    1.416   .     A
C259   C341    1.409   1_455 S
C260   O311    1.384   .     S
C260   C275    1.417   .     A
C260   C342    1.405   .     S
C262   C5      1.346   1_565 S
C262   O59     1.389   1_565 S
C263   O289    1.294   .     A
C263   C268    1.447   .     S
C263   O287    1.293   .     A
C264   O290    1.294   .     A
C264   C267    1.450   .     S
C264   O288    1.296   .     A
C265   C267    1.409   .     A
C265   O291    1.386   .     S
C265   C275    1.411   .     A
C266   C268    1.410   .     A
C266   O293    1.386   .     S
C266   C276    1.414   .     A
C267   C269    1.395   .     A
C268   C270    1.393   .     A
C269   C271    1.409   .     A
C269   O295    1.381   .     S
C270   O297    1.383   .     S
C270   C272    1.406   .     A
C271   C273    1.417   .     A
C271   C277    1.414   .     A
C272   C274    1.415   .     A
C272   C278    1.411   .     A
C273   C275    1.423   .     A
C273   C338    1.410   .     S
C274   C276    1.422   .     A
C274   C337    1.410   1_455 S
C277   O299    1.385   .     S
C277   C323    1.409   .     S
C278   O304    1.386   .     S
C278   C324    1.405   1_455 S
Cu279  O283    1.965   .     S
Cu279  O290    1.954   .     S
Cu279  Cu280   2.697   .     S
Cu279  O286    1.958   .     S
Cu279  N282    2.026   .     S
Cu279  O287    1.962   .     S
Cu280  O288    1.962   .     S
Cu280  N281    2.026   .     S
Cu280  O289    1.954   .     S
Cu280  O285    1.958   .     S
Cu280  O284    1.965   .     S
N281   N1050   1.294   1_554 S
N281   O1085   1.338   1_554 S
N282   N665    1.294   .     S
N282   O703    1.338   .     S
O291   H292    0.990   .     S
O293   H294    0.989   .     S
O295   H296    0.992   .     S
O297   H298    0.991   .     S
O299   C300    1.411   .     S
C300   H303    1.113   .     S
H301   C44     1.109   1_565 S
H302   C44     1.113   1_565 S
O304   C689    1.413   .     S
C305   H308    1.114   .     S
C305   H306    1.109   .     S
C305   O1072   1.413   1_554 S
C305   H1075   1.112   1_554 S
H307   C689    1.112   .     S
H310   O53     0.988   1_565 S
O311   H312    0.990   .     S
O313   C5      1.389   1_565 S
O313   H58     0.991   1_565 S
H316   O59     0.991   1_565 S
O317   N665    1.338   .     S
O317   H702    0.990   .     S
H318   O1085   0.990   1_554 S
O319   N1050   1.338   1_554 S
O319   H1088   0.990   1_554 S
H320   O703    0.990   .     S
C321   O349    1.291   .     A
C321   C325    1.438   .     S
C321   O347    1.291   .     A
C322   O350    1.291   .     A
C322   C326    1.437   .     S
C322   O348    1.291   .     A
C323   O373    1.384   .     S
C323   C340    1.416   .     A
C324   O375    1.384   .     S
C324   C339    1.417   .     A
C324   C278    1.405   1_655 S
C326   C69     1.346   1_565 S
C326   O123    1.389   1_565 S
C327   O353    1.294   .     A
C327   C332    1.447   .     S
C327   O351    1.293   .     A
C328   O354    1.294   .     A
C328   C331    1.450   .     S
C328   O352    1.296   .     A
C329   C331    1.409   .     A
C329   O355    1.386   .     S
C329   C339    1.411   .     A
C330   C332    1.410   .     A
C330   O357    1.386   .     S
C330   C340    1.414   .     A
C331   C333    1.395   .     A
C332   C334    1.393   .     A
C333   C335    1.409   .     A
C333   O359    1.381   .     S
C334   O361    1.383   .     S
C334   C336    1.406   .     A
C335   C337    1.417   .     A
C335   C341    1.414   .     A
C336   C338    1.415   .     A
C336   C342    1.411   .     A
C337   C339    1.423   .     A
C337   C274    1.410   1_655 S
C338   C340    1.422   .     A
C341   O363    1.385   .     S
C341   C259    1.409   1_655 S
C342   O368    1.386   .     S
Cu343  O347    1.965   .     S
Cu343  O354    1.954   .     S
Cu343  Cu344   2.697   .     S
Cu343  O350    1.958   .     S
Cu343  N346    2.026   .     S
Cu343  O351    1.962   .     S
Cu344  O352    1.962   .     S
Cu344  N345    2.026   .     S
Cu344  O353    1.954   .     S
Cu344  O349    1.958   .     S
Cu344  O348    1.965   .     S
N345   N1114   1.294   1_554 S
N345   O1149   1.338   1_554 S
N346   N729    1.294   .     S
N346   O767    1.338   .     S
O355   H356    0.990   .     S
O357   H358    0.989   .     S
O359   H360    0.992   .     S
O361   H362    0.991   .     S
O363   C364    1.411   .     S
C364   H367    1.113   .     S
H365   C108    1.109   1_565 S
H366   C108    1.113   1_565 S
O368   C753    1.413   .     S
C369   H372    1.114   .     S
C369   H370    1.109   .     S
C369   O1136   1.413   1_554 S
C369   H1139   1.112   1_554 S
H371   C753    1.112   .     S
H374   O117    0.988   1_565 S
O375   H376    0.990   .     S
O377   C69     1.389   1_565 S
O377   H122    0.991   1_565 S
H380   O123    0.991   1_565 S
O381   N729    1.338   .     S
O381   H766    0.990   .     S
H382   O1149   0.990   1_554 S
O383   N1114   1.338   1_554 S
O383   H1152   0.990   1_554 S
H384   O767    0.990   .     S
C385   O413    1.291   .     A
C385   C389    1.438   .     S
C385   O411    1.291   .     A
C386   O414    1.291   .     A
C386   C390    1.437   .     S
C386   O412    1.291   .     A
C387   O437    1.384   .     S
C387   C404    1.416   .     A
C387   C469    1.409   1_455 S
C388   O439    1.384   .     S
C388   C403    1.417   .     A
C388   C470    1.405   .     S
C389   C646    1.346   1_545 S
C389   O697    1.389   1_545 S
C390   C517    1.346   .     S
C390   O571    1.389   .     S
C391   O417    1.294   .     A
C391   C396    1.447   .     S
C391   O415    1.293   .     A
C392   O418    1.294   .     A
C392   C395    1.450   .     S
C392   O416    1.296   .     A
C393   C395    1.409   .     A
C393   O419    1.386   .     S
C393   C403    1.411   .     A
C394   C396    1.410   .     A
C394   O421    1.386   .     S
C394   C404    1.414   .     A
C395   C397    1.395   .     A
C396   C398    1.393   .     A
C397   C399    1.409   .     A
C397   O423    1.381   .     S
C398   O425    1.383   .     S
C398   C400    1.406   .     A
C399   C401    1.417   .     A
C399   C405    1.414   .     A
C400   C402    1.415   .     A
C400   C406    1.411   .     A
C401   C403    1.423   .     A
C401   C466    1.410   .     S
C402   C404    1.422   .     A
C402   C465    1.410   1_455 S
C405   O427    1.385   .     S
C405   C451    1.409   .     S
C406   O432    1.386   .     S
C406   C452    1.405   1_455 S
Cu407  O411    1.965   .     S
Cu407  O418    1.954   .     S
Cu407  Cu408   2.697   .     S
Cu407  O414    1.958   .     S
Cu407  N410    2.026   .     S
Cu407  O415    1.962   .     S
Cu408  O416    1.962   .     S
Cu408  N409    2.026   .     S
Cu408  O417    1.954   .     S
Cu408  O413    1.958   .     S
Cu408  O412    1.965   .     S
N410   N793    1.294   .     S
N410   O831    1.338   .     S
O419   H420    0.990   .     S
O421   H422    0.989   .     S
O423   H424    0.992   .     S
O425   H426    0.991   .     S
O427   C428    1.411   .     S
C428   H431    1.113   .     S
C428   H685    1.109   1_545 S
C428   H686    1.113   1_545 S
H429   C556    1.109   .     S
H430   C556    1.113   .     S
O432   C817    1.413   .     S
C433   H436    1.114   .     S
C433   H434    1.109   .     S
H435   C817    1.112   .     S
O437   H694    0.988   1_545 S
H438   O565    0.988   .     S
O439   H440    0.990   .     S
O441   C517    1.389   .     S
O441   H570    0.991   .     S
H442   O697    0.991   1_545 S
O443   C646    1.389   1_545 S
O443   H700    0.991   1_545 S
H444   O571    0.991   .     S
O445   N793    1.338   .     S
O445   H830    0.990   .     S
H448   O831    0.990   .     S
C449   O477    1.291   .     A
C449   C453    1.438   .     S
C449   O475    1.291   .     A
C450   O478    1.291   .     A
C450   C454    1.437   .     S
C450   O476    1.291   .     A
C451   O501    1.384   .     S
C451   C468    1.416   .     A
C452   O503    1.384   .     S
C452   C467    1.417   .     A
C452   C406    1.405   1_655 S
C453   C710    1.346   1_545 S
C453   O761    1.389   1_545 S
C454   C581    1.346   .     S
C454   O635    1.389   .     S
C455   O481    1.294   .     A
C455   C460    1.447   .     S
C455   O479    1.293   .     A
C456   O482    1.294   .     A
C456   C459    1.450   .     S
C456   O480    1.296   .     A
C457   C459    1.409   .     A
C457   O483    1.386   .     S
C457   C467    1.411   .     A
C458   C460    1.410   .     A
C458   O485    1.386   .     S
C458   C468    1.414   .     A
C459   C461    1.395   .     A
C460   C462    1.393   .     A
C461   C463    1.409   .     A
C461   O487    1.381   .     S
C462   O489    1.383   .     S
C462   C464    1.406   .     A
C463   C465    1.417   .     A
C463   C469    1.414   .     A
C464   C466    1.415   .     A
C464   C470    1.411   .     A
C465   C467    1.423   .     A
C465   C402    1.410   1_655 S
C466   C468    1.422   .     A
C469   O491    1.385   .     S
C469   C387    1.409   1_655 S
C470   O496    1.386   .     S
Cu471  O475    1.965   .     S
Cu471  O482    1.954   .     S
Cu471  Cu472   2.697   .     S
Cu471  O478    1.958   .     S
Cu471  N474    2.026   .     S
Cu471  O479    1.962   .     S
Cu472  O480    1.962   .     S
Cu472  N473    2.026   .     S
Cu472  O481    1.954   .     S
Cu472  O477    1.958   .     S
Cu472  O476    1.965   .     S
N474   N857    1.294   .     S
N474   O895    1.338   .     S
O483   H484    0.990   .     S
O485   H486    0.989   .     S
O487   H488    0.992   .     S
O489   H490    0.991   .     S
O491   C492    1.411   .     S
C492   H495    1.113   .     S
C492   H749    1.109   1_545 S
C492   H750    1.113   1_545 S
H493   C620    1.109   .     S
H494   C620    1.113   .     S
O496   C881    1.413   .     S
C497   H500    1.114   .     S
C497   H498    1.109   .     S
H499   C881    1.112   .     S
O501   H758    0.988   1_545 S
H502   O629    0.988   .     S
O503   H504    0.990   .     S
O505   C581    1.389   .     S
O505   H634    0.991   .     S
H506   O761    0.991   1_545 S
O507   C710    1.389   1_545 S
O507   H764    0.991   1_545 S
H508   O635    0.991   .     S
O509   N857    1.338   .     S
O509   H894    0.990   .     S
H512   O895    0.990   .     S
C513   O541    1.291   .     A
C513   C517    1.438   .     S
C513   O539    1.291   .     A
C514   O542    1.291   .     A
C514   C518    1.437   .     S
C514   O540    1.291   .     A
C515   O565    1.384   .     S
C515   C532    1.416   .     A
C515   C597    1.409   1_455 S
C516   O567    1.384   .     S
C516   C531    1.417   .     A
C516   C598    1.405   .     S
C518   C645    1.346   .     S
C518   O699    1.389   .     S
C519   O545    1.294   .     A
C519   C524    1.447   .     S
C519   O543    1.293   .     A
C520   O546    1.294   .     A
C520   C523    1.450   .     S
C520   O544    1.296   .     A
C521   C523    1.409   .     A
C521   O547    1.386   .     S
C521   C531    1.411   .     A
C522   C524    1.410   .     A
C522   O549    1.386   .     S
C522   C532    1.414   .     A
C523   C525    1.395   .     A
C524   C526    1.393   .     A
C525   C527    1.409   .     A
C525   O551    1.381   .     S
C526   O553    1.383   .     S
C526   C528    1.406   .     A
C527   C529    1.417   .     A
C527   C533    1.414   .     A
C528   C530    1.415   .     A
C528   C534    1.411   .     A
C529   C531    1.423   .     A
C529   C594    1.410   .     S
C530   C532    1.422   .     A
C530   C593    1.410   1_455 S
C533   O555    1.385   .     S
C533   C579    1.409   .     S
C534   O560    1.386   .     S
C534   C580    1.405   1_455 S
Cu535  O539    1.965   .     S
Cu535  O546    1.954   .     S
Cu535  Cu536   2.697   .     S
Cu535  O542    1.958   .     S
Cu535  N538    2.026   .     S
Cu535  O543    1.962   .     S
Cu536  O544    1.962   .     S
Cu536  N537    2.026   .     S
Cu536  O545    1.954   .     S
Cu536  O541    1.958   .     S
Cu536  O540    1.965   .     S
N538   N921    1.294   .     S
N538   O959    1.338   .     S
O547   H548    0.990   .     S
O549   H550    0.989   .     S
O551   H552    0.992   .     S
O553   H554    0.991   .     S
O555   C556    1.411   .     S
C556   H559    1.113   .     S
H557   C684    1.109   .     S
H558   C684    1.113   .     S
O560   C945    1.413   .     S
C561   H564    1.114   .     S
C561   H562    1.109   .     S
H563   C945    1.112   .     S
H566   O693    0.988   .     S
O567   H568    0.990   .     S
O569   C645    1.389   .     S
O569   H698    0.991   .     S
H572   O699    0.991   .     S
O573   N921    1.338   .     S
O573   H958    0.990   .     S
H576   O959    0.990   .     S
C577   O605    1.291   .     A
C577   C581    1.438   .     S
C577   O603    1.291   .     A
C578   O606    1.291   .     A
C578   C582    1.437   .     S
C578   O604    1.291   .     A
C579   O629    1.384   .     S
C579   C596    1.416   .     A
C580   O631    1.384   .     S
C580   C595    1.417   .     A
C580   C534    1.405   1_655 S
C582   C709    1.346   .     S
C582   O763    1.389   .     S
C583   O609    1.294   .     A
C583   C588    1.447   .     S
C583   O607    1.293   .     A
C584   O610    1.294   .     A
C584   C587    1.450   .     S
C584   O608    1.296   .     A
C585   C587    1.409   .     A
C585   O611    1.386   .     S
C585   C595    1.411   .     A
C586   C588    1.410   .     A
C586   O613    1.386   .     S
C586   C596    1.414   .     A
C587   C589    1.395   .     A
C588   C590    1.393   .     A
C589   C591    1.409   .     A
C589   O615    1.381   .     S
C590   O617    1.383   .     S
C590   C592    1.406   .     A
C591   C593    1.417   .     A
C591   C597    1.414   .     A
C592   C594    1.415   .     A
C592   C598    1.411   .     A
C593   C595    1.423   .     A
C593   C530    1.410   1_655 S
C594   C596    1.422   .     A
C597   O619    1.385   .     S
C597   C515    1.409   1_655 S
C598   O624    1.386   .     S
Cu599  O603    1.965   .     S
Cu599  O610    1.954   .     S
Cu599  Cu600   2.697   .     S
Cu599  O606    1.958   .     S
Cu599  N602    2.026   .     S
Cu599  O607    1.962   .     S
Cu600  O608    1.962   .     S
Cu600  N601    2.026   .     S
Cu600  O609    1.954   .     S
Cu600  O605    1.958   .     S
Cu600  O604    1.965   .     S
N602   N985    1.294   .     S
N602   O1023   1.338   .     S
O611   H612    0.990   .     S
O613   H614    0.989   .     S
O615   H616    0.992   .     S
O617   H618    0.991   .     S
O619   C620    1.411   .     S
C620   H623    1.113   .     S
H621   C748    1.109   .     S
H622   C748    1.113   .     S
O624   C1009   1.413   .     S
C625   H628    1.114   .     S
C625   H626    1.109   .     S
H627   C1009   1.112   .     S
H630   O757    0.988   .     S
O631   H632    0.990   .     S
O633   C709    1.389   .     S
O633   H762    0.991   .     S
H636   O763    0.991   .     S
O637   N985    1.338   .     S
O637   H1022   0.990   .     S
H640   O1023   0.990   .     S
C641   O669    1.291   .     A
C641   C645    1.438   .     S
C641   O667    1.291   .     A
C642   O670    1.291   .     A
C642   C646    1.437   .     S
C642   O668    1.291   .     A
C643   O693    1.384   .     S
C643   C660    1.416   .     A
C643   C725    1.409   1_455 S
C644   O695    1.384   .     S
C644   C659    1.417   .     A
C644   C726    1.405   .     S
C646   C389    1.346   1_565 S
C646   O443    1.389   1_565 S
C647   O673    1.294   .     A
C647   C652    1.447   .     S
C647   O671    1.293   .     A
C648   O674    1.294   .     A
C648   C651    1.450   .     S
C648   O672    1.296   .     A
C649   C651    1.409   .     A
C649   O675    1.386   .     S
C649   C659    1.411   .     A
C650   C652    1.410   .     A
C650   O677    1.386   .     S
C650   C660    1.414   .     A
C651   C653    1.395   .     A
C652   C654    1.393   .     A
C653   C655    1.409   .     A
C653   O679    1.381   .     S
C654   O681    1.383   .     S
C654   C656    1.406   .     A
C655   C657    1.417   .     A
C655   C661    1.414   .     A
C656   C658    1.415   .     A
C656   C662    1.411   .     A
C657   C659    1.423   .     A
C657   C722    1.410   .     S
C658   C660    1.422   .     A
C658   C721    1.410   1_455 S
C661   O683    1.385   .     S
C661   C707    1.409   .     S
C662   O688    1.386   .     S
C662   C708    1.405   1_455 S
Cu663  O667    1.965   .     S
Cu663  O674    1.954   .     S
Cu663  Cu664   2.697   .     S
Cu663  O670    1.958   .     S
Cu663  N666    2.026   .     S
Cu663  O671    1.962   .     S
Cu664  O672    1.962   .     S
Cu664  N665    2.026   .     S
Cu664  O673    1.954   .     S
Cu664  O669    1.958   .     S
Cu664  O668    1.965   .     S
N666   N1049   1.294   .     S
N666   O1087   1.338   .     S
O675   H676    0.990   .     S
O677   H678    0.989   .     S
O679   H680    0.992   .     S
O681   H682    0.991   .     S
O683   C684    1.411   .     S
C684   H687    1.113   .     S
H685   C428    1.109   1_565 S
H686   C428    1.113   1_565 S
O688   C1073   1.413   .     S
C689   H692    1.114   .     S
C689   H690    1.109   .     S
H691   C1073   1.112   .     S
H694   O437    0.988   1_565 S
O695   H696    0.990   .     S
O697   C389    1.389   1_565 S
O697   H442    0.991   1_565 S
H700   O443    0.991   1_565 S
O701   N1049   1.338   .     S
O701   H1086   0.990   .     S
H704   O1087   0.990   .     S
C705   O733    1.291   .     A
C705   C709    1.438   .     S
C705   O731    1.291   .     A
C706   O734    1.291   .     A
C706   C710    1.437   .     S
C706   O732    1.291   .     A
C707   O757    1.384   .     S
C707   C724    1.416   .     A
C708   O759    1.384   .     S
C708   C723    1.417   .     A
C708   C662    1.405   1_655 S
C710   C453    1.346   1_565 S
C710   O507    1.389   1_565 S
C711   O737    1.294   .     A
C711   C716    1.447   .     S
C711   O735    1.293   .     A
C712   O738    1.294   .     A
C712   C715    1.450   .     S
C712   O736    1.296   .     A
C713   C715    1.409   .     A
C713   O739    1.386   .     S
C713   C723    1.411   .     A
C714   C716    1.410   .     A
C714   O741    1.386   .     S
C714   C724    1.414   .     A
C715   C717    1.395   .     A
C716   C718    1.393   .     A
C717   C719    1.409   .     A
C717   O743    1.381   .     S
C718   O745    1.383   .     S
C718   C720    1.406   .     A
C719   C721    1.417   .     A
C719   C725    1.414   .     A
C720   C722    1.415   .     A
C720   C726    1.411   .     A
C721   C723    1.423   .     A
C721   C658    1.410   1_655 S
C722   C724    1.422   .     A
C725   O747    1.385   .     S
C725   C643    1.409   1_655 S
C726   O752    1.386   .     S
Cu727  O731    1.965   .     S
Cu727  O738    1.954   .     S
Cu727  Cu728   2.697   .     S
Cu727  O734    1.958   .     S
Cu727  N730    2.026   .     S
Cu727  O735    1.962   .     S
Cu728  O736    1.962   .     S
Cu728  N729    2.026   .     S
Cu728  O737    1.954   .     S
Cu728  O733    1.958   .     S
Cu728  O732    1.965   .     S
N730   N1113   1.294   .     S
N730   O1151   1.338   .     S
O739   H740    0.990   .     S
O741   H742    0.989   .     S
O743   H744    0.992   .     S
O745   H746    0.991   .     S
O747   C748    1.411   .     S
C748   H751    1.113   .     S
H749   C492    1.109   1_565 S
H750   C492    1.113   1_565 S
O752   C1137   1.413   .     S
C753   H756    1.114   .     S
C753   H754    1.109   .     S
H755   C1137   1.112   .     S
H758   O501    0.988   1_565 S
O759   H760    0.990   .     S
O761   C453    1.389   1_565 S
O761   H506    0.991   1_565 S
H764   O507    0.991   1_565 S
O765   N1113   1.338   .     S
O765   H1150   0.990   .     S
H768   O1151   0.990   .     S
C769   O797    1.291   .     A
C769   C773    1.438   .     S
C769   O795    1.291   .     A
C770   O798    1.291   .     A
C770   C774    1.437   .     S
C770   O796    1.291   .     A
C771   O821    1.384   .     S
C771   C788    1.416   .     A
C771   C853    1.409   1_455 S
C772   O823    1.384   .     S
C772   C787    1.417   .     A
C772   C854    1.405   .     S
C773   C1030   1.346   1_545 S
C773   O1081   1.389   1_545 S
C774   C901    1.346   .     S
C774   O955    1.389   .     S
C775   O801    1.294   .     A
C775   C780    1.447   .     S
C775   O799    1.293   .     A
C776   O802    1.294   .     A
C776   C779    1.450   .     S
C776   O800    1.296   .     A
C777   C779    1.409   .     A
C777   O803    1.386   .     S
C777   C787    1.411   .     A
C778   C780    1.410   .     A
C778   O805    1.386   .     S
C778   C788    1.414   .     A
C779   C781    1.395   .     A
C780   C782    1.393   .     A
C781   C783    1.409   .     A
C781   O807    1.381   .     S
C782   O809    1.383   .     S
C782   C784    1.406   .     A
C783   C785    1.417   .     A
C783   C789    1.414   .     A
C784   C786    1.415   .     A
C784   C790    1.411   .     A
C785   C787    1.423   .     A
C785   C850    1.410   .     S
C786   C788    1.422   .     A
C786   C849    1.410   1_455 S
C789   O811    1.385   .     S
C789   C835    1.409   .     S
C790   O816    1.386   .     S
C790   C836    1.405   1_455 S
Cu791  O795    1.965   .     S
Cu791  O802    1.954   .     S
Cu791  Cu792   2.697   .     S
Cu791  O798    1.958   .     S
Cu791  N794    2.026   .     S
Cu791  O799    1.962   .     S
Cu792  O800    1.962   .     S
Cu792  N793    2.026   .     S
Cu792  O801    1.954   .     S
Cu792  O797    1.958   .     S
Cu792  O796    1.965   .     S
N794   N25     1.294   1_556 S
N794   O63     1.338   1_556 S
O803   H804    0.990   .     S
O805   H806    0.989   .     S
O807   H808    0.992   .     S
O809   H810    0.991   .     S
O811   C812    1.411   .     S
C812   H815    1.113   .     S
C812   H1069   1.109   1_545 S
C812   H1070   1.113   1_545 S
H813   C940    1.109   .     S
H814   C940    1.113   .     S
O816   C49     1.413   1_556 S
C817   H820    1.114   .     S
C817   H818    1.109   .     S
H819   C49     1.112   1_556 S
O821   H1078   0.988   1_545 S
H822   O949    0.988   .     S
O823   H824    0.990   .     S
O825   C901    1.389   .     S
O825   H954    0.991   .     S
H826   O1081   0.991   1_545 S
O827   C1030   1.389   1_545 S
O827   H1084   0.991   1_545 S
H828   O955    0.991   .     S
O829   N25     1.338   1_556 S
O829   H62     0.990   1_556 S
H832   O63     0.990   1_556 S
C833   O861    1.291   .     A
C833   C837    1.438   .     S
C833   O859    1.291   .     A
C834   O862    1.291   .     A
C834   C838    1.437   .     S
C834   O860    1.291   .     A
C835   O885    1.384   .     S
C835   C852    1.416   .     A
C836   O887    1.384   .     S
C836   C851    1.417   .     A
C836   C790    1.405   1_655 S
C837   C1094   1.346   1_545 S
C837   O1145   1.389   1_545 S
C838   C965    1.346   .     S
C838   O1019   1.389   .     S
C839   O865    1.294   .     A
C839   C844    1.447   .     S
C839   O863    1.293   .     A
C840   O866    1.294   .     A
C840   C843    1.450   .     S
C840   O864    1.296   .     A
C841   C843    1.409   .     A
C841   O867    1.386   .     S
C841   C851    1.411   .     A
C842   C844    1.410   .     A
C842   O869    1.386   .     S
C842   C852    1.414   .     A
C843   C845    1.395   .     A
C844   C846    1.393   .     A
C845   C847    1.409   .     A
C845   O871    1.381   .     S
C846   O873    1.383   .     S
C846   C848    1.406   .     A
C847   C849    1.417   .     A
C847   C853    1.414   .     A
C848   C850    1.415   .     A
C848   C854    1.411   .     A
C849   C851    1.423   .     A
C849   C786    1.410   1_655 S
C850   C852    1.422   .     A
C853   O875    1.385   .     S
C853   C771    1.409   1_655 S
C854   O880    1.386   .     S
Cu855  O859    1.965   .     S
Cu855  O866    1.954   .     S
Cu855  Cu856   2.697   .     S
Cu855  O862    1.958   .     S
Cu855  N858    2.026   .     S
Cu855  O863    1.962   .     S
Cu856  O864    1.962   .     S
Cu856  N857    2.026   .     S
Cu856  O865    1.954   .     S
Cu856  O861    1.958   .     S
Cu856  O860    1.965   .     S
N858   N89     1.294   1_556 S
N858   O127    1.338   1_556 S
O867   H868    0.990   .     S
O869   H870    0.989   .     S
O871   H872    0.992   .     S
O873   H874    0.991   .     S
O875   C876    1.411   .     S
C876   H879    1.113   .     S
C876   H1133   1.109   1_545 S
C876   H1134   1.113   1_545 S
H877   C1004   1.109   .     S
H878   C1004   1.113   .     S
O880   C113    1.413   1_556 S
C881   H884    1.114   .     S
C881   H882    1.109   .     S
H883   C113    1.112   1_556 S
O885   H1142   0.988   1_545 S
H886   O1013   0.988   .     S
O887   H888    0.990   .     S
O889   C965    1.389   .     S
O889   H1018   0.991   .     S
H890   O1145   0.991   1_545 S
O891   C1094   1.389   1_545 S
O891   H1148   0.991   1_545 S
H892   O1019   0.991   .     S
O893   N89     1.338   1_556 S
O893   H126    0.990   1_556 S
H896   O127    0.990   1_556 S
C897   O925    1.291   .     A
C897   C901    1.438   .     S
C897   O923    1.291   .     A
C898   O926    1.291   .     A
C898   C902    1.437   .     S
C898   O924    1.291   .     A
C899   O949    1.384   .     S
C899   C916    1.416   .     A
C899   C981    1.409   1_455 S
C900   O951    1.384   .     S
C900   C915    1.417   .     A
C900   C982    1.405   .     S
C902   C1029   1.346   .     S
C902   O1083   1.389   .     S
C903   O929    1.294   .     A
C903   C908    1.447   .     S
C903   O927    1.293   .     A
C904   O930    1.294   .     A
C904   C907    1.450   .     S
C904   O928    1.296   .     A
C905   C907    1.409   .     A
C905   O931    1.386   .     S
C905   C915    1.411   .     A
C906   C908    1.410   .     A
C906   O933    1.386   .     S
C906   C916    1.414   .     A
C907   C909    1.395   .     A
C908   C910    1.393   .     A
C909   C911    1.409   .     A
C909   O935    1.381   .     S
C910   O937    1.383   .     S
C910   C912    1.406   .     A
C911   C913    1.417   .     A
C911   C917    1.414   .     A
C912   C914    1.415   .     A
C912   C918    1.411   .     A
C913   C915    1.423   .     A
C913   C978    1.410   .     S
C914   C916    1.422   .     A
C914   C977    1.410   1_455 S
C917   O939    1.385   .     S
C917   C963    1.409   .     S
C918   O944    1.386   .     S
C918   C964    1.405   1_455 S
Cu919  O923    1.965   .     S
Cu919  O930    1.954   .     S
Cu919  Cu920   2.697   .     S
Cu919  O926    1.958   .     S
Cu919  N922    2.026   .     S
Cu919  O927    1.962   .     S
Cu920  O928    1.962   .     S
Cu920  N921    2.026   .     S
Cu920  O929    1.954   .     S
Cu920  O925    1.958   .     S
Cu920  O924    1.965   .     S
N922   N153    1.294   1_556 S
N922   O191    1.338   1_556 S
O931   H932    0.990   .     S
O933   H934    0.989   .     S
O935   H936    0.992   .     S
O937   H938    0.991   .     S
O939   C940    1.411   .     S
C940   H943    1.113   .     S
H941   C1068   1.109   .     S
H942   C1068   1.113   .     S
O944   C177    1.413   1_556 S
C945   H948    1.114   .     S
C945   H946    1.109   .     S
H947   C177    1.112   1_556 S
H950   O1077   0.988   .     S
O951   H952    0.990   .     S
O953   C1029   1.389   .     S
O953   H1082   0.991   .     S
H956   O1083   0.991   .     S
O957   N153    1.338   1_556 S
O957   H190    0.990   1_556 S
H960   O191    0.990   1_556 S
C961   O989    1.291   .     A
C961   C965    1.438   .     S
C961   O987    1.291   .     A
C962   O990    1.291   .     A
C962   C966    1.437   .     S
C962   O988    1.291   .     A
C963   O1013   1.384   .     S
C963   C980    1.416   .     A
C964   O1015   1.384   .     S
C964   C979    1.417   .     A
C964   C918    1.405   1_655 S
C966   C1093   1.346   .     S
C966   O1147   1.389   .     S
C967   O993    1.294   .     A
C967   C972    1.447   .     S
C967   O991    1.293   .     A
C968   O994    1.294   .     A
C968   C971    1.450   .     S
C968   O992    1.296   .     A
C969   C971    1.409   .     A
C969   O995    1.386   .     S
C969   C979    1.411   .     A
C970   C972    1.410   .     A
C970   O997    1.386   .     S
C970   C980    1.414   .     A
C971   C973    1.395   .     A
C972   C974    1.393   .     A
C973   C975    1.409   .     A
C973   O999    1.381   .     S
C974   O1001   1.383   .     S
C974   C976    1.406   .     A
C975   C977    1.417   .     A
C975   C981    1.414   .     A
C976   C978    1.415   .     A
C976   C982    1.411   .     A
C977   C979    1.423   .     A
C977   C914    1.410   1_655 S
C978   C980    1.422   .     A
C981   O1003   1.385   .     S
C981   C899    1.409   1_655 S
C982   O1008   1.386   .     S
Cu983  O987    1.965   .     S
Cu983  O994    1.954   .     S
Cu983  Cu984   2.697   .     S
Cu983  O990    1.958   .     S
Cu983  N986    2.026   .     S
Cu983  O991    1.962   .     S
Cu984  O992    1.962   .     S
Cu984  N985    2.026   .     S
Cu984  O993    1.954   .     S
Cu984  O989    1.958   .     S
Cu984  O988    1.965   .     S
N986   N217    1.294   1_556 S
N986   O255    1.338   1_556 S
O995   H996    0.990   .     S
O997   H998    0.989   .     S
O999   H1000   0.992   .     S
O1001  H1002   0.991   .     S
O1003  C1004   1.411   .     S
C1004  H1007   1.113   .     S
H1005  C1132   1.109   .     S
H1006  C1132   1.113   .     S
O1008  C241    1.413   1_556 S
C1009  H1012   1.114   .     S
C1009  H1010   1.109   .     S
H1011  C241    1.112   1_556 S
H1014  O1141   0.988   .     S
O1015  H1016   0.990   .     S
O1017  C1093   1.389   .     S
O1017  H1146   0.991   .     S
H1020  O1147   0.991   .     S
O1021  N217    1.338   1_556 S
O1021  H254    0.990   1_556 S
H1024  O255    0.990   1_556 S
C1025  O1053   1.291   .     A
C1025  C1029   1.438   .     S
C1025  O1051   1.291   .     A
C1026  O1054   1.291   .     A
C1026  C1030   1.437   .     S
C1026  O1052   1.291   .     A
C1027  O1077   1.384   .     S
C1027  C1044   1.416   .     A
C1027  C1109   1.409   1_455 S
C1028  O1079   1.384   .     S
C1028  C1043   1.417   .     A
C1028  C1110   1.405   .     S
C1030  C773    1.346   1_565 S
C1030  O827    1.389   1_565 S
C1031  O1057   1.294   .     A
C1031  C1036   1.447   .     S
C1031  O1055   1.293   .     A
C1032  O1058   1.294   .     A
C1032  C1035   1.450   .     S
C1032  O1056   1.296   .     A
C1033  C1035   1.409   .     A
C1033  O1059   1.386   .     S
C1033  C1043   1.411   .     A
C1034  C1036   1.410   .     A
C1034  O1061   1.386   .     S
C1034  C1044   1.414   .     A
C1035  C1037   1.395   .     A
C1036  C1038   1.393   .     A
C1037  C1039   1.409   .     A
C1037  O1063   1.381   .     S
C1038  O1065   1.383   .     S
C1038  C1040   1.406   .     A
C1039  C1041   1.417   .     A
C1039  C1045   1.414   .     A
C1040  C1042   1.415   .     A
C1040  C1046   1.411   .     A
C1041  C1043   1.423   .     A
C1041  C1106   1.410   .     S
C1042  C1044   1.422   .     A
C1042  C1105   1.410   1_455 S
C1045  O1067   1.385   .     S
C1045  C1091   1.409   .     S
C1046  O1072   1.386   .     S
C1046  C1092   1.405   1_455 S
Cu1047 O1051   1.965   .     S
Cu1047 O1058   1.954   .     S
Cu1047 Cu1048  2.697   .     S
Cu1047 O1054   1.958   .     S
Cu1047 N1050   2.026   .     S
Cu1047 O1055   1.962   .     S
Cu1048 O1056   1.962   .     S
Cu1048 N1049   2.026   .     S
Cu1048 O1057   1.954   .     S
Cu1048 O1053   1.958   .     S
Cu1048 O1052   1.965   .     S
N1050  N281    1.294   1_556 S
N1050  O319    1.338   1_556 S
O1059  H1060   0.990   .     S
O1061  H1062   0.989   .     S
O1063  H1064   0.992   .     S
O1065  H1066   0.991   .     S
O1067  C1068   1.411   .     S
C1068  H1071   1.113   .     S
H1069  C812    1.109   1_565 S
H1070  C812    1.113   1_565 S
O1072  C305    1.413   1_556 S
C1073  H1076   1.114   .     S
C1073  H1074   1.109   .     S
H1075  C305    1.112   1_556 S
H1078  O821    0.988   1_565 S
O1079  H1080   0.990   .     S
O1081  C773    1.389   1_565 S
O1081  H826    0.991   1_565 S
H1084  O827    0.991   1_565 S
O1085  N281    1.338   1_556 S
O1085  H318    0.990   1_556 S
H1088  O319    0.990   1_556 S
C1089  O1117   1.291   .     A
C1089  C1093   1.438   .     S
C1089  O1115   1.291   .     A
C1090  O1118   1.291   .     A
C1090  C1094   1.437   .     S
C1090  O1116   1.291   .     A
C1091  O1141   1.384   .     S
C1091  C1108   1.416   .     A
C1092  O1143   1.384   .     S
C1092  C1107   1.417   .     A
C1092  C1046   1.405   1_655 S
C1094  C837    1.346   1_565 S
C1094  O891    1.389   1_565 S
C1095  O1121   1.294   .     A
C1095  C1100   1.447   .     S
C1095  O1119   1.293   .     A
C1096  O1122   1.294   .     A
C1096  C1099   1.450   .     S
C1096  O1120   1.296   .     A
C1097  C1099   1.409   .     A
C1097  O1123   1.386   .     S
C1097  C1107   1.411   .     A
C1098  C1100   1.410   .     A
C1098  O1125   1.386   .     S
C1098  C1108   1.414   .     A
C1099  C1101   1.395   .     A
C1100  C1102   1.393   .     A
C1101  C1103   1.409   .     A
C1101  O1127   1.381   .     S
C1102  O1129   1.383   .     S
C1102  C1104   1.406   .     A
C1103  C1105   1.417   .     A
C1103  C1109   1.414   .     A
C1104  C1106   1.415   .     A
C1104  C1110   1.411   .     A
C1105  C1107   1.423   .     A
C1105  C1042   1.410   1_655 S
C1106  C1108   1.422   .     A
C1109  O1131   1.385   .     S
C1109  C1027   1.409   1_655 S
C1110  O1136   1.386   .     S
Cu1111 O1115   1.965   .     S
Cu1111 O1122   1.954   .     S
Cu1111 Cu1112  2.697   .     S
Cu1111 O1118   1.958   .     S
Cu1111 N1114   2.026   .     S
Cu1111 O1119   1.962   .     S
Cu1112 O1120   1.962   .     S
Cu1112 N1113   2.026   .     S
Cu1112 O1121   1.954   .     S
Cu1112 O1117   1.958   .     S
Cu1112 O1116   1.965   .     S
N1114  N345    1.294   1_556 S
N1114  O383    1.338   1_556 S
O1123  H1124   0.990   .     S
O1125  H1126   0.989   .     S
O1127  H1128   0.992   .     S
O1129  H1130   0.991   .     S
O1131  C1132   1.411   .     S
C1132  H1135   1.113   .     S
H1133  C876    1.109   1_565 S
H1134  C876    1.113   1_565 S
O1136  C369    1.413   1_556 S
C1137  H1140   1.114   .     S
C1137  H1138   1.109   .     S
H1139  C369    1.112   1_556 S
H1142  O885    0.988   1_565 S
O1143  H1144   0.990   .     S
O1145  C837    1.389   1_565 S
O1145  H890    0.991   1_565 S
H1148  O891    0.991   1_565 S
O1149  N345    1.338   1_556 S
O1149  H382    0.990   1_556 S
H1152  O383    0.990   1_556 S
