data_str_m2_o1_o2_pcu_sym.42
_audit_creation_date              2020-01-03
_audit_creation_method            'Materials Studio'
_symmetry_space_group_name_H-M    'P1'
_symmetry_Int_Tables_number       1
_symmetry_cell_setting            triclinic
loop_
_symmetry_equiv_pos_as_xyz
  x,y,z
_cell_length_a                    32.7513
_cell_length_b                    28.4549
_cell_length_c                    30.2159
_cell_angle_alpha                 89.9143
_cell_angle_beta                  90.2948
_cell_angle_gamma                 89.9807
loop_
_atom_site_label
_atom_site_type_symbol
_atom_site_fract_x
_atom_site_fract_y
_atom_site_fract_z
_atom_site_U_iso_or_equiv
_atom_site_adp_type
_atom_site_occupancy
C1     C     0.08748   0.16669   0.24986   0.00000  Uiso   1.00
C2     C     0.31345   0.20937   0.25688   0.00000  Uiso   1.00
C3     C     0.31344   0.12441   0.24272   0.00000  Uiso   1.00
C4     C     0.02144   0.20504   0.26830   0.00000  Uiso   1.00
C5     C     0.14097   0.19524   0.04642   0.00000  Uiso   1.00
C6     C     0.14132   0.13680   0.45307   0.00000  Uiso   1.00
C7     C     0.19666   0.19431   0.45261   0.00000  Uiso   1.00
C8     C     0.19647   0.13790   0.04793   0.00000  Uiso   1.00
C9     C     0.14004   0.19525   0.09266   0.00000  Uiso   1.00
C10    C     0.14049   0.13706   0.40681   0.00000  Uiso   1.00
C11    C     0.19641   0.19413   0.40634   0.00000  Uiso   1.00
C12    C     0.24619   0.16669   0.25005   0.00000  Uiso   1.00
C13    C     0.19613   0.13835   0.09421   0.00000  Uiso   1.00
C14    C     0.16766   0.16677   0.11664   0.00000  Uiso   1.00
C15    C     0.16784   0.16612   0.38337   0.00000  Uiso   1.00
C16    C     0.16897   0.16639   0.02424   0.00000  Uiso   1.00
C17    C     0.16910   0.16572   0.47579   0.00000  Uiso   1.00
C18    C     0.29116   0.16683   0.24988   0.00000  Uiso   1.00
C19    C     0.04308   0.16684   0.24968   0.00000  Uiso   1.00
C20    C     0.03966   0.09412   0.19807   0.00000  Uiso   1.00
C21    C     0.05674   0.11886   0.15723   0.00000  Uiso   1.00
C22    C     0.29610   0.25874   0.24950   0.00000  Uiso   1.00
C23    C     0.16694   0.16671   0.16496   0.00000  Uiso   1.00
C24    C     0.28481   0.26712   0.20087   0.00000  Uiso   1.00
C25    C     0.29698   0.07515   0.25237   0.00000  Uiso   1.00
C26    C     0.28851   0.06881   0.30177   0.00000  Uiso   1.00
C27    C     0.04026   0.23891   0.30202   0.00000  Uiso   1.00
C28    C     0.05681   0.21315   0.34276   0.00000  Uiso   1.00
C29    C     0.16708   0.16656   0.33504   0.00000  Uiso   1.00
C30    C     0.14664   0.02489   0.21763   0.00000  Uiso   1.00
C31    C     0.18672   0.30847   0.28232   0.00000  Uiso   1.00
C32    C     0.18649   0.02477   0.28248   0.00000  Uiso   1.00
C33    C     0.14643   0.30857   0.21780   0.00000  Uiso   1.00
C34    C     0.02119   0.12875   0.23104   0.00000  Uiso   1.00
Cl35   Cl    0.10679   0.23128   0.01605   0.00000  Uiso   1.00
Cl36   Cl    0.10732   0.10032   0.48279   0.00000  Uiso   1.00
Cl37   Cl    0.23157   0.23042   0.48174   0.00000  Uiso   1.00
Cl38   Cl    0.23141   0.10156   0.01947   0.00000  Uiso   1.00
Cl39   Cl    0.10286   0.22962   0.11996   0.00000  Uiso   1.00
Cl40   Cl    0.10416   0.10173   0.37876   0.00000  Uiso   1.00
Cl41   Cl    0.23373   0.22699   0.37756   0.00000  Uiso   1.00
Cl42   Cl    0.23281   0.10475   0.12373   0.00000  Uiso   1.00
Cu43   Cu    0.16667   0.21355   0.25000   0.00000  Uiso   1.00
Cu44   Cu    0.16667   0.11978   0.25000   0.00000  Uiso   1.00
H45    H     0.13071   0.04365   0.19163   0.00000  Uiso   1.00
H46    H     0.26362   0.24012   0.18776   0.00000  Uiso   1.00
H47    H     0.27010   0.30211   0.19733   0.00000  Uiso   1.00
H48    H     0.31286   0.26663   0.18036   0.00000  Uiso   1.00
H49    H     0.27036   0.26621   0.27204   0.00000  Uiso   1.00
H50    H     0.31894   0.28641   0.25690   0.00000  Uiso   1.00
H51    H     0.31714   0.07403   0.32104   0.00000  Uiso   1.00
H52    H     0.26541   0.09409   0.31392   0.00000  Uiso   1.00
H53    H     0.27741   0.03255   0.30798   0.00000  Uiso   1.00
H54    H     0.27016   0.06626   0.23152   0.00000  Uiso   1.00
H55    H     0.31976   0.04754   0.24474   0.00000  Uiso   1.00
H56    H     0.20285   0.28978   0.30815   0.00000  Uiso   1.00
H57    H     0.08298   0.19046   0.33425   0.00000  Uiso   1.00
H58    H     0.06745   0.23912   0.36769   0.00000  Uiso   1.00
H59    H     0.03247   0.19121   0.35779   0.00000  Uiso   1.00
H60    H     0.06416   0.26121   0.28685   0.00000  Uiso   1.00
H61    H     0.01698   0.26337   0.31530   0.00000  Uiso   1.00
H62    H     0.20205   0.04345   0.30869   0.00000  Uiso   1.00
H63    H     0.13005   0.28993   0.19219   0.00000  Uiso   1.00
H64    H     0.03275   0.14094   0.14143   0.00000  Uiso   1.00
H65    H     0.08316   0.14122   0.16582   0.00000  Uiso   1.00
H66    H     0.06714   0.09224   0.13292   0.00000  Uiso   1.00
H67    H     0.06310   0.07169   0.21408   0.00000  Uiso   1.00
H68    H     0.01604   0.06987   0.18487   0.00000  Uiso   1.00
N69    N     0.16667   0.28402   0.25000   0.00000  Uiso   1.00
N70    N     0.16667   0.04931   0.25000   0.00000  Uiso   1.00
O71    O     0.10655   0.20625   0.24999   0.00000  Uiso   1.00
O72    O     0.22679   0.12709   0.25000   0.00000  Uiso   1.00
O73    O     0.22679   0.20625   0.25000   0.00000  Uiso   1.00
O74    O     0.10655   0.12709   0.24999   0.00000  Uiso   1.00
O75    O     0.16666   0.20626   0.18573   0.00000  Uiso   1.00
O76    O     0.16667   0.12707   0.31427   0.00000  Uiso   1.00
O77    O     0.16667   0.20626   0.31427   0.00000  Uiso   1.00
O78    O     0.16666   0.12707   0.18573   0.00000  Uiso   1.00
C79    C     0.42081   0.16669   0.24986   0.00000  Uiso   1.00
C80    C     0.64679   0.20937   0.25688   0.00000  Uiso   1.00
C81    C     0.64677   0.12441   0.24272   0.00000  Uiso   1.00
C82    C     0.35477   0.20504   0.26830   0.00000  Uiso   1.00
C83    C     0.47430   0.19524   0.04642   0.00000  Uiso   1.00
C84    C     0.47465   0.13680   0.45307   0.00000  Uiso   1.00
C85    C     0.52999   0.19431   0.45261   0.00000  Uiso   1.00
C86    C     0.52980   0.13790   0.04793   0.00000  Uiso   1.00
C87    C     0.47338   0.19525   0.09266   0.00000  Uiso   1.00
C88    C     0.47383   0.13706   0.40681   0.00000  Uiso   1.00
C89    C     0.52975   0.19413   0.40634   0.00000  Uiso   1.00
C90    C     0.57952   0.16669   0.25005   0.00000  Uiso   1.00
C91    C     0.52946   0.13835   0.09421   0.00000  Uiso   1.00
C92    C     0.50100   0.16677   0.11664   0.00000  Uiso   1.00
C93    C     0.50117   0.16612   0.38337   0.00000  Uiso   1.00
C94    C     0.50230   0.16639   0.02424   0.00000  Uiso   1.00
C95    C     0.50243   0.16572   0.47579   0.00000  Uiso   1.00
C96    C     0.62450   0.16683   0.24988   0.00000  Uiso   1.00
C97    C     0.37641   0.16684   0.24968   0.00000  Uiso   1.00
C98    C     0.37300   0.09412   0.19807   0.00000  Uiso   1.00
C99    C     0.39007   0.11886   0.15723   0.00000  Uiso   1.00
C100   C     0.62943   0.25874   0.24950   0.00000  Uiso   1.00
C101   C     0.50027   0.16671   0.16496   0.00000  Uiso   1.00
C102   C     0.61814   0.26712   0.20087   0.00000  Uiso   1.00
C103   C     0.63032   0.07515   0.25237   0.00000  Uiso   1.00
C104   C     0.62185   0.06881   0.30177   0.00000  Uiso   1.00
C105   C     0.37359   0.23891   0.30202   0.00000  Uiso   1.00
C106   C     0.39015   0.21315   0.34276   0.00000  Uiso   1.00
C107   C     0.50041   0.16656   0.33504   0.00000  Uiso   1.00
C108   C     0.47998   0.02489   0.21763   0.00000  Uiso   1.00
C109   C     0.52005   0.30847   0.28232   0.00000  Uiso   1.00
C110   C     0.51983   0.02477   0.28248   0.00000  Uiso   1.00
C111   C     0.47976   0.30857   0.21780   0.00000  Uiso   1.00
C112   C     0.35453   0.12875   0.23104   0.00000  Uiso   1.00
Cl113  Cl    0.44012   0.23128   0.01605   0.00000  Uiso   1.00
Cl114  Cl    0.44065   0.10032   0.48279   0.00000  Uiso   1.00
Cl115  Cl    0.56490   0.23042   0.48174   0.00000  Uiso   1.00
Cl116  Cl    0.56474   0.10156   0.01947   0.00000  Uiso   1.00
Cl117  Cl    0.43619   0.22962   0.11996   0.00000  Uiso   1.00
Cl118  Cl    0.43749   0.10173   0.37876   0.00000  Uiso   1.00
Cl119  Cl    0.56707   0.22699   0.37756   0.00000  Uiso   1.00
Cl120  Cl    0.56614   0.10475   0.12373   0.00000  Uiso   1.00
Cu121  Cu    0.50000   0.21355   0.25000   0.00000  Uiso   1.00
Cu122  Cu    0.50000   0.11978   0.25000   0.00000  Uiso   1.00
H123   H     0.46404   0.04365   0.19163   0.00000  Uiso   1.00
H124   H     0.59695   0.24012   0.18776   0.00000  Uiso   1.00
H125   H     0.60343   0.30211   0.19733   0.00000  Uiso   1.00
H126   H     0.64620   0.26663   0.18036   0.00000  Uiso   1.00
H127   H     0.60369   0.26621   0.27204   0.00000  Uiso   1.00
H128   H     0.65227   0.28641   0.25690   0.00000  Uiso   1.00
H129   H     0.65047   0.07403   0.32104   0.00000  Uiso   1.00
H130   H     0.59874   0.09409   0.31392   0.00000  Uiso   1.00
H131   H     0.61074   0.03255   0.30798   0.00000  Uiso   1.00
H132   H     0.60350   0.06626   0.23152   0.00000  Uiso   1.00
H133   H     0.65309   0.04754   0.24474   0.00000  Uiso   1.00
H134   H     0.53618   0.28978   0.30815   0.00000  Uiso   1.00
H135   H     0.41632   0.19046   0.33425   0.00000  Uiso   1.00
H136   H     0.40078   0.23912   0.36769   0.00000  Uiso   1.00
H137   H     0.36580   0.19121   0.35779   0.00000  Uiso   1.00
H138   H     0.39749   0.26121   0.28685   0.00000  Uiso   1.00
H139   H     0.35032   0.26337   0.31530   0.00000  Uiso   1.00
H140   H     0.53539   0.04345   0.30869   0.00000  Uiso   1.00
H141   H     0.46338   0.28993   0.19219   0.00000  Uiso   1.00
H142   H     0.36609   0.14094   0.14143   0.00000  Uiso   1.00
H143   H     0.41649   0.14122   0.16582   0.00000  Uiso   1.00
H144   H     0.40048   0.09224   0.13292   0.00000  Uiso   1.00
H145   H     0.39644   0.07169   0.21408   0.00000  Uiso   1.00
H146   H     0.34937   0.06987   0.18487   0.00000  Uiso   1.00
N147   N     0.50000   0.28402   0.25000   0.00000  Uiso   1.00
N148   N     0.50000   0.04931   0.25000   0.00000  Uiso   1.00
O149   O     0.43988   0.20625   0.24999   0.00000  Uiso   1.00
O150   O     0.56012   0.12709   0.25000   0.00000  Uiso   1.00
O151   O     0.56012   0.20625   0.25000   0.00000  Uiso   1.00
O152   O     0.43988   0.12709   0.24999   0.00000  Uiso   1.00
O153   O     0.50000   0.20626   0.18573   0.00000  Uiso   1.00
O154   O     0.50000   0.12707   0.31427   0.00000  Uiso   1.00
O155   O     0.50000   0.20626   0.31427   0.00000  Uiso   1.00
O156   O     0.50000   0.12707   0.18573   0.00000  Uiso   1.00
C157   C     0.75414   0.16669   0.24986   0.00000  Uiso   1.00
C158   C     0.98012   0.20937   0.25688   0.00000  Uiso   1.00
C159   C     0.98010   0.12441   0.24272   0.00000  Uiso   1.00
C160   C     0.68811   0.20504   0.26830   0.00000  Uiso   1.00
C161   C     0.80764   0.19524   0.04642   0.00000  Uiso   1.00
C162   C     0.80798   0.13680   0.45307   0.00000  Uiso   1.00
C163   C     0.86332   0.19431   0.45261   0.00000  Uiso   1.00
C164   C     0.86314   0.13790   0.04793   0.00000  Uiso   1.00
C165   C     0.80671   0.19525   0.09266   0.00000  Uiso   1.00
C166   C     0.80716   0.13706   0.40681   0.00000  Uiso   1.00
C167   C     0.86308   0.19413   0.40634   0.00000  Uiso   1.00
C168   C     0.91285   0.16669   0.25005   0.00000  Uiso   1.00
C169   C     0.86279   0.13835   0.09421   0.00000  Uiso   1.00
C170   C     0.83433   0.16677   0.11664   0.00000  Uiso   1.00
C171   C     0.83450   0.16612   0.38337   0.00000  Uiso   1.00
C172   C     0.83563   0.16639   0.02424   0.00000  Uiso   1.00
C173   C     0.83577   0.16572   0.47579   0.00000  Uiso   1.00
C174   C     0.95783   0.16683   0.24988   0.00000  Uiso   1.00
C175   C     0.70975   0.16684   0.24968   0.00000  Uiso   1.00
C176   C     0.70633   0.09412   0.19807   0.00000  Uiso   1.00
C177   C     0.72340   0.11886   0.15723   0.00000  Uiso   1.00
C178   C     0.96277   0.25874   0.24950   0.00000  Uiso   1.00
C179   C     0.83360   0.16671   0.16496   0.00000  Uiso   1.00
C180   C     0.95148   0.26712   0.20087   0.00000  Uiso   1.00
C181   C     0.96365   0.07515   0.25237   0.00000  Uiso   1.00
C182   C     0.95518   0.06881   0.30177   0.00000  Uiso   1.00
C183   C     0.70693   0.23891   0.30202   0.00000  Uiso   1.00
C184   C     0.72348   0.21315   0.34276   0.00000  Uiso   1.00
C185   C     0.83375   0.16656   0.33504   0.00000  Uiso   1.00
C186   C     0.81331   0.02489   0.21763   0.00000  Uiso   1.00
C187   C     0.85339   0.30847   0.28232   0.00000  Uiso   1.00
C188   C     0.85316   0.02477   0.28248   0.00000  Uiso   1.00
C189   C     0.81310   0.30857   0.21780   0.00000  Uiso   1.00
C190   C     0.68786   0.12875   0.23104   0.00000  Uiso   1.00
Cl191  Cl    0.77346   0.23128   0.01605   0.00000  Uiso   1.00
Cl192  Cl    0.77399   0.10032   0.48279   0.00000  Uiso   1.00
Cl193  Cl    0.89823   0.23042   0.48174   0.00000  Uiso   1.00
Cl194  Cl    0.89807   0.10156   0.01947   0.00000  Uiso   1.00
Cl195  Cl    0.76953   0.22962   0.11996   0.00000  Uiso   1.00
Cl196  Cl    0.77082   0.10173   0.37876   0.00000  Uiso   1.00
Cl197  Cl    0.90040   0.22699   0.37756   0.00000  Uiso   1.00
Cl198  Cl    0.89948   0.10475   0.12373   0.00000  Uiso   1.00
Cu199  Cu    0.83333   0.21355   0.25000   0.00000  Uiso   1.00
Cu200  Cu    0.83333   0.11978   0.25000   0.00000  Uiso   1.00
H201   H     0.79738   0.04365   0.19163   0.00000  Uiso   1.00
H202   H     0.93029   0.24012   0.18776   0.00000  Uiso   1.00
H203   H     0.93677   0.30211   0.19733   0.00000  Uiso   1.00
H204   H     0.97953   0.26663   0.18036   0.00000  Uiso   1.00
H205   H     0.93703   0.26621   0.27204   0.00000  Uiso   1.00
H206   H     0.98560   0.28641   0.25690   0.00000  Uiso   1.00
H207   H     0.98381   0.07403   0.32104   0.00000  Uiso   1.00
H208   H     0.93207   0.09409   0.31392   0.00000  Uiso   1.00
H209   H     0.94407   0.03255   0.30798   0.00000  Uiso   1.00
H210   H     0.93683   0.06626   0.23152   0.00000  Uiso   1.00
H211   H     0.98642   0.04754   0.24474   0.00000  Uiso   1.00
H212   H     0.86952   0.28978   0.30815   0.00000  Uiso   1.00
H213   H     0.74965   0.19046   0.33425   0.00000  Uiso   1.00
H214   H     0.73411   0.23912   0.36769   0.00000  Uiso   1.00
H215   H     0.69914   0.19121   0.35779   0.00000  Uiso   1.00
H216   H     0.73082   0.26121   0.28685   0.00000  Uiso   1.00
H217   H     0.68365   0.26337   0.31530   0.00000  Uiso   1.00
H218   H     0.86872   0.04345   0.30869   0.00000  Uiso   1.00
H219   H     0.79671   0.28993   0.19219   0.00000  Uiso   1.00
H220   H     0.69942   0.14094   0.14143   0.00000  Uiso   1.00
H221   H     0.74983   0.14122   0.16582   0.00000  Uiso   1.00
H222   H     0.73381   0.09224   0.13292   0.00000  Uiso   1.00
H223   H     0.72977   0.07169   0.21408   0.00000  Uiso   1.00
H224   H     0.68271   0.06987   0.18487   0.00000  Uiso   1.00
N225   N     0.83333   0.28402   0.25000   0.00000  Uiso   1.00
N226   N     0.83333   0.04931   0.25000   0.00000  Uiso   1.00
O227   O     0.77321   0.20625   0.24999   0.00000  Uiso   1.00
O228   O     0.89345   0.12709   0.25000   0.00000  Uiso   1.00
O229   O     0.89345   0.20625   0.25000   0.00000  Uiso   1.00
O230   O     0.77321   0.12709   0.24999   0.00000  Uiso   1.00
O231   O     0.83333   0.20626   0.18573   0.00000  Uiso   1.00
O232   O     0.83334   0.12707   0.31427   0.00000  Uiso   1.00
O233   O     0.83334   0.20626   0.31427   0.00000  Uiso   1.00
O234   O     0.83333   0.12707   0.18573   0.00000  Uiso   1.00
C235   C     0.08748   0.50003   0.24986   0.00000  Uiso   1.00
C236   C     0.31345   0.54271   0.25688   0.00000  Uiso   1.00
C237   C     0.31344   0.45774   0.24272   0.00000  Uiso   1.00
C238   C     0.02144   0.53837   0.26830   0.00000  Uiso   1.00
C239   C     0.14097   0.52857   0.04642   0.00000  Uiso   1.00
C240   C     0.14132   0.47014   0.45307   0.00000  Uiso   1.00
C241   C     0.19666   0.52765   0.45261   0.00000  Uiso   1.00
C242   C     0.19647   0.47124   0.04793   0.00000  Uiso   1.00
C243   C     0.14004   0.52858   0.09266   0.00000  Uiso   1.00
C244   C     0.14049   0.47039   0.40681   0.00000  Uiso   1.00
C245   C     0.19641   0.52746   0.40634   0.00000  Uiso   1.00
C246   C     0.24619   0.50002   0.25005   0.00000  Uiso   1.00
C247   C     0.19613   0.47168   0.09421   0.00000  Uiso   1.00
C248   C     0.16766   0.50011   0.11664   0.00000  Uiso   1.00
C249   C     0.16784   0.49945   0.38337   0.00000  Uiso   1.00
C250   C     0.16897   0.49972   0.02424   0.00000  Uiso   1.00
C251   C     0.16910   0.49905   0.47579   0.00000  Uiso   1.00
C252   C     0.29116   0.50017   0.24988   0.00000  Uiso   1.00
C253   C     0.04308   0.50017   0.24968   0.00000  Uiso   1.00
C254   C     0.03966   0.42746   0.19807   0.00000  Uiso   1.00
C255   C     0.05674   0.45219   0.15723   0.00000  Uiso   1.00
C256   C     0.29610   0.59207   0.24950   0.00000  Uiso   1.00
C257   C     0.16694   0.50005   0.16496   0.00000  Uiso   1.00
C258   C     0.28481   0.60045   0.20087   0.00000  Uiso   1.00
C259   C     0.29698   0.40849   0.25237   0.00000  Uiso   1.00
C260   C     0.28851   0.40215   0.30177   0.00000  Uiso   1.00
C261   C     0.04026   0.57224   0.30202   0.00000  Uiso   1.00
C262   C     0.05681   0.54649   0.34276   0.00000  Uiso   1.00
C263   C     0.16708   0.49989   0.33504   0.00000  Uiso   1.00
C264   C     0.14664   0.35823   0.21763   0.00000  Uiso   1.00
C265   C     0.18672   0.64181   0.28232   0.00000  Uiso   1.00
C266   C     0.18649   0.35811   0.28248   0.00000  Uiso   1.00
C267   C     0.14643   0.64191   0.21780   0.00000  Uiso   1.00
C268   C     0.02119   0.46208   0.23104   0.00000  Uiso   1.00
Cl269  Cl    0.10679   0.56462   0.01605   0.00000  Uiso   1.00
Cl270  Cl    0.10732   0.43365   0.48279   0.00000  Uiso   1.00
Cl271  Cl    0.23157   0.56376   0.48174   0.00000  Uiso   1.00
Cl272  Cl    0.23141   0.43490   0.01947   0.00000  Uiso   1.00
Cl273  Cl    0.10286   0.56296   0.11996   0.00000  Uiso   1.00
Cl274  Cl    0.10416   0.43507   0.37876   0.00000  Uiso   1.00
Cl275  Cl    0.23373   0.56032   0.37756   0.00000  Uiso   1.00
Cl276  Cl    0.23281   0.43808   0.12373   0.00000  Uiso   1.00
Cu277  Cu    0.16667   0.54689   0.25000   0.00000  Uiso   1.00
Cu278  Cu    0.16667   0.45311   0.25000   0.00000  Uiso   1.00
H279   H     0.13071   0.37698   0.19163   0.00000  Uiso   1.00
H280   H     0.26362   0.57346   0.18776   0.00000  Uiso   1.00
H281   H     0.27010   0.63544   0.19733   0.00000  Uiso   1.00
H282   H     0.31286   0.59997   0.18036   0.00000  Uiso   1.00
H283   H     0.27036   0.59955   0.27204   0.00000  Uiso   1.00
H284   H     0.31894   0.61974   0.25690   0.00000  Uiso   1.00
H285   H     0.31714   0.40737   0.32104   0.00000  Uiso   1.00
H286   H     0.26541   0.42742   0.31392   0.00000  Uiso   1.00
H287   H     0.27741   0.36588   0.30798   0.00000  Uiso   1.00
H288   H     0.27016   0.39960   0.23152   0.00000  Uiso   1.00
H289   H     0.31976   0.38088   0.24474   0.00000  Uiso   1.00
H290   H     0.20285   0.62311   0.30815   0.00000  Uiso   1.00
H291   H     0.08298   0.52379   0.33425   0.00000  Uiso   1.00
H292   H     0.06745   0.57245   0.36769   0.00000  Uiso   1.00
H293   H     0.03247   0.52455   0.35779   0.00000  Uiso   1.00
H294   H     0.06416   0.59454   0.28685   0.00000  Uiso   1.00
H295   H     0.01698   0.59670   0.31530   0.00000  Uiso   1.00
H296   H     0.20205   0.37678   0.30869   0.00000  Uiso   1.00
H297   H     0.13005   0.62327   0.19219   0.00000  Uiso   1.00
H298   H     0.03275   0.47427   0.14143   0.00000  Uiso   1.00
H299   H     0.08316   0.47455   0.16582   0.00000  Uiso   1.00
H300   H     0.06714   0.42558   0.13292   0.00000  Uiso   1.00
H301   H     0.06310   0.40502   0.21408   0.00000  Uiso   1.00
H302   H     0.01604   0.40321   0.18487   0.00000  Uiso   1.00
N303   N     0.16667   0.61736   0.25000   0.00000  Uiso   1.00
N304   N     0.16667   0.38264   0.25000   0.00000  Uiso   1.00
O305   O     0.10655   0.53958   0.24999   0.00000  Uiso   1.00
O306   O     0.22679   0.46042   0.25000   0.00000  Uiso   1.00
O307   O     0.22679   0.53958   0.25000   0.00000  Uiso   1.00
O308   O     0.10655   0.46042   0.24999   0.00000  Uiso   1.00
O309   O     0.16666   0.53959   0.18573   0.00000  Uiso   1.00
O310   O     0.16667   0.46041   0.31427   0.00000  Uiso   1.00
O311   O     0.16667   0.53959   0.31427   0.00000  Uiso   1.00
O312   O     0.16666   0.46041   0.18573   0.00000  Uiso   1.00
C313   C     0.42081   0.50003   0.24986   0.00000  Uiso   1.00
C314   C     0.64679   0.54271   0.25688   0.00000  Uiso   1.00
C315   C     0.64677   0.45774   0.24272   0.00000  Uiso   1.00
C316   C     0.35477   0.53837   0.26830   0.00000  Uiso   1.00
C317   C     0.47430   0.52857   0.04642   0.00000  Uiso   1.00
C318   C     0.47465   0.47014   0.45307   0.00000  Uiso   1.00
C319   C     0.52999   0.52765   0.45261   0.00000  Uiso   1.00
C320   C     0.52980   0.47124   0.04793   0.00000  Uiso   1.00
C321   C     0.47338   0.52858   0.09266   0.00000  Uiso   1.00
C322   C     0.47383   0.47039   0.40681   0.00000  Uiso   1.00
C323   C     0.52975   0.52746   0.40634   0.00000  Uiso   1.00
C324   C     0.57952   0.50002   0.25005   0.00000  Uiso   1.00
C325   C     0.52946   0.47168   0.09421   0.00000  Uiso   1.00
C326   C     0.50100   0.50011   0.11664   0.00000  Uiso   1.00
C327   C     0.50117   0.49945   0.38337   0.00000  Uiso   1.00
C328   C     0.50230   0.49972   0.02424   0.00000  Uiso   1.00
C329   C     0.50243   0.49905   0.47579   0.00000  Uiso   1.00
C330   C     0.62450   0.50017   0.24988   0.00000  Uiso   1.00
C331   C     0.37641   0.50017   0.24968   0.00000  Uiso   1.00
C332   C     0.37300   0.42746   0.19807   0.00000  Uiso   1.00
C333   C     0.39007   0.45219   0.15723   0.00000  Uiso   1.00
C334   C     0.62943   0.59207   0.24950   0.00000  Uiso   1.00
C335   C     0.50027   0.50005   0.16496   0.00000  Uiso   1.00
C336   C     0.61814   0.60045   0.20087   0.00000  Uiso   1.00
C337   C     0.63032   0.40849   0.25237   0.00000  Uiso   1.00
C338   C     0.62185   0.40215   0.30177   0.00000  Uiso   1.00
C339   C     0.37359   0.57224   0.30202   0.00000  Uiso   1.00
C340   C     0.39015   0.54649   0.34276   0.00000  Uiso   1.00
C341   C     0.50041   0.49989   0.33504   0.00000  Uiso   1.00
C342   C     0.47998   0.35823   0.21763   0.00000  Uiso   1.00
C343   C     0.52005   0.64181   0.28232   0.00000  Uiso   1.00
C344   C     0.51983   0.35811   0.28248   0.00000  Uiso   1.00
C345   C     0.47976   0.64191   0.21780   0.00000  Uiso   1.00
C346   C     0.35453   0.46208   0.23104   0.00000  Uiso   1.00
Cl347  Cl    0.44012   0.56462   0.01605   0.00000  Uiso   1.00
Cl348  Cl    0.44065   0.43365   0.48279   0.00000  Uiso   1.00
Cl349  Cl    0.56490   0.56376   0.48174   0.00000  Uiso   1.00
Cl350  Cl    0.56474   0.43490   0.01947   0.00000  Uiso   1.00
Cl351  Cl    0.43619   0.56296   0.11996   0.00000  Uiso   1.00
Cl352  Cl    0.43749   0.43507   0.37876   0.00000  Uiso   1.00
Cl353  Cl    0.56707   0.56032   0.37756   0.00000  Uiso   1.00
Cl354  Cl    0.56614   0.43808   0.12373   0.00000  Uiso   1.00
Cu355  Cu    0.50000   0.54689   0.25000   0.00000  Uiso   1.00
Cu356  Cu    0.50000   0.45311   0.25000   0.00000  Uiso   1.00
H357   H     0.46404   0.37698   0.19163   0.00000  Uiso   1.00
H358   H     0.59695   0.57346   0.18776   0.00000  Uiso   1.00
H359   H     0.60343   0.63544   0.19733   0.00000  Uiso   1.00
H360   H     0.64620   0.59997   0.18036   0.00000  Uiso   1.00
H361   H     0.60369   0.59955   0.27204   0.00000  Uiso   1.00
H362   H     0.65227   0.61974   0.25690   0.00000  Uiso   1.00
H363   H     0.65047   0.40737   0.32104   0.00000  Uiso   1.00
H364   H     0.59874   0.42742   0.31392   0.00000  Uiso   1.00
H365   H     0.61074   0.36588   0.30798   0.00000  Uiso   1.00
H366   H     0.60350   0.39960   0.23152   0.00000  Uiso   1.00
H367   H     0.65309   0.38088   0.24474   0.00000  Uiso   1.00
H368   H     0.53618   0.62311   0.30815   0.00000  Uiso   1.00
H369   H     0.41632   0.52379   0.33425   0.00000  Uiso   1.00
H370   H     0.40078   0.57245   0.36769   0.00000  Uiso   1.00
H371   H     0.36580   0.52455   0.35779   0.00000  Uiso   1.00
H372   H     0.39749   0.59454   0.28685   0.00000  Uiso   1.00
H373   H     0.35032   0.59670   0.31530   0.00000  Uiso   1.00
H374   H     0.53539   0.37678   0.30869   0.00000  Uiso   1.00
H375   H     0.46338   0.62327   0.19219   0.00000  Uiso   1.00
H376   H     0.36609   0.47427   0.14143   0.00000  Uiso   1.00
H377   H     0.41649   0.47455   0.16582   0.00000  Uiso   1.00
H378   H     0.40048   0.42558   0.13292   0.00000  Uiso   1.00
H379   H     0.39644   0.40502   0.21408   0.00000  Uiso   1.00
H380   H     0.34937   0.40321   0.18487   0.00000  Uiso   1.00
N381   N     0.50000   0.61736   0.25000   0.00000  Uiso   1.00
N382   N     0.50000   0.38264   0.25000   0.00000  Uiso   1.00
O383   O     0.43988   0.53958   0.24999   0.00000  Uiso   1.00
O384   O     0.56012   0.46042   0.25000   0.00000  Uiso   1.00
O385   O     0.56012   0.53958   0.25000   0.00000  Uiso   1.00
O386   O     0.43988   0.46042   0.24999   0.00000  Uiso   1.00
O387   O     0.50000   0.53959   0.18573   0.00000  Uiso   1.00
O388   O     0.50000   0.46041   0.31427   0.00000  Uiso   1.00
O389   O     0.50000   0.53959   0.31427   0.00000  Uiso   1.00
O390   O     0.50000   0.46041   0.18573   0.00000  Uiso   1.00
C391   C     0.75414   0.50003   0.24986   0.00000  Uiso   1.00
C392   C     0.98012   0.54271   0.25688   0.00000  Uiso   1.00
C393   C     0.98010   0.45774   0.24272   0.00000  Uiso   1.00
C394   C     0.68811   0.53837   0.26830   0.00000  Uiso   1.00
C395   C     0.80764   0.52857   0.04642   0.00000  Uiso   1.00
C396   C     0.80798   0.47014   0.45307   0.00000  Uiso   1.00
C397   C     0.86332   0.52765   0.45261   0.00000  Uiso   1.00
C398   C     0.86314   0.47124   0.04793   0.00000  Uiso   1.00
C399   C     0.80671   0.52858   0.09266   0.00000  Uiso   1.00
C400   C     0.80716   0.47039   0.40681   0.00000  Uiso   1.00
C401   C     0.86308   0.52746   0.40634   0.00000  Uiso   1.00
C402   C     0.91285   0.50002   0.25005   0.00000  Uiso   1.00
C403   C     0.86279   0.47168   0.09421   0.00000  Uiso   1.00
C404   C     0.83433   0.50011   0.11664   0.00000  Uiso   1.00
C405   C     0.83450   0.49945   0.38337   0.00000  Uiso   1.00
C406   C     0.83563   0.49972   0.02424   0.00000  Uiso   1.00
C407   C     0.83577   0.49905   0.47579   0.00000  Uiso   1.00
C408   C     0.95783   0.50017   0.24988   0.00000  Uiso   1.00
C409   C     0.70975   0.50017   0.24968   0.00000  Uiso   1.00
C410   C     0.70633   0.42746   0.19807   0.00000  Uiso   1.00
C411   C     0.72340   0.45219   0.15723   0.00000  Uiso   1.00
C412   C     0.96277   0.59207   0.24950   0.00000  Uiso   1.00
C413   C     0.83360   0.50005   0.16496   0.00000  Uiso   1.00
C414   C     0.95148   0.60045   0.20087   0.00000  Uiso   1.00
C415   C     0.96365   0.40849   0.25237   0.00000  Uiso   1.00
C416   C     0.95518   0.40215   0.30177   0.00000  Uiso   1.00
C417   C     0.70693   0.57224   0.30202   0.00000  Uiso   1.00
C418   C     0.72348   0.54649   0.34276   0.00000  Uiso   1.00
C419   C     0.83375   0.49989   0.33504   0.00000  Uiso   1.00
C420   C     0.81331   0.35823   0.21763   0.00000  Uiso   1.00
C421   C     0.85339   0.64181   0.28232   0.00000  Uiso   1.00
C422   C     0.85316   0.35811   0.28248   0.00000  Uiso   1.00
C423   C     0.81310   0.64191   0.21780   0.00000  Uiso   1.00
C424   C     0.68786   0.46208   0.23104   0.00000  Uiso   1.00
Cl425  Cl    0.77346   0.56462   0.01605   0.00000  Uiso   1.00
Cl426  Cl    0.77399   0.43365   0.48279   0.00000  Uiso   1.00
Cl427  Cl    0.89823   0.56376   0.48174   0.00000  Uiso   1.00
Cl428  Cl    0.89807   0.43490   0.01947   0.00000  Uiso   1.00
Cl429  Cl    0.76953   0.56296   0.11996   0.00000  Uiso   1.00
Cl430  Cl    0.77082   0.43507   0.37876   0.00000  Uiso   1.00
Cl431  Cl    0.90040   0.56032   0.37756   0.00000  Uiso   1.00
Cl432  Cl    0.89948   0.43808   0.12373   0.00000  Uiso   1.00
Cu433  Cu    0.83333   0.54689   0.25000   0.00000  Uiso   1.00
Cu434  Cu    0.83333   0.45311   0.25000   0.00000  Uiso   1.00
H435   H     0.79738   0.37698   0.19163   0.00000  Uiso   1.00
H436   H     0.93029   0.57346   0.18776   0.00000  Uiso   1.00
H437   H     0.93677   0.63544   0.19733   0.00000  Uiso   1.00
H438   H     0.97953   0.59997   0.18036   0.00000  Uiso   1.00
H439   H     0.93703   0.59955   0.27204   0.00000  Uiso   1.00
H440   H     0.98560   0.61974   0.25690   0.00000  Uiso   1.00
H441   H     0.98381   0.40737   0.32104   0.00000  Uiso   1.00
H442   H     0.93207   0.42742   0.31392   0.00000  Uiso   1.00
H443   H     0.94407   0.36588   0.30798   0.00000  Uiso   1.00
H444   H     0.93683   0.39960   0.23152   0.00000  Uiso   1.00
H445   H     0.98642   0.38088   0.24474   0.00000  Uiso   1.00
H446   H     0.86952   0.62311   0.30815   0.00000  Uiso   1.00
H447   H     0.74965   0.52379   0.33425   0.00000  Uiso   1.00
H448   H     0.73411   0.57245   0.36769   0.00000  Uiso   1.00
H449   H     0.69914   0.52455   0.35779   0.00000  Uiso   1.00
H450   H     0.73082   0.59454   0.28685   0.00000  Uiso   1.00
H451   H     0.68365   0.59670   0.31530   0.00000  Uiso   1.00
H452   H     0.86872   0.37678   0.30869   0.00000  Uiso   1.00
H453   H     0.79671   0.62327   0.19219   0.00000  Uiso   1.00
H454   H     0.69942   0.47427   0.14143   0.00000  Uiso   1.00
H455   H     0.74983   0.47455   0.16582   0.00000  Uiso   1.00
H456   H     0.73381   0.42558   0.13292   0.00000  Uiso   1.00
H457   H     0.72977   0.40502   0.21408   0.00000  Uiso   1.00
H458   H     0.68271   0.40321   0.18487   0.00000  Uiso   1.00
N459   N     0.83333   0.61736   0.25000   0.00000  Uiso   1.00
N460   N     0.83333   0.38264   0.25000   0.00000  Uiso   1.00
O461   O     0.77321   0.53958   0.24999   0.00000  Uiso   1.00
O462   O     0.89345   0.46042   0.25000   0.00000  Uiso   1.00
O463   O     0.89345   0.53958   0.25000   0.00000  Uiso   1.00
O464   O     0.77321   0.46042   0.24999   0.00000  Uiso   1.00
O465   O     0.83333   0.53959   0.18573   0.00000  Uiso   1.00
O466   O     0.83334   0.46041   0.31427   0.00000  Uiso   1.00
O467   O     0.83334   0.53959   0.31427   0.00000  Uiso   1.00
O468   O     0.83333   0.46041   0.18573   0.00000  Uiso   1.00
C469   C     0.08748   0.83336   0.24986   0.00000  Uiso   1.00
C470   C     0.31345   0.87604   0.25688   0.00000  Uiso   1.00
C471   C     0.31344   0.79108   0.24272   0.00000  Uiso   1.00
C472   C     0.02144   0.87170   0.26830   0.00000  Uiso   1.00
C473   C     0.14097   0.86191   0.04642   0.00000  Uiso   1.00
C474   C     0.14132   0.80347   0.45307   0.00000  Uiso   1.00
C475   C     0.19666   0.86098   0.45261   0.00000  Uiso   1.00
C476   C     0.19647   0.80457   0.04793   0.00000  Uiso   1.00
C477   C     0.14004   0.86191   0.09266   0.00000  Uiso   1.00
C478   C     0.14049   0.80373   0.40681   0.00000  Uiso   1.00
C479   C     0.19641   0.86080   0.40634   0.00000  Uiso   1.00
C480   C     0.24619   0.83336   0.25005   0.00000  Uiso   1.00
C481   C     0.19613   0.80502   0.09421   0.00000  Uiso   1.00
C482   C     0.16766   0.83344   0.11664   0.00000  Uiso   1.00
C483   C     0.16784   0.83278   0.38337   0.00000  Uiso   1.00
C484   C     0.16897   0.83306   0.02424   0.00000  Uiso   1.00
C485   C     0.16910   0.83239   0.47579   0.00000  Uiso   1.00
C486   C     0.29116   0.83350   0.24988   0.00000  Uiso   1.00
C487   C     0.04308   0.83350   0.24968   0.00000  Uiso   1.00
C488   C     0.03966   0.76079   0.19807   0.00000  Uiso   1.00
C489   C     0.05674   0.78552   0.15723   0.00000  Uiso   1.00
C490   C     0.29610   0.92541   0.24950   0.00000  Uiso   1.00
C491   C     0.16694   0.83338   0.16496   0.00000  Uiso   1.00
C492   C     0.28481   0.93379   0.20087   0.00000  Uiso   1.00
C493   C     0.29698   0.74182   0.25237   0.00000  Uiso   1.00
C494   C     0.28851   0.73548   0.30177   0.00000  Uiso   1.00
C495   C     0.04026   0.90557   0.30202   0.00000  Uiso   1.00
C496   C     0.05681   0.87982   0.34276   0.00000  Uiso   1.00
C497   C     0.16708   0.83322   0.33504   0.00000  Uiso   1.00
C498   C     0.14664   0.69156   0.21763   0.00000  Uiso   1.00
C499   C     0.18672   0.97514   0.28232   0.00000  Uiso   1.00
C500   C     0.18649   0.69144   0.28248   0.00000  Uiso   1.00
C501   C     0.14643   0.97524   0.21780   0.00000  Uiso   1.00
C502   C     0.02119   0.79541   0.23104   0.00000  Uiso   1.00
Cl503  Cl    0.10679   0.89795   0.01605   0.00000  Uiso   1.00
Cl504  Cl    0.10732   0.76699   0.48279   0.00000  Uiso   1.00
Cl505  Cl    0.23157   0.89709   0.48174   0.00000  Uiso   1.00
Cl506  Cl    0.23141   0.76823   0.01947   0.00000  Uiso   1.00
Cl507  Cl    0.10286   0.89629   0.11996   0.00000  Uiso   1.00
Cl508  Cl    0.10416   0.76840   0.37876   0.00000  Uiso   1.00
Cl509  Cl    0.23373   0.89366   0.37756   0.00000  Uiso   1.00
Cl510  Cl    0.23281   0.77142   0.12373   0.00000  Uiso   1.00
Cu511  Cu    0.16667   0.88022   0.25000   0.00000  Uiso   1.00
Cu512  Cu    0.16667   0.78645   0.25000   0.00000  Uiso   1.00
H513   H     0.13071   0.71031   0.19163   0.00000  Uiso   1.00
H514   H     0.26362   0.90679   0.18776   0.00000  Uiso   1.00
H515   H     0.27010   0.96878   0.19733   0.00000  Uiso   1.00
H516   H     0.31286   0.93330   0.18036   0.00000  Uiso   1.00
H517   H     0.27036   0.93288   0.27204   0.00000  Uiso   1.00
H518   H     0.31894   0.95307   0.25690   0.00000  Uiso   1.00
H519   H     0.31714   0.74070   0.32104   0.00000  Uiso   1.00
H520   H     0.26541   0.76076   0.31392   0.00000  Uiso   1.00
H521   H     0.27741   0.69921   0.30798   0.00000  Uiso   1.00
H522   H     0.27016   0.73293   0.23152   0.00000  Uiso   1.00
H523   H     0.31976   0.71421   0.24474   0.00000  Uiso   1.00
H524   H     0.20285   0.95644   0.30815   0.00000  Uiso   1.00
H525   H     0.08298   0.85712   0.33425   0.00000  Uiso   1.00
H526   H     0.06745   0.90578   0.36769   0.00000  Uiso   1.00
H527   H     0.03247   0.85788   0.35779   0.00000  Uiso   1.00
H528   H     0.06416   0.92788   0.28685   0.00000  Uiso   1.00
H529   H     0.01698   0.93004   0.31530   0.00000  Uiso   1.00
H530   H     0.20205   0.71011   0.30869   0.00000  Uiso   1.00
H531   H     0.13005   0.95660   0.19219   0.00000  Uiso   1.00
H532   H     0.03275   0.80760   0.14143   0.00000  Uiso   1.00
H533   H     0.08316   0.80789   0.16582   0.00000  Uiso   1.00
H534   H     0.06714   0.75891   0.13292   0.00000  Uiso   1.00
H535   H     0.06310   0.73835   0.21408   0.00000  Uiso   1.00
H536   H     0.01604   0.73654   0.18487   0.00000  Uiso   1.00
N537   N     0.16667   0.95069   0.25000   0.00000  Uiso   1.00
N538   N     0.16667   0.71598   0.25000   0.00000  Uiso   1.00
O539   O     0.10655   0.87291   0.24999   0.00000  Uiso   1.00
O540   O     0.22679   0.79375   0.25000   0.00000  Uiso   1.00
O541   O     0.22679   0.87291   0.25000   0.00000  Uiso   1.00
O542   O     0.10655   0.79375   0.24999   0.00000  Uiso   1.00
O543   O     0.16666   0.87293   0.18573   0.00000  Uiso   1.00
O544   O     0.16667   0.79374   0.31427   0.00000  Uiso   1.00
O545   O     0.16667   0.87293   0.31427   0.00000  Uiso   1.00
O546   O     0.16666   0.79374   0.18573   0.00000  Uiso   1.00
C547   C     0.42081   0.83336   0.24986   0.00000  Uiso   1.00
C548   C     0.64679   0.87604   0.25688   0.00000  Uiso   1.00
C549   C     0.64677   0.79108   0.24272   0.00000  Uiso   1.00
C550   C     0.35477   0.87170   0.26830   0.00000  Uiso   1.00
C551   C     0.47430   0.86191   0.04642   0.00000  Uiso   1.00
C552   C     0.47465   0.80347   0.45307   0.00000  Uiso   1.00
C553   C     0.52999   0.86098   0.45261   0.00000  Uiso   1.00
C554   C     0.52980   0.80457   0.04793   0.00000  Uiso   1.00
C555   C     0.47338   0.86191   0.09266   0.00000  Uiso   1.00
C556   C     0.47383   0.80373   0.40681   0.00000  Uiso   1.00
C557   C     0.52975   0.86080   0.40634   0.00000  Uiso   1.00
C558   C     0.57952   0.83336   0.25005   0.00000  Uiso   1.00
C559   C     0.52946   0.80502   0.09421   0.00000  Uiso   1.00
C560   C     0.50100   0.83344   0.11664   0.00000  Uiso   1.00
C561   C     0.50117   0.83278   0.38337   0.00000  Uiso   1.00
C562   C     0.50230   0.83306   0.02424   0.00000  Uiso   1.00
C563   C     0.50243   0.83239   0.47579   0.00000  Uiso   1.00
C564   C     0.62450   0.83350   0.24988   0.00000  Uiso   1.00
C565   C     0.37641   0.83350   0.24968   0.00000  Uiso   1.00
C566   C     0.37300   0.76079   0.19807   0.00000  Uiso   1.00
C567   C     0.39007   0.78552   0.15723   0.00000  Uiso   1.00
C568   C     0.62943   0.92541   0.24950   0.00000  Uiso   1.00
C569   C     0.50027   0.83338   0.16496   0.00000  Uiso   1.00
C570   C     0.61814   0.93379   0.20087   0.00000  Uiso   1.00
C571   C     0.63032   0.74182   0.25237   0.00000  Uiso   1.00
C572   C     0.62185   0.73548   0.30177   0.00000  Uiso   1.00
C573   C     0.37359   0.90557   0.30202   0.00000  Uiso   1.00
C574   C     0.39015   0.87982   0.34276   0.00000  Uiso   1.00
C575   C     0.50041   0.83322   0.33504   0.00000  Uiso   1.00
C576   C     0.47998   0.69156   0.21763   0.00000  Uiso   1.00
C577   C     0.52005   0.97514   0.28232   0.00000  Uiso   1.00
C578   C     0.51983   0.69144   0.28248   0.00000  Uiso   1.00
C579   C     0.47976   0.97524   0.21780   0.00000  Uiso   1.00
C580   C     0.35453   0.79541   0.23104   0.00000  Uiso   1.00
Cl581  Cl    0.44012   0.89795   0.01605   0.00000  Uiso   1.00
Cl582  Cl    0.44065   0.76699   0.48279   0.00000  Uiso   1.00
Cl583  Cl    0.56490   0.89709   0.48174   0.00000  Uiso   1.00
Cl584  Cl    0.56474   0.76823   0.01947   0.00000  Uiso   1.00
Cl585  Cl    0.43619   0.89629   0.11996   0.00000  Uiso   1.00
Cl586  Cl    0.43749   0.76840   0.37876   0.00000  Uiso   1.00
Cl587  Cl    0.56707   0.89366   0.37756   0.00000  Uiso   1.00
Cl588  Cl    0.56614   0.77142   0.12373   0.00000  Uiso   1.00
Cu589  Cu    0.50000   0.88022   0.25000   0.00000  Uiso   1.00
Cu590  Cu    0.50000   0.78645   0.25000   0.00000  Uiso   1.00
H591   H     0.46404   0.71031   0.19163   0.00000  Uiso   1.00
H592   H     0.59695   0.90679   0.18776   0.00000  Uiso   1.00
H593   H     0.60343   0.96878   0.19733   0.00000  Uiso   1.00
H594   H     0.64620   0.93330   0.18036   0.00000  Uiso   1.00
H595   H     0.60369   0.93288   0.27204   0.00000  Uiso   1.00
H596   H     0.65227   0.95307   0.25690   0.00000  Uiso   1.00
H597   H     0.65047   0.74070   0.32104   0.00000  Uiso   1.00
H598   H     0.59874   0.76076   0.31392   0.00000  Uiso   1.00
H599   H     0.61074   0.69921   0.30798   0.00000  Uiso   1.00
H600   H     0.60350   0.73293   0.23152   0.00000  Uiso   1.00
H601   H     0.65309   0.71421   0.24474   0.00000  Uiso   1.00
H602   H     0.53618   0.95644   0.30815   0.00000  Uiso   1.00
H603   H     0.41632   0.85712   0.33425   0.00000  Uiso   1.00
H604   H     0.40078   0.90578   0.36769   0.00000  Uiso   1.00
H605   H     0.36580   0.85788   0.35779   0.00000  Uiso   1.00
H606   H     0.39749   0.92788   0.28685   0.00000  Uiso   1.00
H607   H     0.35032   0.93004   0.31530   0.00000  Uiso   1.00
H608   H     0.53539   0.71011   0.30869   0.00000  Uiso   1.00
H609   H     0.46338   0.95660   0.19219   0.00000  Uiso   1.00
H610   H     0.36609   0.80760   0.14143   0.00000  Uiso   1.00
H611   H     0.41649   0.80789   0.16582   0.00000  Uiso   1.00
H612   H     0.40048   0.75891   0.13292   0.00000  Uiso   1.00
H613   H     0.39644   0.73835   0.21408   0.00000  Uiso   1.00
H614   H     0.34937   0.73654   0.18487   0.00000  Uiso   1.00
N615   N     0.50000   0.95069   0.25000   0.00000  Uiso   1.00
N616   N     0.50000   0.71598   0.25000   0.00000  Uiso   1.00
O617   O     0.43988   0.87291   0.24999   0.00000  Uiso   1.00
O618   O     0.56012   0.79375   0.25000   0.00000  Uiso   1.00
O619   O     0.56012   0.87291   0.25000   0.00000  Uiso   1.00
O620   O     0.43988   0.79375   0.24999   0.00000  Uiso   1.00
O621   O     0.50000   0.87293   0.18573   0.00000  Uiso   1.00
O622   O     0.50000   0.79374   0.31427   0.00000  Uiso   1.00
O623   O     0.50000   0.87293   0.31427   0.00000  Uiso   1.00
O624   O     0.50000   0.79374   0.18573   0.00000  Uiso   1.00
C625   C     0.75414   0.83336   0.24986   0.00000  Uiso   1.00
C626   C     0.98012   0.87604   0.25688   0.00000  Uiso   1.00
C627   C     0.98010   0.79108   0.24272   0.00000  Uiso   1.00
C628   C     0.68811   0.87170   0.26830   0.00000  Uiso   1.00
C629   C     0.80764   0.86191   0.04642   0.00000  Uiso   1.00
C630   C     0.80798   0.80347   0.45307   0.00000  Uiso   1.00
C631   C     0.86332   0.86098   0.45261   0.00000  Uiso   1.00
C632   C     0.86314   0.80457   0.04793   0.00000  Uiso   1.00
C633   C     0.80671   0.86191   0.09266   0.00000  Uiso   1.00
C634   C     0.80716   0.80373   0.40681   0.00000  Uiso   1.00
C635   C     0.86308   0.86080   0.40634   0.00000  Uiso   1.00
C636   C     0.91285   0.83336   0.25005   0.00000  Uiso   1.00
C637   C     0.86279   0.80502   0.09421   0.00000  Uiso   1.00
C638   C     0.83433   0.83344   0.11664   0.00000  Uiso   1.00
C639   C     0.83450   0.83278   0.38337   0.00000  Uiso   1.00
C640   C     0.83563   0.83306   0.02424   0.00000  Uiso   1.00
C641   C     0.83577   0.83239   0.47579   0.00000  Uiso   1.00
C642   C     0.95783   0.83350   0.24988   0.00000  Uiso   1.00
C643   C     0.70975   0.83350   0.24968   0.00000  Uiso   1.00
C644   C     0.70633   0.76079   0.19807   0.00000  Uiso   1.00
C645   C     0.72340   0.78552   0.15723   0.00000  Uiso   1.00
C646   C     0.96277   0.92541   0.24950   0.00000  Uiso   1.00
C647   C     0.83360   0.83338   0.16496   0.00000  Uiso   1.00
C648   C     0.95148   0.93379   0.20087   0.00000  Uiso   1.00
C649   C     0.96365   0.74182   0.25237   0.00000  Uiso   1.00
C650   C     0.95518   0.73548   0.30177   0.00000  Uiso   1.00
C651   C     0.70693   0.90557   0.30202   0.00000  Uiso   1.00
C652   C     0.72348   0.87982   0.34276   0.00000  Uiso   1.00
C653   C     0.83375   0.83322   0.33504   0.00000  Uiso   1.00
C654   C     0.81331   0.69156   0.21763   0.00000  Uiso   1.00
C655   C     0.85339   0.97514   0.28232   0.00000  Uiso   1.00
C656   C     0.85316   0.69144   0.28248   0.00000  Uiso   1.00
C657   C     0.81310   0.97524   0.21780   0.00000  Uiso   1.00
C658   C     0.68786   0.79541   0.23104   0.00000  Uiso   1.00
Cl659  Cl    0.77346   0.89795   0.01605   0.00000  Uiso   1.00
Cl660  Cl    0.77399   0.76699   0.48279   0.00000  Uiso   1.00
Cl661  Cl    0.89823   0.89709   0.48174   0.00000  Uiso   1.00
Cl662  Cl    0.89807   0.76823   0.01947   0.00000  Uiso   1.00
Cl663  Cl    0.76953   0.89629   0.11996   0.00000  Uiso   1.00
Cl664  Cl    0.77082   0.76840   0.37876   0.00000  Uiso   1.00
Cl665  Cl    0.90040   0.89366   0.37756   0.00000  Uiso   1.00
Cl666  Cl    0.89948   0.77142   0.12373   0.00000  Uiso   1.00
Cu667  Cu    0.83333   0.88022   0.25000   0.00000  Uiso   1.00
Cu668  Cu    0.83333   0.78645   0.25000   0.00000  Uiso   1.00
H669   H     0.79738   0.71031   0.19163   0.00000  Uiso   1.00
H670   H     0.93029   0.90679   0.18776   0.00000  Uiso   1.00
H671   H     0.93677   0.96878   0.19733   0.00000  Uiso   1.00
H672   H     0.97953   0.93330   0.18036   0.00000  Uiso   1.00
H673   H     0.93703   0.93288   0.27204   0.00000  Uiso   1.00
H674   H     0.98560   0.95307   0.25690   0.00000  Uiso   1.00
H675   H     0.98381   0.74070   0.32104   0.00000  Uiso   1.00
H676   H     0.93207   0.76076   0.31392   0.00000  Uiso   1.00
H677   H     0.94407   0.69921   0.30798   0.00000  Uiso   1.00
H678   H     0.93683   0.73293   0.23152   0.00000  Uiso   1.00
H679   H     0.98642   0.71421   0.24474   0.00000  Uiso   1.00
H680   H     0.86952   0.95644   0.30815   0.00000  Uiso   1.00
H681   H     0.74965   0.85712   0.33425   0.00000  Uiso   1.00
H682   H     0.73411   0.90578   0.36769   0.00000  Uiso   1.00
H683   H     0.69914   0.85788   0.35779   0.00000  Uiso   1.00
H684   H     0.73082   0.92788   0.28685   0.00000  Uiso   1.00
H685   H     0.68365   0.93004   0.31530   0.00000  Uiso   1.00
H686   H     0.86872   0.71011   0.30869   0.00000  Uiso   1.00
H687   H     0.79671   0.95660   0.19219   0.00000  Uiso   1.00
H688   H     0.69942   0.80760   0.14143   0.00000  Uiso   1.00
H689   H     0.74983   0.80789   0.16582   0.00000  Uiso   1.00
H690   H     0.73381   0.75891   0.13292   0.00000  Uiso   1.00
H691   H     0.72977   0.73835   0.21408   0.00000  Uiso   1.00
H692   H     0.68271   0.73654   0.18487   0.00000  Uiso   1.00
N693   N     0.83333   0.95069   0.25000   0.00000  Uiso   1.00
N694   N     0.83333   0.71598   0.25000   0.00000  Uiso   1.00
O695   O     0.77321   0.87291   0.24999   0.00000  Uiso   1.00
O696   O     0.89345   0.79375   0.25000   0.00000  Uiso   1.00
O697   O     0.89345   0.87291   0.25000   0.00000  Uiso   1.00
O698   O     0.77321   0.79375   0.24999   0.00000  Uiso   1.00
O699   O     0.83333   0.87293   0.18573   0.00000  Uiso   1.00
O700   O     0.83334   0.79374   0.31427   0.00000  Uiso   1.00
O701   O     0.83334   0.87293   0.31427   0.00000  Uiso   1.00
O702   O     0.83333   0.79374   0.18573   0.00000  Uiso   1.00
C703   C     0.08748   0.16669   0.74986   0.00000  Uiso   1.00
C704   C     0.31345   0.20937   0.75688   0.00000  Uiso   1.00
C705   C     0.31344   0.12441   0.74272   0.00000  Uiso   1.00
C706   C     0.02144   0.20504   0.76830   0.00000  Uiso   1.00
C707   C     0.14097   0.19524   0.54642   0.00000  Uiso   1.00
C708   C     0.14132   0.13680   0.95307   0.00000  Uiso   1.00
C709   C     0.19666   0.19431   0.95261   0.00000  Uiso   1.00
C710   C     0.19647   0.13790   0.54793   0.00000  Uiso   1.00
C711   C     0.14004   0.19525   0.59266   0.00000  Uiso   1.00
C712   C     0.14049   0.13706   0.90681   0.00000  Uiso   1.00
C713   C     0.19641   0.19413   0.90634   0.00000  Uiso   1.00
C714   C     0.24619   0.16669   0.75005   0.00000  Uiso   1.00
C715   C     0.19613   0.13835   0.59421   0.00000  Uiso   1.00
C716   C     0.16766   0.16677   0.61664   0.00000  Uiso   1.00
C717   C     0.16784   0.16612   0.88337   0.00000  Uiso   1.00
C718   C     0.16897   0.16639   0.52424   0.00000  Uiso   1.00
C719   C     0.16910   0.16572   0.97579   0.00000  Uiso   1.00
C720   C     0.29116   0.16683   0.74988   0.00000  Uiso   1.00
C721   C     0.04308   0.16684   0.74968   0.00000  Uiso   1.00
C722   C     0.03966   0.09412   0.69807   0.00000  Uiso   1.00
C723   C     0.05674   0.11886   0.65723   0.00000  Uiso   1.00
C724   C     0.29610   0.25874   0.74950   0.00000  Uiso   1.00
C725   C     0.16694   0.16671   0.66496   0.00000  Uiso   1.00
C726   C     0.28481   0.26712   0.70087   0.00000  Uiso   1.00
C727   C     0.29698   0.07515   0.75237   0.00000  Uiso   1.00
C728   C     0.28851   0.06881   0.80177   0.00000  Uiso   1.00
C729   C     0.04026   0.23891   0.80202   0.00000  Uiso   1.00
C730   C     0.05681   0.21315   0.84276   0.00000  Uiso   1.00
C731   C     0.16708   0.16656   0.83504   0.00000  Uiso   1.00
C732   C     0.14664   0.02489   0.71763   0.00000  Uiso   1.00
C733   C     0.18672   0.30847   0.78232   0.00000  Uiso   1.00
C734   C     0.18649   0.02477   0.78248   0.00000  Uiso   1.00
C735   C     0.14643   0.30857   0.71780   0.00000  Uiso   1.00
C736   C     0.02119   0.12875   0.73104   0.00000  Uiso   1.00
Cl737  Cl    0.10679   0.23128   0.51605   0.00000  Uiso   1.00
Cl738  Cl    0.10732   0.10032   0.98279   0.00000  Uiso   1.00
Cl739  Cl    0.23157   0.23042   0.98174   0.00000  Uiso   1.00
Cl740  Cl    0.23141   0.10156   0.51947   0.00000  Uiso   1.00
Cl741  Cl    0.10286   0.22962   0.61996   0.00000  Uiso   1.00
Cl742  Cl    0.10416   0.10173   0.87876   0.00000  Uiso   1.00
Cl743  Cl    0.23373   0.22699   0.87756   0.00000  Uiso   1.00
Cl744  Cl    0.23281   0.10475   0.62373   0.00000  Uiso   1.00
Cu745  Cu    0.16667   0.21355   0.75000   0.00000  Uiso   1.00
Cu746  Cu    0.16667   0.11978   0.75000   0.00000  Uiso   1.00
H747   H     0.13071   0.04365   0.69163   0.00000  Uiso   1.00
H748   H     0.26362   0.24012   0.68776   0.00000  Uiso   1.00
H749   H     0.27010   0.30211   0.69733   0.00000  Uiso   1.00
H750   H     0.31286   0.26663   0.68036   0.00000  Uiso   1.00
H751   H     0.27036   0.26621   0.77204   0.00000  Uiso   1.00
H752   H     0.31894   0.28641   0.75690   0.00000  Uiso   1.00
H753   H     0.31714   0.07403   0.82104   0.00000  Uiso   1.00
H754   H     0.26541   0.09409   0.81392   0.00000  Uiso   1.00
H755   H     0.27741   0.03255   0.80798   0.00000  Uiso   1.00
H756   H     0.27016   0.06626   0.73152   0.00000  Uiso   1.00
H757   H     0.31976   0.04754   0.74474   0.00000  Uiso   1.00
H758   H     0.20285   0.28978   0.80815   0.00000  Uiso   1.00
H759   H     0.08298   0.19046   0.83425   0.00000  Uiso   1.00
H760   H     0.06745   0.23912   0.86769   0.00000  Uiso   1.00
H761   H     0.03247   0.19121   0.85779   0.00000  Uiso   1.00
H762   H     0.06416   0.26121   0.78685   0.00000  Uiso   1.00
H763   H     0.01698   0.26337   0.81530   0.00000  Uiso   1.00
H764   H     0.20205   0.04345   0.80869   0.00000  Uiso   1.00
H765   H     0.13005   0.28993   0.69219   0.00000  Uiso   1.00
H766   H     0.03275   0.14094   0.64143   0.00000  Uiso   1.00
H767   H     0.08316   0.14122   0.66582   0.00000  Uiso   1.00
H768   H     0.06714   0.09224   0.63292   0.00000  Uiso   1.00
H769   H     0.06310   0.07169   0.71408   0.00000  Uiso   1.00
H770   H     0.01604   0.06987   0.68487   0.00000  Uiso   1.00
N771   N     0.16667   0.28402   0.75000   0.00000  Uiso   1.00
N772   N     0.16667   0.04931   0.75000   0.00000  Uiso   1.00
O773   O     0.10655   0.20625   0.74999   0.00000  Uiso   1.00
O774   O     0.22679   0.12709   0.75000   0.00000  Uiso   1.00
O775   O     0.22679   0.20625   0.75000   0.00000  Uiso   1.00
O776   O     0.10655   0.12709   0.74999   0.00000  Uiso   1.00
O777   O     0.16666   0.20626   0.68573   0.00000  Uiso   1.00
O778   O     0.16667   0.12707   0.81427   0.00000  Uiso   1.00
O779   O     0.16667   0.20626   0.81427   0.00000  Uiso   1.00
O780   O     0.16666   0.12707   0.68573   0.00000  Uiso   1.00
C781   C     0.42081   0.16669   0.74986   0.00000  Uiso   1.00
C782   C     0.64679   0.20937   0.75688   0.00000  Uiso   1.00
C783   C     0.64677   0.12441   0.74272   0.00000  Uiso   1.00
C784   C     0.35477   0.20504   0.76830   0.00000  Uiso   1.00
C785   C     0.47430   0.19524   0.54642   0.00000  Uiso   1.00
C786   C     0.47465   0.13680   0.95307   0.00000  Uiso   1.00
C787   C     0.52999   0.19431   0.95261   0.00000  Uiso   1.00
C788   C     0.52980   0.13790   0.54793   0.00000  Uiso   1.00
C789   C     0.47338   0.19525   0.59266   0.00000  Uiso   1.00
C790   C     0.47383   0.13706   0.90681   0.00000  Uiso   1.00
C791   C     0.52975   0.19413   0.90634   0.00000  Uiso   1.00
C792   C     0.57952   0.16669   0.75005   0.00000  Uiso   1.00
C793   C     0.52946   0.13835   0.59421   0.00000  Uiso   1.00
C794   C     0.50100   0.16677   0.61664   0.00000  Uiso   1.00
C795   C     0.50117   0.16612   0.88337   0.00000  Uiso   1.00
C796   C     0.50230   0.16639   0.52424   0.00000  Uiso   1.00
C797   C     0.50243   0.16572   0.97579   0.00000  Uiso   1.00
C798   C     0.62450   0.16683   0.74988   0.00000  Uiso   1.00
C799   C     0.37641   0.16684   0.74968   0.00000  Uiso   1.00
C800   C     0.37300   0.09412   0.69807   0.00000  Uiso   1.00
C801   C     0.39007   0.11886   0.65723   0.00000  Uiso   1.00
C802   C     0.62943   0.25874   0.74950   0.00000  Uiso   1.00
C803   C     0.50027   0.16671   0.66496   0.00000  Uiso   1.00
C804   C     0.61814   0.26712   0.70087   0.00000  Uiso   1.00
C805   C     0.63032   0.07515   0.75237   0.00000  Uiso   1.00
C806   C     0.62185   0.06881   0.80177   0.00000  Uiso   1.00
C807   C     0.37359   0.23891   0.80202   0.00000  Uiso   1.00
C808   C     0.39015   0.21315   0.84276   0.00000  Uiso   1.00
C809   C     0.50041   0.16656   0.83504   0.00000  Uiso   1.00
C810   C     0.47998   0.02489   0.71763   0.00000  Uiso   1.00
C811   C     0.52005   0.30847   0.78232   0.00000  Uiso   1.00
C812   C     0.51983   0.02477   0.78248   0.00000  Uiso   1.00
C813   C     0.47976   0.30857   0.71780   0.00000  Uiso   1.00
C814   C     0.35453   0.12875   0.73104   0.00000  Uiso   1.00
Cl815  Cl    0.44012   0.23128   0.51605   0.00000  Uiso   1.00
Cl816  Cl    0.44065   0.10032   0.98279   0.00000  Uiso   1.00
Cl817  Cl    0.56490   0.23042   0.98174   0.00000  Uiso   1.00
Cl818  Cl    0.56474   0.10156   0.51947   0.00000  Uiso   1.00
Cl819  Cl    0.43619   0.22962   0.61996   0.00000  Uiso   1.00
Cl820  Cl    0.43749   0.10173   0.87876   0.00000  Uiso   1.00
Cl821  Cl    0.56707   0.22699   0.87756   0.00000  Uiso   1.00
Cl822  Cl    0.56614   0.10475   0.62373   0.00000  Uiso   1.00
Cu823  Cu    0.50000   0.21355   0.75000   0.00000  Uiso   1.00
Cu824  Cu    0.50000   0.11978   0.75000   0.00000  Uiso   1.00
H825   H     0.46404   0.04365   0.69163   0.00000  Uiso   1.00
H826   H     0.59695   0.24012   0.68776   0.00000  Uiso   1.00
H827   H     0.60343   0.30211   0.69733   0.00000  Uiso   1.00
H828   H     0.64620   0.26663   0.68036   0.00000  Uiso   1.00
H829   H     0.60369   0.26621   0.77204   0.00000  Uiso   1.00
H830   H     0.65227   0.28641   0.75690   0.00000  Uiso   1.00
H831   H     0.65047   0.07403   0.82104   0.00000  Uiso   1.00
H832   H     0.59874   0.09409   0.81392   0.00000  Uiso   1.00
H833   H     0.61074   0.03255   0.80798   0.00000  Uiso   1.00
H834   H     0.60350   0.06626   0.73152   0.00000  Uiso   1.00
H835   H     0.65309   0.04754   0.74474   0.00000  Uiso   1.00
H836   H     0.53618   0.28978   0.80815   0.00000  Uiso   1.00
H837   H     0.41632   0.19046   0.83425   0.00000  Uiso   1.00
H838   H     0.40078   0.23912   0.86769   0.00000  Uiso   1.00
H839   H     0.36580   0.19121   0.85779   0.00000  Uiso   1.00
H840   H     0.39749   0.26121   0.78685   0.00000  Uiso   1.00
H841   H     0.35032   0.26337   0.81530   0.00000  Uiso   1.00
H842   H     0.53539   0.04345   0.80869   0.00000  Uiso   1.00
H843   H     0.46338   0.28993   0.69219   0.00000  Uiso   1.00
H844   H     0.36609   0.14094   0.64143   0.00000  Uiso   1.00
H845   H     0.41649   0.14122   0.66582   0.00000  Uiso   1.00
H846   H     0.40048   0.09224   0.63292   0.00000  Uiso   1.00
H847   H     0.39644   0.07169   0.71408   0.00000  Uiso   1.00
H848   H     0.34937   0.06987   0.68487   0.00000  Uiso   1.00
N849   N     0.50000   0.28402   0.75000   0.00000  Uiso   1.00
N850   N     0.50000   0.04931   0.75000   0.00000  Uiso   1.00
O851   O     0.43988   0.20625   0.74999   0.00000  Uiso   1.00
O852   O     0.56012   0.12709   0.75000   0.00000  Uiso   1.00
O853   O     0.56012   0.20625   0.75000   0.00000  Uiso   1.00
O854   O     0.43988   0.12709   0.74999   0.00000  Uiso   1.00
O855   O     0.50000   0.20626   0.68573   0.00000  Uiso   1.00
O856   O     0.50000   0.12707   0.81427   0.00000  Uiso   1.00
O857   O     0.50000   0.20626   0.81427   0.00000  Uiso   1.00
O858   O     0.50000   0.12707   0.68573   0.00000  Uiso   1.00
C859   C     0.75414   0.16669   0.74986   0.00000  Uiso   1.00
C860   C     0.98012   0.20937   0.75688   0.00000  Uiso   1.00
C861   C     0.98010   0.12441   0.74272   0.00000  Uiso   1.00
C862   C     0.68811   0.20504   0.76830   0.00000  Uiso   1.00
C863   C     0.80764   0.19524   0.54642   0.00000  Uiso   1.00
C864   C     0.80798   0.13680   0.95307   0.00000  Uiso   1.00
C865   C     0.86332   0.19431   0.95261   0.00000  Uiso   1.00
C866   C     0.86314   0.13790   0.54793   0.00000  Uiso   1.00
C867   C     0.80671   0.19525   0.59266   0.00000  Uiso   1.00
C868   C     0.80716   0.13706   0.90681   0.00000  Uiso   1.00
C869   C     0.86308   0.19413   0.90634   0.00000  Uiso   1.00
C870   C     0.91285   0.16669   0.75005   0.00000  Uiso   1.00
C871   C     0.86279   0.13835   0.59421   0.00000  Uiso   1.00
C872   C     0.83433   0.16677   0.61664   0.00000  Uiso   1.00
C873   C     0.83450   0.16612   0.88337   0.00000  Uiso   1.00
C874   C     0.83563   0.16639   0.52424   0.00000  Uiso   1.00
C875   C     0.83577   0.16572   0.97579   0.00000  Uiso   1.00
C876   C     0.95783   0.16683   0.74988   0.00000  Uiso   1.00
C877   C     0.70975   0.16684   0.74968   0.00000  Uiso   1.00
C878   C     0.70633   0.09412   0.69807   0.00000  Uiso   1.00
C879   C     0.72340   0.11886   0.65723   0.00000  Uiso   1.00
C880   C     0.96277   0.25874   0.74950   0.00000  Uiso   1.00
C881   C     0.83360   0.16671   0.66496   0.00000  Uiso   1.00
C882   C     0.95148   0.26712   0.70087   0.00000  Uiso   1.00
C883   C     0.96365   0.07515   0.75237   0.00000  Uiso   1.00
C884   C     0.95518   0.06881   0.80177   0.00000  Uiso   1.00
C885   C     0.70693   0.23891   0.80202   0.00000  Uiso   1.00
C886   C     0.72348   0.21315   0.84276   0.00000  Uiso   1.00
C887   C     0.83375   0.16656   0.83504   0.00000  Uiso   1.00
C888   C     0.81331   0.02489   0.71763   0.00000  Uiso   1.00
C889   C     0.85339   0.30847   0.78232   0.00000  Uiso   1.00
C890   C     0.85316   0.02477   0.78248   0.00000  Uiso   1.00
C891   C     0.81310   0.30857   0.71780   0.00000  Uiso   1.00
C892   C     0.68786   0.12875   0.73104   0.00000  Uiso   1.00
Cl893  Cl    0.77346   0.23128   0.51605   0.00000  Uiso   1.00
Cl894  Cl    0.77399   0.10032   0.98279   0.00000  Uiso   1.00
Cl895  Cl    0.89823   0.23042   0.98174   0.00000  Uiso   1.00
Cl896  Cl    0.89807   0.10156   0.51947   0.00000  Uiso   1.00
Cl897  Cl    0.76953   0.22962   0.61996   0.00000  Uiso   1.00
Cl898  Cl    0.77082   0.10173   0.87876   0.00000  Uiso   1.00
Cl899  Cl    0.90040   0.22699   0.87756   0.00000  Uiso   1.00
Cl900  Cl    0.89948   0.10475   0.62373   0.00000  Uiso   1.00
Cu901  Cu    0.83333   0.21355   0.75000   0.00000  Uiso   1.00
Cu902  Cu    0.83333   0.11978   0.75000   0.00000  Uiso   1.00
H903   H     0.79738   0.04365   0.69163   0.00000  Uiso   1.00
H904   H     0.93029   0.24012   0.68776   0.00000  Uiso   1.00
H905   H     0.93677   0.30211   0.69733   0.00000  Uiso   1.00
H906   H     0.97953   0.26663   0.68036   0.00000  Uiso   1.00
H907   H     0.93703   0.26621   0.77204   0.00000  Uiso   1.00
H908   H     0.98560   0.28641   0.75690   0.00000  Uiso   1.00
H909   H     0.98381   0.07403   0.82104   0.00000  Uiso   1.00
H910   H     0.93207   0.09409   0.81392   0.00000  Uiso   1.00
H911   H     0.94407   0.03255   0.80798   0.00000  Uiso   1.00
H912   H     0.93683   0.06626   0.73152   0.00000  Uiso   1.00
H913   H     0.98642   0.04754   0.74474   0.00000  Uiso   1.00
H914   H     0.86952   0.28978   0.80815   0.00000  Uiso   1.00
H915   H     0.74965   0.19046   0.83425   0.00000  Uiso   1.00
H916   H     0.73411   0.23912   0.86769   0.00000  Uiso   1.00
H917   H     0.69914   0.19121   0.85779   0.00000  Uiso   1.00
H918   H     0.73082   0.26121   0.78685   0.00000  Uiso   1.00
H919   H     0.68365   0.26337   0.81530   0.00000  Uiso   1.00
H920   H     0.86872   0.04345   0.80869   0.00000  Uiso   1.00
H921   H     0.79671   0.28993   0.69219   0.00000  Uiso   1.00
H922   H     0.69942   0.14094   0.64143   0.00000  Uiso   1.00
H923   H     0.74983   0.14122   0.66582   0.00000  Uiso   1.00
H924   H     0.73381   0.09224   0.63292   0.00000  Uiso   1.00
H925   H     0.72977   0.07169   0.71408   0.00000  Uiso   1.00
H926   H     0.68271   0.06987   0.68487   0.00000  Uiso   1.00
N927   N     0.83333   0.28402   0.75000   0.00000  Uiso   1.00
N928   N     0.83333   0.04931   0.75000   0.00000  Uiso   1.00
O929   O     0.77321   0.20625   0.74999   0.00000  Uiso   1.00
O930   O     0.89345   0.12709   0.75000   0.00000  Uiso   1.00
O931   O     0.89345   0.20625   0.75000   0.00000  Uiso   1.00
O932   O     0.77321   0.12709   0.74999   0.00000  Uiso   1.00
O933   O     0.83333   0.20626   0.68573   0.00000  Uiso   1.00
O934   O     0.83334   0.12707   0.81427   0.00000  Uiso   1.00
O935   O     0.83334   0.20626   0.81427   0.00000  Uiso   1.00
O936   O     0.83333   0.12707   0.68573   0.00000  Uiso   1.00
C937   C     0.08748   0.50003   0.74986   0.00000  Uiso   1.00
C938   C     0.31345   0.54271   0.75688   0.00000  Uiso   1.00
C939   C     0.31344   0.45774   0.74272   0.00000  Uiso   1.00
C940   C     0.02144   0.53837   0.76830   0.00000  Uiso   1.00
C941   C     0.14097   0.52857   0.54642   0.00000  Uiso   1.00
C942   C     0.14132   0.47014   0.95307   0.00000  Uiso   1.00
C943   C     0.19666   0.52765   0.95261   0.00000  Uiso   1.00
C944   C     0.19647   0.47124   0.54793   0.00000  Uiso   1.00
C945   C     0.14004   0.52858   0.59266   0.00000  Uiso   1.00
C946   C     0.14049   0.47039   0.90681   0.00000  Uiso   1.00
C947   C     0.19641   0.52746   0.90634   0.00000  Uiso   1.00
C948   C     0.24619   0.50002   0.75005   0.00000  Uiso   1.00
C949   C     0.19613   0.47168   0.59421   0.00000  Uiso   1.00
C950   C     0.16766   0.50011   0.61664   0.00000  Uiso   1.00
C951   C     0.16784   0.49945   0.88337   0.00000  Uiso   1.00
C952   C     0.16897   0.49972   0.52424   0.00000  Uiso   1.00
C953   C     0.16910   0.49905   0.97579   0.00000  Uiso   1.00
C954   C     0.29116   0.50017   0.74988   0.00000  Uiso   1.00
C955   C     0.04308   0.50017   0.74968   0.00000  Uiso   1.00
C956   C     0.03966   0.42746   0.69807   0.00000  Uiso   1.00
C957   C     0.05674   0.45219   0.65723   0.00000  Uiso   1.00
C958   C     0.29610   0.59207   0.74950   0.00000  Uiso   1.00
C959   C     0.16694   0.50005   0.66496   0.00000  Uiso   1.00
C960   C     0.28481   0.60045   0.70087   0.00000  Uiso   1.00
C961   C     0.29698   0.40849   0.75237   0.00000  Uiso   1.00
C962   C     0.28851   0.40215   0.80177   0.00000  Uiso   1.00
C963   C     0.04026   0.57224   0.80202   0.00000  Uiso   1.00
C964   C     0.05681   0.54649   0.84276   0.00000  Uiso   1.00
C965   C     0.16708   0.49989   0.83504   0.00000  Uiso   1.00
C966   C     0.14664   0.35823   0.71763   0.00000  Uiso   1.00
C967   C     0.18672   0.64181   0.78232   0.00000  Uiso   1.00
C968   C     0.18649   0.35811   0.78248   0.00000  Uiso   1.00
C969   C     0.14643   0.64191   0.71780   0.00000  Uiso   1.00
C970   C     0.02119   0.46208   0.73104   0.00000  Uiso   1.00
Cl971  Cl    0.10679   0.56462   0.51605   0.00000  Uiso   1.00
Cl972  Cl    0.10732   0.43365   0.98279   0.00000  Uiso   1.00
Cl973  Cl    0.23157   0.56376   0.98174   0.00000  Uiso   1.00
Cl974  Cl    0.23141   0.43490   0.51947   0.00000  Uiso   1.00
Cl975  Cl    0.10286   0.56296   0.61996   0.00000  Uiso   1.00
Cl976  Cl    0.10416   0.43507   0.87876   0.00000  Uiso   1.00
Cl977  Cl    0.23373   0.56032   0.87756   0.00000  Uiso   1.00
Cl978  Cl    0.23281   0.43808   0.62373   0.00000  Uiso   1.00
Cu979  Cu    0.16667   0.54689   0.75000   0.00000  Uiso   1.00
Cu980  Cu    0.16667   0.45311   0.75000   0.00000  Uiso   1.00
H981   H     0.13071   0.37698   0.69163   0.00000  Uiso   1.00
H982   H     0.26362   0.57346   0.68776   0.00000  Uiso   1.00
H983   H     0.27010   0.63544   0.69733   0.00000  Uiso   1.00
H984   H     0.31286   0.59997   0.68036   0.00000  Uiso   1.00
H985   H     0.27036   0.59955   0.77204   0.00000  Uiso   1.00
H986   H     0.31894   0.61974   0.75690   0.00000  Uiso   1.00
H987   H     0.31714   0.40737   0.82104   0.00000  Uiso   1.00
H988   H     0.26541   0.42742   0.81392   0.00000  Uiso   1.00
H989   H     0.27741   0.36588   0.80798   0.00000  Uiso   1.00
H990   H     0.27016   0.39960   0.73152   0.00000  Uiso   1.00
H991   H     0.31976   0.38088   0.74474   0.00000  Uiso   1.00
H992   H     0.20285   0.62311   0.80815   0.00000  Uiso   1.00
H993   H     0.08298   0.52379   0.83425   0.00000  Uiso   1.00
H994   H     0.06745   0.57245   0.86769   0.00000  Uiso   1.00
H995   H     0.03247   0.52455   0.85779   0.00000  Uiso   1.00
H996   H     0.06416   0.59454   0.78685   0.00000  Uiso   1.00
H997   H     0.01698   0.59670   0.81530   0.00000  Uiso   1.00
H998   H     0.20205   0.37678   0.80869   0.00000  Uiso   1.00
H999   H     0.13005   0.62327   0.69219   0.00000  Uiso   1.00
H1000  H     0.03275   0.47427   0.64143   0.00000  Uiso   1.00
H1001  H     0.08316   0.47455   0.66582   0.00000  Uiso   1.00
H1002  H     0.06714   0.42558   0.63292   0.00000  Uiso   1.00
H1003  H     0.06310   0.40502   0.71408   0.00000  Uiso   1.00
H1004  H     0.01604   0.40321   0.68487   0.00000  Uiso   1.00
N1005  N     0.16667   0.61736   0.75000   0.00000  Uiso   1.00
N1006  N     0.16667   0.38264   0.75000   0.00000  Uiso   1.00
O1007  O     0.10655   0.53958   0.74999   0.00000  Uiso   1.00
O1008  O     0.22679   0.46042   0.75000   0.00000  Uiso   1.00
O1009  O     0.22679   0.53958   0.75000   0.00000  Uiso   1.00
O1010  O     0.10655   0.46042   0.74999   0.00000  Uiso   1.00
O1011  O     0.16666   0.53959   0.68573   0.00000  Uiso   1.00
O1012  O     0.16667   0.46041   0.81427   0.00000  Uiso   1.00
O1013  O     0.16667   0.53959   0.81427   0.00000  Uiso   1.00
O1014  O     0.16666   0.46041   0.68573   0.00000  Uiso   1.00
C1015  C     0.42081   0.50003   0.74986   0.00000  Uiso   1.00
C1016  C     0.64679   0.54271   0.75688   0.00000  Uiso   1.00
C1017  C     0.64677   0.45774   0.74272   0.00000  Uiso   1.00
C1018  C     0.35477   0.53837   0.76830   0.00000  Uiso   1.00
C1019  C     0.47430   0.52857   0.54642   0.00000  Uiso   1.00
C1020  C     0.47465   0.47014   0.95307   0.00000  Uiso   1.00
C1021  C     0.52999   0.52765   0.95261   0.00000  Uiso   1.00
C1022  C     0.52980   0.47124   0.54793   0.00000  Uiso   1.00
C1023  C     0.47338   0.52858   0.59266   0.00000  Uiso   1.00
C1024  C     0.47383   0.47039   0.90681   0.00000  Uiso   1.00
C1025  C     0.52975   0.52746   0.90634   0.00000  Uiso   1.00
C1026  C     0.57952   0.50002   0.75005   0.00000  Uiso   1.00
C1027  C     0.52946   0.47168   0.59421   0.00000  Uiso   1.00
C1028  C     0.50100   0.50011   0.61664   0.00000  Uiso   1.00
C1029  C     0.50117   0.49945   0.88337   0.00000  Uiso   1.00
C1030  C     0.50230   0.49972   0.52424   0.00000  Uiso   1.00
C1031  C     0.50243   0.49905   0.97579   0.00000  Uiso   1.00
C1032  C     0.62450   0.50017   0.74988   0.00000  Uiso   1.00
C1033  C     0.37641   0.50017   0.74968   0.00000  Uiso   1.00
C1034  C     0.37300   0.42746   0.69807   0.00000  Uiso   1.00
C1035  C     0.39007   0.45219   0.65723   0.00000  Uiso   1.00
C1036  C     0.62943   0.59207   0.74950   0.00000  Uiso   1.00
C1037  C     0.50027   0.50005   0.66496   0.00000  Uiso   1.00
C1038  C     0.61814   0.60045   0.70087   0.00000  Uiso   1.00
C1039  C     0.63032   0.40849   0.75237   0.00000  Uiso   1.00
C1040  C     0.62185   0.40215   0.80177   0.00000  Uiso   1.00
C1041  C     0.37359   0.57224   0.80202   0.00000  Uiso   1.00
C1042  C     0.39015   0.54649   0.84276   0.00000  Uiso   1.00
C1043  C     0.50041   0.49989   0.83504   0.00000  Uiso   1.00
C1044  C     0.47998   0.35823   0.71763   0.00000  Uiso   1.00
C1045  C     0.52005   0.64181   0.78232   0.00000  Uiso   1.00
C1046  C     0.51983   0.35811   0.78248   0.00000  Uiso   1.00
C1047  C     0.47976   0.64191   0.71780   0.00000  Uiso   1.00
C1048  C     0.35453   0.46208   0.73104   0.00000  Uiso   1.00
Cl1049 Cl    0.44012   0.56462   0.51605   0.00000  Uiso   1.00
Cl1050 Cl    0.44065   0.43365   0.98279   0.00000  Uiso   1.00
Cl1051 Cl    0.56490   0.56376   0.98174   0.00000  Uiso   1.00
Cl1052 Cl    0.56474   0.43490   0.51947   0.00000  Uiso   1.00
Cl1053 Cl    0.43619   0.56296   0.61996   0.00000  Uiso   1.00
Cl1054 Cl    0.43749   0.43507   0.87876   0.00000  Uiso   1.00
Cl1055 Cl    0.56707   0.56032   0.87756   0.00000  Uiso   1.00
Cl1056 Cl    0.56614   0.43808   0.62373   0.00000  Uiso   1.00
Cu1057 Cu    0.50000   0.54689   0.75000   0.00000  Uiso   1.00
Cu1058 Cu    0.50000   0.45311   0.75000   0.00000  Uiso   1.00
H1059  H     0.46404   0.37698   0.69163   0.00000  Uiso   1.00
H1060  H     0.59695   0.57346   0.68776   0.00000  Uiso   1.00
H1061  H     0.60343   0.63544   0.69733   0.00000  Uiso   1.00
H1062  H     0.64620   0.59997   0.68036   0.00000  Uiso   1.00
H1063  H     0.60369   0.59955   0.77204   0.00000  Uiso   1.00
H1064  H     0.65227   0.61974   0.75690   0.00000  Uiso   1.00
H1065  H     0.65047   0.40737   0.82104   0.00000  Uiso   1.00
H1066  H     0.59874   0.42742   0.81392   0.00000  Uiso   1.00
H1067  H     0.61074   0.36588   0.80798   0.00000  Uiso   1.00
H1068  H     0.60350   0.39960   0.73152   0.00000  Uiso   1.00
H1069  H     0.65309   0.38088   0.74474   0.00000  Uiso   1.00
H1070  H     0.53618   0.62311   0.80815   0.00000  Uiso   1.00
H1071  H     0.41632   0.52379   0.83425   0.00000  Uiso   1.00
H1072  H     0.40078   0.57245   0.86769   0.00000  Uiso   1.00
H1073  H     0.36580   0.52455   0.85779   0.00000  Uiso   1.00
H1074  H     0.39749   0.59454   0.78685   0.00000  Uiso   1.00
H1075  H     0.35032   0.59670   0.81530   0.00000  Uiso   1.00
H1076  H     0.53539   0.37678   0.80869   0.00000  Uiso   1.00
H1077  H     0.46338   0.62327   0.69219   0.00000  Uiso   1.00
H1078  H     0.36609   0.47427   0.64143   0.00000  Uiso   1.00
H1079  H     0.41649   0.47455   0.66582   0.00000  Uiso   1.00
H1080  H     0.40048   0.42558   0.63292   0.00000  Uiso   1.00
H1081  H     0.39644   0.40502   0.71408   0.00000  Uiso   1.00
H1082  H     0.34937   0.40321   0.68487   0.00000  Uiso   1.00
N1083  N     0.50000   0.61736   0.75000   0.00000  Uiso   1.00
N1084  N     0.50000   0.38264   0.75000   0.00000  Uiso   1.00
O1085  O     0.43988   0.53958   0.74999   0.00000  Uiso   1.00
O1086  O     0.56012   0.46042   0.75000   0.00000  Uiso   1.00
O1087  O     0.56012   0.53958   0.75000   0.00000  Uiso   1.00
O1088  O     0.43988   0.46042   0.74999   0.00000  Uiso   1.00
O1089  O     0.50000   0.53959   0.68573   0.00000  Uiso   1.00
O1090  O     0.50000   0.46041   0.81427   0.00000  Uiso   1.00
O1091  O     0.50000   0.53959   0.81427   0.00000  Uiso   1.00
O1092  O     0.50000   0.46041   0.68573   0.00000  Uiso   1.00
C1093  C     0.75414   0.50003   0.74986   0.00000  Uiso   1.00
C1094  C     0.98012   0.54271   0.75688   0.00000  Uiso   1.00
C1095  C     0.98010   0.45774   0.74272   0.00000  Uiso   1.00
C1096  C     0.68811   0.53837   0.76830   0.00000  Uiso   1.00
C1097  C     0.80764   0.52857   0.54642   0.00000  Uiso   1.00
C1098  C     0.80798   0.47014   0.95307   0.00000  Uiso   1.00
C1099  C     0.86332   0.52765   0.95261   0.00000  Uiso   1.00
C1100  C     0.86314   0.47124   0.54793   0.00000  Uiso   1.00
C1101  C     0.80671   0.52858   0.59266   0.00000  Uiso   1.00
C1102  C     0.80716   0.47039   0.90681   0.00000  Uiso   1.00
C1103  C     0.86308   0.52746   0.90634   0.00000  Uiso   1.00
C1104  C     0.91285   0.50002   0.75005   0.00000  Uiso   1.00
C1105  C     0.86279   0.47168   0.59421   0.00000  Uiso   1.00
C1106  C     0.83433   0.50011   0.61664   0.00000  Uiso   1.00
C1107  C     0.83450   0.49945   0.88337   0.00000  Uiso   1.00
C1108  C     0.83563   0.49972   0.52424   0.00000  Uiso   1.00
C1109  C     0.83577   0.49905   0.97579   0.00000  Uiso   1.00
C1110  C     0.95783   0.50017   0.74988   0.00000  Uiso   1.00
C1111  C     0.70975   0.50017   0.74968   0.00000  Uiso   1.00
C1112  C     0.70633   0.42746   0.69807   0.00000  Uiso   1.00
C1113  C     0.72340   0.45219   0.65723   0.00000  Uiso   1.00
C1114  C     0.96277   0.59207   0.74950   0.00000  Uiso   1.00
C1115  C     0.83360   0.50005   0.66496   0.00000  Uiso   1.00
C1116  C     0.95148   0.60045   0.70087   0.00000  Uiso   1.00
C1117  C     0.96365   0.40849   0.75237   0.00000  Uiso   1.00
C1118  C     0.95518   0.40215   0.80177   0.00000  Uiso   1.00
C1119  C     0.70693   0.57224   0.80202   0.00000  Uiso   1.00
C1120  C     0.72348   0.54649   0.84276   0.00000  Uiso   1.00
C1121  C     0.83375   0.49989   0.83504   0.00000  Uiso   1.00
C1122  C     0.81331   0.35823   0.71763   0.00000  Uiso   1.00
C1123  C     0.85339   0.64181   0.78232   0.00000  Uiso   1.00
C1124  C     0.85316   0.35811   0.78248   0.00000  Uiso   1.00
C1125  C     0.81310   0.64191   0.71780   0.00000  Uiso   1.00
C1126  C     0.68786   0.46208   0.73104   0.00000  Uiso   1.00
Cl1127 Cl    0.77346   0.56462   0.51605   0.00000  Uiso   1.00
Cl1128 Cl    0.77399   0.43365   0.98279   0.00000  Uiso   1.00
Cl1129 Cl    0.89823   0.56376   0.98174   0.00000  Uiso   1.00
Cl1130 Cl    0.89807   0.43490   0.51947   0.00000  Uiso   1.00
Cl1131 Cl    0.76953   0.56296   0.61996   0.00000  Uiso   1.00
Cl1132 Cl    0.77082   0.43507   0.87876   0.00000  Uiso   1.00
Cl1133 Cl    0.90040   0.56032   0.87756   0.00000  Uiso   1.00
Cl1134 Cl    0.89948   0.43808   0.62373   0.00000  Uiso   1.00
Cu1135 Cu    0.83333   0.54689   0.75000   0.00000  Uiso   1.00
Cu1136 Cu    0.83333   0.45311   0.75000   0.00000  Uiso   1.00
H1137  H     0.79738   0.37698   0.69163   0.00000  Uiso   1.00
H1138  H     0.93029   0.57346   0.68776   0.00000  Uiso   1.00
H1139  H     0.93677   0.63544   0.69733   0.00000  Uiso   1.00
H1140  H     0.97953   0.59997   0.68036   0.00000  Uiso   1.00
H1141  H     0.93703   0.59955   0.77204   0.00000  Uiso   1.00
H1142  H     0.98560   0.61974   0.75690   0.00000  Uiso   1.00
H1143  H     0.98381   0.40737   0.82104   0.00000  Uiso   1.00
H1144  H     0.93207   0.42742   0.81392   0.00000  Uiso   1.00
H1145  H     0.94407   0.36588   0.80798   0.00000  Uiso   1.00
H1146  H     0.93683   0.39960   0.73152   0.00000  Uiso   1.00
H1147  H     0.98642   0.38088   0.74474   0.00000  Uiso   1.00
H1148  H     0.86952   0.62311   0.80815   0.00000  Uiso   1.00
H1149  H     0.74965   0.52379   0.83425   0.00000  Uiso   1.00
H1150  H     0.73411   0.57245   0.86769   0.00000  Uiso   1.00
H1151  H     0.69914   0.52455   0.85779   0.00000  Uiso   1.00
H1152  H     0.73082   0.59454   0.78685   0.00000  Uiso   1.00
H1153  H     0.68365   0.59670   0.81530   0.00000  Uiso   1.00
H1154  H     0.86872   0.37678   0.80869   0.00000  Uiso   1.00
H1155  H     0.79671   0.62327   0.69219   0.00000  Uiso   1.00
H1156  H     0.69942   0.47427   0.64143   0.00000  Uiso   1.00
H1157  H     0.74983   0.47455   0.66582   0.00000  Uiso   1.00
H1158  H     0.73381   0.42558   0.63292   0.00000  Uiso   1.00
H1159  H     0.72977   0.40502   0.71408   0.00000  Uiso   1.00
H1160  H     0.68271   0.40321   0.68487   0.00000  Uiso   1.00
N1161  N     0.83333   0.61736   0.75000   0.00000  Uiso   1.00
N1162  N     0.83333   0.38264   0.75000   0.00000  Uiso   1.00
O1163  O     0.77321   0.53958   0.74999   0.00000  Uiso   1.00
O1164  O     0.89345   0.46042   0.75000   0.00000  Uiso   1.00
O1165  O     0.89345   0.53958   0.75000   0.00000  Uiso   1.00
O1166  O     0.77321   0.46042   0.74999   0.00000  Uiso   1.00
O1167  O     0.83333   0.53959   0.68573   0.00000  Uiso   1.00
O1168  O     0.83334   0.46041   0.81427   0.00000  Uiso   1.00
O1169  O     0.83334   0.53959   0.81427   0.00000  Uiso   1.00
O1170  O     0.83333   0.46041   0.68573   0.00000  Uiso   1.00
C1171  C     0.08748   0.83336   0.74986   0.00000  Uiso   1.00
C1172  C     0.31345   0.87604   0.75688   0.00000  Uiso   1.00
C1173  C     0.31344   0.79108   0.74272   0.00000  Uiso   1.00
C1174  C     0.02144   0.87170   0.76830   0.00000  Uiso   1.00
C1175  C     0.14097   0.86191   0.54642   0.00000  Uiso   1.00
C1176  C     0.14132   0.80347   0.95307   0.00000  Uiso   1.00
C1177  C     0.19666   0.86098   0.95261   0.00000  Uiso   1.00
C1178  C     0.19647   0.80457   0.54793   0.00000  Uiso   1.00
C1179  C     0.14004   0.86191   0.59266   0.00000  Uiso   1.00
C1180  C     0.14049   0.80373   0.90681   0.00000  Uiso   1.00
C1181  C     0.19641   0.86080   0.90634   0.00000  Uiso   1.00
C1182  C     0.24619   0.83336   0.75005   0.00000  Uiso   1.00
C1183  C     0.19613   0.80502   0.59421   0.00000  Uiso   1.00
C1184  C     0.16766   0.83344   0.61664   0.00000  Uiso   1.00
C1185  C     0.16784   0.83278   0.88337   0.00000  Uiso   1.00
C1186  C     0.16897   0.83306   0.52424   0.00000  Uiso   1.00
C1187  C     0.16910   0.83239   0.97579   0.00000  Uiso   1.00
C1188  C     0.29116   0.83350   0.74988   0.00000  Uiso   1.00
C1189  C     0.04308   0.83350   0.74968   0.00000  Uiso   1.00
C1190  C     0.03966   0.76079   0.69807   0.00000  Uiso   1.00
C1191  C     0.05674   0.78552   0.65723   0.00000  Uiso   1.00
C1192  C     0.29610   0.92541   0.74950   0.00000  Uiso   1.00
C1193  C     0.16694   0.83338   0.66496   0.00000  Uiso   1.00
C1194  C     0.28481   0.93379   0.70087   0.00000  Uiso   1.00
C1195  C     0.29698   0.74182   0.75237   0.00000  Uiso   1.00
C1196  C     0.28851   0.73548   0.80177   0.00000  Uiso   1.00
C1197  C     0.04026   0.90557   0.80202   0.00000  Uiso   1.00
C1198  C     0.05681   0.87982   0.84276   0.00000  Uiso   1.00
C1199  C     0.16708   0.83322   0.83504   0.00000  Uiso   1.00
C1200  C     0.14664   0.69156   0.71763   0.00000  Uiso   1.00
C1201  C     0.18672   0.97514   0.78232   0.00000  Uiso   1.00
C1202  C     0.18649   0.69144   0.78248   0.00000  Uiso   1.00
C1203  C     0.14643   0.97524   0.71780   0.00000  Uiso   1.00
C1204  C     0.02119   0.79541   0.73104   0.00000  Uiso   1.00
Cl1205 Cl    0.10679   0.89795   0.51605   0.00000  Uiso   1.00
Cl1206 Cl    0.10732   0.76699   0.98279   0.00000  Uiso   1.00
Cl1207 Cl    0.23157   0.89709   0.98174   0.00000  Uiso   1.00
Cl1208 Cl    0.23141   0.76823   0.51947   0.00000  Uiso   1.00
Cl1209 Cl    0.10286   0.89629   0.61996   0.00000  Uiso   1.00
Cl1210 Cl    0.10416   0.76840   0.87876   0.00000  Uiso   1.00
Cl1211 Cl    0.23373   0.89366   0.87756   0.00000  Uiso   1.00
Cl1212 Cl    0.23281   0.77142   0.62373   0.00000  Uiso   1.00
Cu1213 Cu    0.16667   0.88022   0.75000   0.00000  Uiso   1.00
Cu1214 Cu    0.16667   0.78645   0.75000   0.00000  Uiso   1.00
H1215  H     0.13071   0.71031   0.69163   0.00000  Uiso   1.00
H1216  H     0.26362   0.90679   0.68776   0.00000  Uiso   1.00
H1217  H     0.27010   0.96878   0.69733   0.00000  Uiso   1.00
H1218  H     0.31286   0.93330   0.68036   0.00000  Uiso   1.00
H1219  H     0.27036   0.93288   0.77204   0.00000  Uiso   1.00
H1220  H     0.31894   0.95307   0.75690   0.00000  Uiso   1.00
H1221  H     0.31714   0.74070   0.82104   0.00000  Uiso   1.00
H1222  H     0.26541   0.76076   0.81392   0.00000  Uiso   1.00
H1223  H     0.27741   0.69921   0.80798   0.00000  Uiso   1.00
H1224  H     0.27016   0.73293   0.73152   0.00000  Uiso   1.00
H1225  H     0.31976   0.71421   0.74474   0.00000  Uiso   1.00
H1226  H     0.20285   0.95644   0.80815   0.00000  Uiso   1.00
H1227  H     0.08298   0.85712   0.83425   0.00000  Uiso   1.00
H1228  H     0.06745   0.90578   0.86769   0.00000  Uiso   1.00
H1229  H     0.03247   0.85788   0.85779   0.00000  Uiso   1.00
H1230  H     0.06416   0.92788   0.78685   0.00000  Uiso   1.00
H1231  H     0.01698   0.93004   0.81530   0.00000  Uiso   1.00
H1232  H     0.20205   0.71011   0.80869   0.00000  Uiso   1.00
H1233  H     0.13005   0.95660   0.69219   0.00000  Uiso   1.00
H1234  H     0.03275   0.80760   0.64143   0.00000  Uiso   1.00
H1235  H     0.08316   0.80789   0.66582   0.00000  Uiso   1.00
H1236  H     0.06714   0.75891   0.63292   0.00000  Uiso   1.00
H1237  H     0.06310   0.73835   0.71408   0.00000  Uiso   1.00
H1238  H     0.01604   0.73654   0.68487   0.00000  Uiso   1.00
N1239  N     0.16667   0.95069   0.75000   0.00000  Uiso   1.00
N1240  N     0.16667   0.71598   0.75000   0.00000  Uiso   1.00
O1241  O     0.10655   0.87291   0.74999   0.00000  Uiso   1.00
O1242  O     0.22679   0.79375   0.75000   0.00000  Uiso   1.00
O1243  O     0.22679   0.87291   0.75000   0.00000  Uiso   1.00
O1244  O     0.10655   0.79375   0.74999   0.00000  Uiso   1.00
O1245  O     0.16666   0.87293   0.68573   0.00000  Uiso   1.00
O1246  O     0.16667   0.79374   0.81427   0.00000  Uiso   1.00
O1247  O     0.16667   0.87293   0.81427   0.00000  Uiso   1.00
O1248  O     0.16666   0.79374   0.68573   0.00000  Uiso   1.00
C1249  C     0.42081   0.83336   0.74986   0.00000  Uiso   1.00
C1250  C     0.64679   0.87604   0.75688   0.00000  Uiso   1.00
C1251  C     0.64677   0.79108   0.74272   0.00000  Uiso   1.00
C1252  C     0.35477   0.87170   0.76830   0.00000  Uiso   1.00
C1253  C     0.47430   0.86191   0.54642   0.00000  Uiso   1.00
C1254  C     0.47465   0.80347   0.95307   0.00000  Uiso   1.00
C1255  C     0.52999   0.86098   0.95261   0.00000  Uiso   1.00
C1256  C     0.52980   0.80457   0.54793   0.00000  Uiso   1.00
C1257  C     0.47338   0.86191   0.59266   0.00000  Uiso   1.00
C1258  C     0.47383   0.80373   0.90681   0.00000  Uiso   1.00
C1259  C     0.52975   0.86080   0.90634   0.00000  Uiso   1.00
C1260  C     0.57952   0.83336   0.75005   0.00000  Uiso   1.00
C1261  C     0.52946   0.80502   0.59421   0.00000  Uiso   1.00
C1262  C     0.50100   0.83344   0.61664   0.00000  Uiso   1.00
C1263  C     0.50117   0.83278   0.88337   0.00000  Uiso   1.00
C1264  C     0.50230   0.83306   0.52424   0.00000  Uiso   1.00
C1265  C     0.50243   0.83239   0.97579   0.00000  Uiso   1.00
C1266  C     0.62450   0.83350   0.74988   0.00000  Uiso   1.00
C1267  C     0.37641   0.83350   0.74968   0.00000  Uiso   1.00
C1268  C     0.37300   0.76079   0.69807   0.00000  Uiso   1.00
C1269  C     0.39007   0.78552   0.65723   0.00000  Uiso   1.00
C1270  C     0.62943   0.92541   0.74950   0.00000  Uiso   1.00
C1271  C     0.50027   0.83338   0.66496   0.00000  Uiso   1.00
C1272  C     0.61814   0.93379   0.70087   0.00000  Uiso   1.00
C1273  C     0.63032   0.74182   0.75237   0.00000  Uiso   1.00
C1274  C     0.62185   0.73548   0.80177   0.00000  Uiso   1.00
C1275  C     0.37359   0.90557   0.80202   0.00000  Uiso   1.00
C1276  C     0.39015   0.87982   0.84276   0.00000  Uiso   1.00
C1277  C     0.50041   0.83322   0.83504   0.00000  Uiso   1.00
C1278  C     0.47998   0.69156   0.71763   0.00000  Uiso   1.00
C1279  C     0.52005   0.97514   0.78232   0.00000  Uiso   1.00
C1280  C     0.51983   0.69144   0.78248   0.00000  Uiso   1.00
C1281  C     0.47976   0.97524   0.71780   0.00000  Uiso   1.00
C1282  C     0.35453   0.79541   0.73104   0.00000  Uiso   1.00
Cl1283 Cl    0.44012   0.89795   0.51605   0.00000  Uiso   1.00
Cl1284 Cl    0.44065   0.76699   0.98279   0.00000  Uiso   1.00
Cl1285 Cl    0.56490   0.89709   0.98174   0.00000  Uiso   1.00
Cl1286 Cl    0.56474   0.76823   0.51947   0.00000  Uiso   1.00
Cl1287 Cl    0.43619   0.89629   0.61996   0.00000  Uiso   1.00
Cl1288 Cl    0.43749   0.76840   0.87876   0.00000  Uiso   1.00
Cl1289 Cl    0.56707   0.89366   0.87756   0.00000  Uiso   1.00
Cl1290 Cl    0.56614   0.77142   0.62373   0.00000  Uiso   1.00
Cu1291 Cu    0.50000   0.88022   0.75000   0.00000  Uiso   1.00
Cu1292 Cu    0.50000   0.78645   0.75000   0.00000  Uiso   1.00
H1293  H     0.46404   0.71031   0.69163   0.00000  Uiso   1.00
H1294  H     0.59695   0.90679   0.68776   0.00000  Uiso   1.00
H1295  H     0.60343   0.96878   0.69733   0.00000  Uiso   1.00
H1296  H     0.64620   0.93330   0.68036   0.00000  Uiso   1.00
H1297  H     0.60369   0.93288   0.77204   0.00000  Uiso   1.00
H1298  H     0.65227   0.95307   0.75690   0.00000  Uiso   1.00
H1299  H     0.65047   0.74070   0.82104   0.00000  Uiso   1.00
H1300  H     0.59874   0.76076   0.81392   0.00000  Uiso   1.00
H1301  H     0.61074   0.69921   0.80798   0.00000  Uiso   1.00
H1302  H     0.60350   0.73293   0.73152   0.00000  Uiso   1.00
H1303  H     0.65309   0.71421   0.74474   0.00000  Uiso   1.00
H1304  H     0.53618   0.95644   0.80815   0.00000  Uiso   1.00
H1305  H     0.41632   0.85712   0.83425   0.00000  Uiso   1.00
H1306  H     0.40078   0.90578   0.86769   0.00000  Uiso   1.00
H1307  H     0.36580   0.85788   0.85779   0.00000  Uiso   1.00
H1308  H     0.39749   0.92788   0.78685   0.00000  Uiso   1.00
H1309  H     0.35032   0.93004   0.81530   0.00000  Uiso   1.00
H1310  H     0.53539   0.71011   0.80869   0.00000  Uiso   1.00
H1311  H     0.46338   0.95660   0.69219   0.00000  Uiso   1.00
H1312  H     0.36609   0.80760   0.64143   0.00000  Uiso   1.00
H1313  H     0.41649   0.80789   0.66582   0.00000  Uiso   1.00
H1314  H     0.40048   0.75891   0.63292   0.00000  Uiso   1.00
H1315  H     0.39644   0.73835   0.71408   0.00000  Uiso   1.00
H1316  H     0.34937   0.73654   0.68487   0.00000  Uiso   1.00
N1317  N     0.50000   0.95069   0.75000   0.00000  Uiso   1.00
N1318  N     0.50000   0.71598   0.75000   0.00000  Uiso   1.00
O1319  O     0.43988   0.87291   0.74999   0.00000  Uiso   1.00
O1320  O     0.56012   0.79375   0.75000   0.00000  Uiso   1.00
O1321  O     0.56012   0.87291   0.75000   0.00000  Uiso   1.00
O1322  O     0.43988   0.79375   0.74999   0.00000  Uiso   1.00
O1323  O     0.50000   0.87293   0.68573   0.00000  Uiso   1.00
O1324  O     0.50000   0.79374   0.81427   0.00000  Uiso   1.00
O1325  O     0.50000   0.87293   0.81427   0.00000  Uiso   1.00
O1326  O     0.50000   0.79374   0.68573   0.00000  Uiso   1.00
C1327  C     0.75414   0.83336   0.74986   0.00000  Uiso   1.00
C1328  C     0.98012   0.87604   0.75688   0.00000  Uiso   1.00
C1329  C     0.98010   0.79108   0.74272   0.00000  Uiso   1.00
C1330  C     0.68811   0.87170   0.76830   0.00000  Uiso   1.00
C1331  C     0.80764   0.86191   0.54642   0.00000  Uiso   1.00
C1332  C     0.80798   0.80347   0.95307   0.00000  Uiso   1.00
C1333  C     0.86332   0.86098   0.95261   0.00000  Uiso   1.00
C1334  C     0.86314   0.80457   0.54793   0.00000  Uiso   1.00
C1335  C     0.80671   0.86191   0.59266   0.00000  Uiso   1.00
C1336  C     0.80716   0.80373   0.90681   0.00000  Uiso   1.00
C1337  C     0.86308   0.86080   0.90634   0.00000  Uiso   1.00
C1338  C     0.91285   0.83336   0.75005   0.00000  Uiso   1.00
C1339  C     0.86279   0.80502   0.59421   0.00000  Uiso   1.00
C1340  C     0.83433   0.83344   0.61664   0.00000  Uiso   1.00
C1341  C     0.83450   0.83278   0.88337   0.00000  Uiso   1.00
C1342  C     0.83563   0.83306   0.52424   0.00000  Uiso   1.00
C1343  C     0.83577   0.83239   0.97579   0.00000  Uiso   1.00
C1344  C     0.95783   0.83350   0.74988   0.00000  Uiso   1.00
C1345  C     0.70975   0.83350   0.74968   0.00000  Uiso   1.00
C1346  C     0.70633   0.76079   0.69807   0.00000  Uiso   1.00
C1347  C     0.72340   0.78552   0.65723   0.00000  Uiso   1.00
C1348  C     0.96277   0.92541   0.74950   0.00000  Uiso   1.00
C1349  C     0.83360   0.83338   0.66496   0.00000  Uiso   1.00
C1350  C     0.95148   0.93379   0.70087   0.00000  Uiso   1.00
C1351  C     0.96365   0.74182   0.75237   0.00000  Uiso   1.00
C1352  C     0.95518   0.73548   0.80177   0.00000  Uiso   1.00
C1353  C     0.70693   0.90557   0.80202   0.00000  Uiso   1.00
C1354  C     0.72348   0.87982   0.84276   0.00000  Uiso   1.00
C1355  C     0.83375   0.83322   0.83504   0.00000  Uiso   1.00
C1356  C     0.81331   0.69156   0.71763   0.00000  Uiso   1.00
C1357  C     0.85339   0.97514   0.78232   0.00000  Uiso   1.00
C1358  C     0.85316   0.69144   0.78248   0.00000  Uiso   1.00
C1359  C     0.81310   0.97524   0.71780   0.00000  Uiso   1.00
C1360  C     0.68786   0.79541   0.73104   0.00000  Uiso   1.00
Cl1361 Cl    0.77346   0.89795   0.51605   0.00000  Uiso   1.00
Cl1362 Cl    0.77399   0.76699   0.98279   0.00000  Uiso   1.00
Cl1363 Cl    0.89823   0.89709   0.98174   0.00000  Uiso   1.00
Cl1364 Cl    0.89807   0.76823   0.51947   0.00000  Uiso   1.00
Cl1365 Cl    0.76953   0.89629   0.61996   0.00000  Uiso   1.00
Cl1366 Cl    0.77082   0.76840   0.87876   0.00000  Uiso   1.00
Cl1367 Cl    0.90040   0.89366   0.87756   0.00000  Uiso   1.00
Cl1368 Cl    0.89948   0.77142   0.62373   0.00000  Uiso   1.00
Cu1369 Cu    0.83333   0.88022   0.75000   0.00000  Uiso   1.00
Cu1370 Cu    0.83333   0.78645   0.75000   0.00000  Uiso   1.00
H1371  H     0.79738   0.71031   0.69163   0.00000  Uiso   1.00
H1372  H     0.93029   0.90679   0.68776   0.00000  Uiso   1.00
H1373  H     0.93677   0.96878   0.69733   0.00000  Uiso   1.00
H1374  H     0.97953   0.93330   0.68036   0.00000  Uiso   1.00
H1375  H     0.93703   0.93288   0.77204   0.00000  Uiso   1.00
H1376  H     0.98560   0.95307   0.75690   0.00000  Uiso   1.00
H1377  H     0.98381   0.74070   0.82104   0.00000  Uiso   1.00
H1378  H     0.93207   0.76076   0.81392   0.00000  Uiso   1.00
H1379  H     0.94407   0.69921   0.80798   0.00000  Uiso   1.00
H1380  H     0.93683   0.73293   0.73152   0.00000  Uiso   1.00
H1381  H     0.98642   0.71421   0.74474   0.00000  Uiso   1.00
H1382  H     0.86952   0.95644   0.80815   0.00000  Uiso   1.00
H1383  H     0.74965   0.85712   0.83425   0.00000  Uiso   1.00
H1384  H     0.73411   0.90578   0.86769   0.00000  Uiso   1.00
H1385  H     0.69914   0.85788   0.85779   0.00000  Uiso   1.00
H1386  H     0.73082   0.92788   0.78685   0.00000  Uiso   1.00
H1387  H     0.68365   0.93004   0.81530   0.00000  Uiso   1.00
H1388  H     0.86872   0.71011   0.80869   0.00000  Uiso   1.00
H1389  H     0.79671   0.95660   0.69219   0.00000  Uiso   1.00
H1390  H     0.69942   0.80760   0.64143   0.00000  Uiso   1.00
H1391  H     0.74983   0.80789   0.66582   0.00000  Uiso   1.00
H1392  H     0.73381   0.75891   0.63292   0.00000  Uiso   1.00
H1393  H     0.72977   0.73835   0.71408   0.00000  Uiso   1.00
H1394  H     0.68271   0.73654   0.68487   0.00000  Uiso   1.00
N1395  N     0.83333   0.95069   0.75000   0.00000  Uiso   1.00
N1396  N     0.83333   0.71598   0.75000   0.00000  Uiso   1.00
O1397  O     0.77321   0.87291   0.74999   0.00000  Uiso   1.00
O1398  O     0.89345   0.79375   0.75000   0.00000  Uiso   1.00
O1399  O     0.89345   0.87291   0.75000   0.00000  Uiso   1.00
O1400  O     0.77321   0.79375   0.74999   0.00000  Uiso   1.00
O1401  O     0.83333   0.87293   0.68573   0.00000  Uiso   1.00
O1402  O     0.83334   0.79374   0.81427   0.00000  Uiso   1.00
O1403  O     0.83334   0.87293   0.81427   0.00000  Uiso   1.00
O1404  O     0.83333   0.79374   0.68573   0.00000  Uiso   1.00
loop_
_geom_bond_atom_site_label_1
_geom_bond_atom_site_label_2
_geom_bond_distance
_geom_bond_site_symmetry_2
_ccdc_geom_bond_type
C1     O71     1.287   .     A
C1     O74     1.288   .     A
C1     C19     1.454   .     S
C2     C18     1.429   .     A
C2     C22     1.531   .     S
C2     C82     1.400   .     S
C3     C18     1.428   .     A
C3     C25     1.530   .     S
C3     C112    1.398   .     S
C4     C19     1.416   .     A
C4     C27     1.531   .     S
C4     C158    1.400   1_455 S
C5     C9      1.398   .     A
C5     C16     1.404   .     A
C5     Cl35    1.770   .     S
C6     C17     1.404   .     A
C6     C10     1.398   .     A
C6     Cl36    1.770   .     S
C7     C11     1.398   .     A
C7     C17     1.404   .     A
C7     Cl37    1.769   .     S
C8     C13     1.398   .     A
C8     C16     1.404   .     A
C8     Cl38    1.769   .     S
C9     Cl39    1.770   .     S
C9     C14     1.411   .     A
C10    Cl40    1.771   .     S
C10    C15     1.412   .     A
C11    C15     1.410   .     A
C11    Cl41    1.770   .     S
C12    O72     1.294   .     A
C12    C18     1.473   .     S
C12    O73     1.292   .     A
C13    C14     1.411   .     A
C13    Cl42    1.772   .     S
C14    C23     1.460   .     S
C15    C29     1.460   .     S
C16    C719    1.464   1_554 S
C17    C718    1.464   .     S
C19    C34     1.415   .     A
C20    C34     1.529   .     S
C20    H67     1.107   .     S
C20    H68     1.110   .     S
C20    C21     1.528   .     S
C21    H66     1.111   .     S
C21    H64     1.111   .     S
C21    H65     1.104   .     S
C22    H50     1.108   .     S
C22    H49     1.107   .     S
C22    C24     1.532   .     S
C23    O75     1.289   .     A
C23    O78     1.290   .     A
C24    H48     1.111   .     S
C24    H47     1.111   .     S
C24    H46     1.108   .     S
C25    H54     1.108   .     S
C25    C26     1.530   .     S
C25    H55     1.108   .     S
C26    H52     1.108   .     S
C26    H53     1.110   .     S
C26    H51     1.111   .     S
C27    H60     1.108   .     S
C27    H61     1.109   .     S
C27    C28     1.529   .     S
C28    H57     1.105   .     S
C28    H59     1.111   .     S
C28    H58     1.111   .     S
C29    O76     1.288   .     A
C29    O77     1.292   .     A
C30    H45     1.081   .     S
C30    N70     1.366   .     A
C30    C501    1.413   1_545 S
C31    H56     1.080   .     S
C31    N69     1.366   .     A
C31    C266    1.412   .     S
C32    N70     1.365   .     A
C32    H62     1.080   .     S
C32    C499    1.412   1_545 S
C33    N69     1.366   .     A
C33    H63     1.080   .     S
C33    C264    1.413   .     S
C34    C159    1.398   1_455 S
Cu43   O73     1.980   .     S
Cu43   Cu44    2.668   .     S
Cu43   O75     1.953   .     S
Cu43   O71     1.980   .     S
Cu43   O77     1.953   .     S
Cu43   N69     2.005   .     S
Cu44   O76     1.953   .     S
Cu44   O72     1.980   .     S
Cu44   O74     1.980   .     S
Cu44   N70     2.005   .     S
Cu44   O78     1.953   .     S
C79    O149    1.287   .     A
C79    O152    1.288   .     A
C79    C97     1.454   .     S
C80    C96     1.429   .     A
C80    C100    1.531   .     S
C80    C160    1.400   .     S
C81    C96     1.428   .     A
C81    C103    1.530   .     S
C81    C190    1.398   .     S
C82    C97     1.416   .     A
C82    C105    1.531   .     S
C83    C87     1.398   .     A
C83    C94     1.404   .     A
C83    Cl113   1.770   .     S
C84    C95     1.404   .     A
C84    C88     1.398   .     A
C84    Cl114   1.770   .     S
C85    C89     1.398   .     A
C85    C95     1.404   .     A
C85    Cl115   1.769   .     S
C86    C91     1.398   .     A
C86    C94     1.404   .     A
C86    Cl116   1.769   .     S
C87    Cl117   1.770   .     S
C87    C92     1.411   .     A
C88    Cl118   1.771   .     S
C88    C93     1.412   .     A
C89    C93     1.410   .     A
C89    Cl119   1.770   .     S
C90    O150    1.294   .     A
C90    C96     1.473   .     S
C90    O151    1.292   .     A
C91    C92     1.411   .     A
C91    Cl120   1.772   .     S
C92    C101    1.460   .     S
C93    C107    1.460   .     S
C94    C797    1.464   1_554 S
C95    C796    1.464   .     S
C97    C112    1.415   .     A
C98    C112    1.529   .     S
C98    H145    1.107   .     S
C98    H146    1.110   .     S
C98    C99     1.528   .     S
C99    H144    1.111   .     S
C99    H142    1.111   .     S
C99    H143    1.104   .     S
C100   H128    1.108   .     S
C100   H127    1.107   .     S
C100   C102    1.532   .     S
C101   O153    1.289   .     A
C101   O156    1.290   .     A
C102   H126    1.111   .     S
C102   H125    1.111   .     S
C102   H124    1.108   .     S
C103   H132    1.108   .     S
C103   C104    1.530   .     S
C103   H133    1.108   .     S
C104   H130    1.108   .     S
C104   H131    1.110   .     S
C104   H129    1.111   .     S
C105   H138    1.108   .     S
C105   H139    1.109   .     S
C105   C106    1.529   .     S
C106   H135    1.105   .     S
C106   H137    1.111   .     S
C106   H136    1.111   .     S
C107   O154    1.288   .     A
C107   O155    1.292   .     A
C108   H123    1.081   .     S
C108   N148    1.366   .     A
C108   C579    1.413   1_545 S
C109   H134    1.080   .     S
C109   N147    1.366   .     A
C109   C344    1.412   .     S
C110   N148    1.365   .     A
C110   H140    1.080   .     S
C110   C577    1.412   1_545 S
C111   N147    1.366   .     A
C111   H141    1.080   .     S
C111   C342    1.413   .     S
Cu121  O151    1.980   .     S
Cu121  Cu122   2.668   .     S
Cu121  O153    1.953   .     S
Cu121  O149    1.980   .     S
Cu121  O155    1.953   .     S
Cu121  N147    2.005   .     S
Cu122  O154    1.953   .     S
Cu122  O150    1.980   .     S
Cu122  O152    1.980   .     S
Cu122  N148    2.005   .     S
Cu122  O156    1.953   .     S
C157   O227    1.287   .     A
C157   O230    1.288   .     A
C157   C175    1.454   .     S
C158   C174    1.429   .     A
C158   C178    1.531   .     S
C158   C4      1.400   1_655 S
C159   C174    1.428   .     A
C159   C181    1.530   .     S
C159   C34     1.398   1_655 S
C160   C175    1.416   .     A
C160   C183    1.531   .     S
C161   C165    1.398   .     A
C161   C172    1.404   .     A
C161   Cl191   1.770   .     S
C162   C173    1.404   .     A
C162   C166    1.398   .     A
C162   Cl192   1.770   .     S
C163   C167    1.398   .     A
C163   C173    1.404   .     A
C163   Cl193   1.769   .     S
C164   C169    1.398   .     A
C164   C172    1.404   .     A
C164   Cl194   1.769   .     S
C165   Cl195   1.770   .     S
C165   C170    1.411   .     A
C166   Cl196   1.771   .     S
C166   C171    1.412   .     A
C167   C171    1.410   .     A
C167   Cl197   1.770   .     S
C168   O228    1.294   .     A
C168   C174    1.473   .     S
C168   O229    1.292   .     A
C169   C170    1.411   .     A
C169   Cl198   1.772   .     S
C170   C179    1.460   .     S
C171   C185    1.460   .     S
C172   C875    1.464   1_554 S
C173   C874    1.464   .     S
C175   C190    1.415   .     A
C176   C190    1.529   .     S
C176   H223    1.107   .     S
C176   H224    1.110   .     S
C176   C177    1.528   .     S
C177   H222    1.111   .     S
C177   H220    1.111   .     S
C177   H221    1.104   .     S
C178   H206    1.108   .     S
C178   H205    1.107   .     S
C178   C180    1.532   .     S
C179   O231    1.289   .     A
C179   O234    1.290   .     A
C180   H204    1.111   .     S
C180   H203    1.111   .     S
C180   H202    1.108   .     S
C181   H210    1.108   .     S
C181   C182    1.530   .     S
C181   H211    1.108   .     S
C182   H208    1.108   .     S
C182   H209    1.110   .     S
C182   H207    1.111   .     S
C183   H216    1.108   .     S
C183   H217    1.109   .     S
C183   C184    1.529   .     S
C184   H213    1.105   .     S
C184   H215    1.111   .     S
C184   H214    1.111   .     S
C185   O232    1.288   .     A
C185   O233    1.292   .     A
C186   H201    1.081   .     S
C186   N226    1.366   .     A
C186   C657    1.413   1_545 S
C187   H212    1.080   .     S
C187   N225    1.366   .     A
C187   C422    1.412   .     S
C188   N226    1.365   .     A
C188   H218    1.080   .     S
C188   C655    1.412   1_545 S
C189   N225    1.366   .     A
C189   H219    1.080   .     S
C189   C420    1.413   .     S
Cu199  O229    1.980   .     S
Cu199  Cu200   2.668   .     S
Cu199  O231    1.953   .     S
Cu199  O227    1.980   .     S
Cu199  O233    1.953   .     S
Cu199  N225    2.005   .     S
Cu200  O232    1.953   .     S
Cu200  O228    1.980   .     S
Cu200  O230    1.980   .     S
Cu200  N226    2.005   .     S
Cu200  O234    1.953   .     S
C235   O305    1.287   .     A
C235   O308    1.288   .     A
C235   C253    1.454   .     S
C236   C252    1.429   .     A
C236   C256    1.531   .     S
C236   C316    1.400   .     S
C237   C252    1.428   .     A
C237   C259    1.530   .     S
C237   C346    1.398   .     S
C238   C253    1.416   .     A
C238   C261    1.531   .     S
C238   C392    1.400   1_455 S
C239   C243    1.398   .     A
C239   C250    1.404   .     A
C239   Cl269   1.770   .     S
C240   C251    1.404   .     A
C240   C244    1.398   .     A
C240   Cl270   1.770   .     S
C241   C245    1.398   .     A
C241   C251    1.404   .     A
C241   Cl271   1.769   .     S
C242   C247    1.398   .     A
C242   C250    1.404   .     A
C242   Cl272   1.769   .     S
C243   Cl273   1.770   .     S
C243   C248    1.411   .     A
C244   Cl274   1.771   .     S
C244   C249    1.412   .     A
C245   C249    1.410   .     A
C245   Cl275   1.770   .     S
C246   O306    1.294   .     A
C246   C252    1.473   .     S
C246   O307    1.292   .     A
C247   C248    1.411   .     A
C247   Cl276   1.772   .     S
C248   C257    1.460   .     S
C249   C263    1.460   .     S
C250   C953    1.464   1_554 S
C251   C952    1.464   .     S
C253   C268    1.415   .     A
C254   C268    1.529   .     S
C254   H301    1.107   .     S
C254   H302    1.110   .     S
C254   C255    1.528   .     S
C255   H300    1.111   .     S
C255   H298    1.111   .     S
C255   H299    1.104   .     S
C256   H284    1.108   .     S
C256   H283    1.107   .     S
C256   C258    1.532   .     S
C257   O309    1.289   .     A
C257   O312    1.290   .     A
C258   H282    1.111   .     S
C258   H281    1.111   .     S
C258   H280    1.108   .     S
C259   H288    1.108   .     S
C259   C260    1.530   .     S
C259   H289    1.108   .     S
C260   H286    1.108   .     S
C260   H287    1.110   .     S
C260   H285    1.111   .     S
C261   H294    1.108   .     S
C261   H295    1.109   .     S
C261   C262    1.529   .     S
C262   H291    1.105   .     S
C262   H293    1.111   .     S
C262   H292    1.111   .     S
C263   O310    1.288   .     A
C263   O311    1.292   .     A
C264   H279    1.081   .     S
C264   N304    1.366   .     A
C265   H290    1.080   .     S
C265   N303    1.366   .     A
C265   C500    1.412   .     S
C266   N304    1.365   .     A
C266   H296    1.080   .     S
C267   N303    1.366   .     A
C267   H297    1.080   .     S
C267   C498    1.413   .     S
C268   C393    1.398   1_455 S
Cu277  O307    1.980   .     S
Cu277  Cu278   2.668   .     S
Cu277  O309    1.953   .     S
Cu277  O305    1.980   .     S
Cu277  O311    1.953   .     S
Cu277  N303    2.005   .     S
Cu278  O310    1.953   .     S
Cu278  O306    1.980   .     S
Cu278  O308    1.980   .     S
Cu278  N304    2.005   .     S
Cu278  O312    1.953   .     S
C313   O383    1.287   .     A
C313   O386    1.288   .     A
C313   C331    1.454   .     S
C314   C330    1.429   .     A
C314   C334    1.531   .     S
C314   C394    1.400   .     S
C315   C330    1.428   .     A
C315   C337    1.530   .     S
C315   C424    1.398   .     S
C316   C331    1.416   .     A
C316   C339    1.531   .     S
C317   C321    1.398   .     A
C317   C328    1.404   .     A
C317   Cl347   1.770   .     S
C318   C329    1.404   .     A
C318   C322    1.398   .     A
C318   Cl348   1.770   .     S
C319   C323    1.398   .     A
C319   C329    1.404   .     A
C319   Cl349   1.769   .     S
C320   C325    1.398   .     A
C320   C328    1.404   .     A
C320   Cl350   1.769   .     S
C321   Cl351   1.770   .     S
C321   C326    1.411   .     A
C322   Cl352   1.771   .     S
C322   C327    1.412   .     A
C323   C327    1.410   .     A
C323   Cl353   1.770   .     S
C324   O384    1.294   .     A
C324   C330    1.473   .     S
C324   O385    1.292   .     A
C325   C326    1.411   .     A
C325   Cl354   1.772   .     S
C326   C335    1.460   .     S
C327   C341    1.460   .     S
C328   C1031   1.464   1_554 S
C329   C1030   1.464   .     S
C331   C346    1.415   .     A
C332   C346    1.529   .     S
C332   H379    1.107   .     S
C332   H380    1.110   .     S
C332   C333    1.528   .     S
C333   H378    1.111   .     S
C333   H376    1.111   .     S
C333   H377    1.104   .     S
C334   H362    1.108   .     S
C334   H361    1.107   .     S
C334   C336    1.532   .     S
C335   O387    1.289   .     A
C335   O390    1.290   .     A
C336   H360    1.111   .     S
C336   H359    1.111   .     S
C336   H358    1.108   .     S
C337   H366    1.108   .     S
C337   C338    1.530   .     S
C337   H367    1.108   .     S
C338   H364    1.108   .     S
C338   H365    1.110   .     S
C338   H363    1.111   .     S
C339   H372    1.108   .     S
C339   H373    1.109   .     S
C339   C340    1.529   .     S
C340   H369    1.105   .     S
C340   H371    1.111   .     S
C340   H370    1.111   .     S
C341   O388    1.288   .     A
C341   O389    1.292   .     A
C342   H357    1.081   .     S
C342   N382    1.366   .     A
C343   H368    1.080   .     S
C343   N381    1.366   .     A
C343   C578    1.412   .     S
C344   N382    1.365   .     A
C344   H374    1.080   .     S
C345   N381    1.366   .     A
C345   H375    1.080   .     S
C345   C576    1.413   .     S
Cu355  O385    1.980   .     S
Cu355  Cu356   2.668   .     S
Cu355  O387    1.953   .     S
Cu355  O383    1.980   .     S
Cu355  O389    1.953   .     S
Cu355  N381    2.005   .     S
Cu356  O388    1.953   .     S
Cu356  O384    1.980   .     S
Cu356  O386    1.980   .     S
Cu356  N382    2.005   .     S
Cu356  O390    1.953   .     S
C391   O461    1.287   .     A
C391   O464    1.288   .     A
C391   C409    1.454   .     S
C392   C408    1.429   .     A
C392   C412    1.531   .     S
C392   C238    1.400   1_655 S
C393   C408    1.428   .     A
C393   C415    1.530   .     S
C393   C268    1.398   1_655 S
C394   C409    1.416   .     A
C394   C417    1.531   .     S
C395   C399    1.398   .     A
C395   C406    1.404   .     A
C395   Cl425   1.770   .     S
C396   C407    1.404   .     A
C396   C400    1.398   .     A
C396   Cl426   1.770   .     S
C397   C401    1.398   .     A
C397   C407    1.404   .     A
C397   Cl427   1.769   .     S
C398   C403    1.398   .     A
C398   C406    1.404   .     A
C398   Cl428   1.769   .     S
C399   Cl429   1.770   .     S
C399   C404    1.411   .     A
C400   Cl430   1.771   .     S
C400   C405    1.412   .     A
C401   C405    1.410   .     A
C401   Cl431   1.770   .     S
C402   O462    1.294   .     A
C402   C408    1.473   .     S
C402   O463    1.292   .     A
C403   C404    1.411   .     A
C403   Cl432   1.772   .     S
C404   C413    1.460   .     S
C405   C419    1.460   .     S
C406   C1109   1.464   1_554 S
C407   C1108   1.464   .     S
C409   C424    1.415   .     A
C410   C424    1.529   .     S
C410   H457    1.107   .     S
C410   H458    1.110   .     S
C410   C411    1.528   .     S
C411   H456    1.111   .     S
C411   H454    1.111   .     S
C411   H455    1.104   .     S
C412   H440    1.108   .     S
C412   H439    1.107   .     S
C412   C414    1.532   .     S
C413   O465    1.289   .     A
C413   O468    1.290   .     A
C414   H438    1.111   .     S
C414   H437    1.111   .     S
C414   H436    1.108   .     S
C415   H444    1.108   .     S
C415   C416    1.530   .     S
C415   H445    1.108   .     S
C416   H442    1.108   .     S
C416   H443    1.110   .     S
C416   H441    1.111   .     S
C417   H450    1.108   .     S
C417   H451    1.109   .     S
C417   C418    1.529   .     S
C418   H447    1.105   .     S
C418   H449    1.111   .     S
C418   H448    1.111   .     S
C419   O466    1.288   .     A
C419   O467    1.292   .     A
C420   H435    1.081   .     S
C420   N460    1.366   .     A
C421   H446    1.080   .     S
C421   N459    1.366   .     A
C421   C656    1.412   .     S
C422   N460    1.365   .     A
C422   H452    1.080   .     S
C423   N459    1.366   .     A
C423   H453    1.080   .     S
C423   C654    1.413   .     S
Cu433  O463    1.980   .     S
Cu433  Cu434   2.668   .     S
Cu433  O465    1.953   .     S
Cu433  O461    1.980   .     S
Cu433  O467    1.953   .     S
Cu433  N459    2.005   .     S
Cu434  O466    1.953   .     S
Cu434  O462    1.980   .     S
Cu434  O464    1.980   .     S
Cu434  N460    2.005   .     S
Cu434  O468    1.953   .     S
C469   O539    1.287   .     A
C469   O542    1.288   .     A
C469   C487    1.454   .     S
C470   C486    1.429   .     A
C470   C490    1.531   .     S
C470   C550    1.400   .     S
C471   C486    1.428   .     A
C471   C493    1.530   .     S
C471   C580    1.398   .     S
C472   C487    1.416   .     A
C472   C495    1.531   .     S
C472   C626    1.400   1_455 S
C473   C477    1.398   .     A
C473   C484    1.404   .     A
C473   Cl503   1.770   .     S
C474   C485    1.404   .     A
C474   C478    1.398   .     A
C474   Cl504   1.770   .     S
C475   C479    1.398   .     A
C475   C485    1.404   .     A
C475   Cl505   1.769   .     S
C476   C481    1.398   .     A
C476   C484    1.404   .     A
C476   Cl506   1.769   .     S
C477   Cl507   1.770   .     S
C477   C482    1.411   .     A
C478   Cl508   1.771   .     S
C478   C483    1.412   .     A
C479   C483    1.410   .     A
C479   Cl509   1.770   .     S
C480   O540    1.294   .     A
C480   C486    1.473   .     S
C480   O541    1.292   .     A
C481   C482    1.411   .     A
C481   Cl510   1.772   .     S
C482   C491    1.460   .     S
C483   C497    1.460   .     S
C484   C1187   1.464   1_554 S
C485   C1186   1.464   .     S
C487   C502    1.415   .     A
C488   C502    1.529   .     S
C488   H535    1.107   .     S
C488   H536    1.110   .     S
C488   C489    1.528   .     S
C489   H534    1.111   .     S
C489   H532    1.111   .     S
C489   H533    1.104   .     S
C490   H518    1.108   .     S
C490   H517    1.107   .     S
C490   C492    1.532   .     S
C491   O543    1.289   .     A
C491   O546    1.290   .     A
C492   H516    1.111   .     S
C492   H515    1.111   .     S
C492   H514    1.108   .     S
C493   H522    1.108   .     S
C493   C494    1.530   .     S
C493   H523    1.108   .     S
C494   H520    1.108   .     S
C494   H521    1.110   .     S
C494   H519    1.111   .     S
C495   H528    1.108   .     S
C495   H529    1.109   .     S
C495   C496    1.529   .     S
C496   H525    1.105   .     S
C496   H527    1.111   .     S
C496   H526    1.111   .     S
C497   O544    1.288   .     A
C497   O545    1.292   .     A
C498   H513    1.081   .     S
C498   N538    1.366   .     A
C499   H524    1.080   .     S
C499   N537    1.366   .     A
C499   C32     1.412   1_565 S
C500   N538    1.365   .     A
C500   H530    1.080   .     S
C501   N537    1.366   .     A
C501   H531    1.080   .     S
C501   C30     1.413   1_565 S
C502   C627    1.398   1_455 S
Cu511  O541    1.980   .     S
Cu511  Cu512   2.668   .     S
Cu511  O543    1.953   .     S
Cu511  O539    1.980   .     S
Cu511  O545    1.953   .     S
Cu511  N537    2.005   .     S
Cu512  O544    1.953   .     S
Cu512  O540    1.980   .     S
Cu512  O542    1.980   .     S
Cu512  N538    2.005   .     S
Cu512  O546    1.953   .     S
C547   O617    1.287   .     A
C547   O620    1.288   .     A
C547   C565    1.454   .     S
C548   C564    1.429   .     A
C548   C568    1.531   .     S
C548   C628    1.400   .     S
C549   C564    1.428   .     A
C549   C571    1.530   .     S
C549   C658    1.398   .     S
C550   C565    1.416   .     A
C550   C573    1.531   .     S
C551   C555    1.398   .     A
C551   C562    1.404   .     A
C551   Cl581   1.770   .     S
C552   C563    1.404   .     A
C552   C556    1.398   .     A
C552   Cl582   1.770   .     S
C553   C557    1.398   .     A
C553   C563    1.404   .     A
C553   Cl583   1.769   .     S
C554   C559    1.398   .     A
C554   C562    1.404   .     A
C554   Cl584   1.769   .     S
C555   Cl585   1.770   .     S
C555   C560    1.411   .     A
C556   Cl586   1.771   .     S
C556   C561    1.412   .     A
C557   C561    1.410   .     A
C557   Cl587   1.770   .     S
C558   O618    1.294   .     A
C558   C564    1.473   .     S
C558   O619    1.292   .     A
C559   C560    1.411   .     A
C559   Cl588   1.772   .     S
C560   C569    1.460   .     S
C561   C575    1.460   .     S
C562   C1265   1.464   1_554 S
C563   C1264   1.464   .     S
C565   C580    1.415   .     A
C566   C580    1.529   .     S
C566   H613    1.107   .     S
C566   H614    1.110   .     S
C566   C567    1.528   .     S
C567   H612    1.111   .     S
C567   H610    1.111   .     S
C567   H611    1.104   .     S
C568   H596    1.108   .     S
C568   H595    1.107   .     S
C568   C570    1.532   .     S
C569   O621    1.289   .     A
C569   O624    1.290   .     A
C570   H594    1.111   .     S
C570   H593    1.111   .     S
C570   H592    1.108   .     S
C571   H600    1.108   .     S
C571   C572    1.530   .     S
C571   H601    1.108   .     S
C572   H598    1.108   .     S
C572   H599    1.110   .     S
C572   H597    1.111   .     S
C573   H606    1.108   .     S
C573   H607    1.109   .     S
C573   C574    1.529   .     S
C574   H603    1.105   .     S
C574   H605    1.111   .     S
C574   H604    1.111   .     S
C575   O622    1.288   .     A
C575   O623    1.292   .     A
C576   H591    1.081   .     S
C576   N616    1.366   .     A
C577   H602    1.080   .     S
C577   N615    1.366   .     A
C577   C110    1.412   1_565 S
C578   N616    1.365   .     A
C578   H608    1.080   .     S
C579   N615    1.366   .     A
C579   H609    1.080   .     S
C579   C108    1.413   1_565 S
Cu589  O619    1.980   .     S
Cu589  Cu590   2.668   .     S
Cu589  O621    1.953   .     S
Cu589  O617    1.980   .     S
Cu589  O623    1.953   .     S
Cu589  N615    2.005   .     S
Cu590  O622    1.953   .     S
Cu590  O618    1.980   .     S
Cu590  O620    1.980   .     S
Cu590  N616    2.005   .     S
Cu590  O624    1.953   .     S
C625   O695    1.287   .     A
C625   O698    1.288   .     A
C625   C643    1.454   .     S
C626   C642    1.429   .     A
C626   C646    1.531   .     S
C626   C472    1.400   1_655 S
C627   C642    1.428   .     A
C627   C649    1.530   .     S
C627   C502    1.398   1_655 S
C628   C643    1.416   .     A
C628   C651    1.531   .     S
C629   C633    1.398   .     A
C629   C640    1.404   .     A
C629   Cl659   1.770   .     S
C630   C641    1.404   .     A
C630   C634    1.398   .     A
C630   Cl660   1.770   .     S
C631   C635    1.398   .     A
C631   C641    1.404   .     A
C631   Cl661   1.769   .     S
C632   C637    1.398   .     A
C632   C640    1.404   .     A
C632   Cl662   1.769   .     S
C633   Cl663   1.770   .     S
C633   C638    1.411   .     A
C634   Cl664   1.771   .     S
C634   C639    1.412   .     A
C635   C639    1.410   .     A
C635   Cl665   1.770   .     S
C636   O696    1.294   .     A
C636   C642    1.473   .     S
C636   O697    1.292   .     A
C637   C638    1.411   .     A
C637   Cl666   1.772   .     S
C638   C647    1.460   .     S
C639   C653    1.460   .     S
C640   C1343   1.464   1_554 S
C641   C1342   1.464   .     S
C643   C658    1.415   .     A
C644   C658    1.529   .     S
C644   H691    1.107   .     S
C644   H692    1.110   .     S
C644   C645    1.528   .     S
C645   H690    1.111   .     S
C645   H688    1.111   .     S
C645   H689    1.104   .     S
C646   H674    1.108   .     S
C646   H673    1.107   .     S
C646   C648    1.532   .     S
C647   O699    1.289   .     A
C647   O702    1.290   .     A
C648   H672    1.111   .     S
C648   H671    1.111   .     S
C648   H670    1.108   .     S
C649   H678    1.108   .     S
C649   C650    1.530   .     S
C649   H679    1.108   .     S
C650   H676    1.108   .     S
C650   H677    1.110   .     S
C650   H675    1.111   .     S
C651   H684    1.108   .     S
C651   H685    1.109   .     S
C651   C652    1.529   .     S
C652   H681    1.105   .     S
C652   H683    1.111   .     S
C652   H682    1.111   .     S
C653   O700    1.288   .     A
C653   O701    1.292   .     A
C654   H669    1.081   .     S
C654   N694    1.366   .     A
C655   H680    1.080   .     S
C655   N693    1.366   .     A
C655   C188    1.412   1_565 S
C656   N694    1.365   .     A
C656   H686    1.080   .     S
C657   N693    1.366   .     A
C657   H687    1.080   .     S
C657   C186    1.413   1_565 S
Cu667  O697    1.980   .     S
Cu667  Cu668   2.668   .     S
Cu667  O699    1.953   .     S
Cu667  O695    1.980   .     S
Cu667  O701    1.953   .     S
Cu667  N693    2.005   .     S
Cu668  O700    1.953   .     S
Cu668  O696    1.980   .     S
Cu668  O698    1.980   .     S
Cu668  N694    2.005   .     S
Cu668  O702    1.953   .     S
C703   O773    1.287   .     A
C703   O776    1.288   .     A
C703   C721    1.454   .     S
C704   C720    1.429   .     A
C704   C724    1.531   .     S
C704   C784    1.400   .     S
C705   C720    1.428   .     A
C705   C727    1.530   .     S
C705   C814    1.398   .     S
C706   C721    1.416   .     A
C706   C729    1.531   .     S
C706   C860    1.400   1_455 S
C707   C711    1.398   .     A
C707   C718    1.404   .     A
C707   Cl737   1.770   .     S
C708   C719    1.404   .     A
C708   C712    1.398   .     A
C708   Cl738   1.770   .     S
C709   C713    1.398   .     A
C709   C719    1.404   .     A
C709   Cl739   1.769   .     S
C710   C715    1.398   .     A
C710   C718    1.404   .     A
C710   Cl740   1.769   .     S
C711   Cl741   1.770   .     S
C711   C716    1.411   .     A
C712   Cl742   1.771   .     S
C712   C717    1.412   .     A
C713   C717    1.410   .     A
C713   Cl743   1.770   .     S
C714   O774    1.294   .     A
C714   C720    1.473   .     S
C714   O775    1.292   .     A
C715   C716    1.411   .     A
C715   Cl744   1.772   .     S
C716   C725    1.460   .     S
C717   C731    1.460   .     S
C719   C16     1.464   1_556 S
C721   C736    1.415   .     A
C722   C736    1.529   .     S
C722   H769    1.107   .     S
C722   H770    1.110   .     S
C722   C723    1.528   .     S
C723   H768    1.111   .     S
C723   H766    1.111   .     S
C723   H767    1.104   .     S
C724   H752    1.108   .     S
C724   H751    1.107   .     S
C724   C726    1.532   .     S
C725   O777    1.289   .     A
C725   O780    1.290   .     A
C726   H750    1.111   .     S
C726   H749    1.111   .     S
C726   H748    1.108   .     S
C727   H756    1.108   .     S
C727   C728    1.530   .     S
C727   H757    1.108   .     S
C728   H754    1.108   .     S
C728   H755    1.110   .     S
C728   H753    1.111   .     S
C729   H762    1.108   .     S
C729   H763    1.109   .     S
C729   C730    1.529   .     S
C730   H759    1.105   .     S
C730   H761    1.111   .     S
C730   H760    1.111   .     S
C731   O778    1.288   .     A
C731   O779    1.292   .     A
C732   H747    1.081   .     S
C732   N772    1.366   .     A
C732   C1203   1.413   1_545 S
C733   H758    1.080   .     S
C733   N771    1.366   .     A
C733   C968    1.412   .     S
C734   N772    1.365   .     A
C734   H764    1.080   .     S
C734   C1201   1.412   1_545 S
C735   N771    1.366   .     A
C735   H765    1.080   .     S
C735   C966    1.413   .     S
C736   C861    1.398   1_455 S
Cu745  O775    1.980   .     S
Cu745  Cu746   2.668   .     S
Cu745  O777    1.953   .     S
Cu745  O773    1.980   .     S
Cu745  O779    1.953   .     S
Cu745  N771    2.005   .     S
Cu746  O778    1.953   .     S
Cu746  O774    1.980   .     S
Cu746  O776    1.980   .     S
Cu746  N772    2.005   .     S
Cu746  O780    1.953   .     S
C781   O851    1.287   .     A
C781   O854    1.288   .     A
C781   C799    1.454   .     S
C782   C798    1.429   .     A
C782   C802    1.531   .     S
C782   C862    1.400   .     S
C783   C798    1.428   .     A
C783   C805    1.530   .     S
C783   C892    1.398   .     S
C784   C799    1.416   .     A
C784   C807    1.531   .     S
C785   C789    1.398   .     A
C785   C796    1.404   .     A
C785   Cl815   1.770   .     S
C786   C797    1.404   .     A
C786   C790    1.398   .     A
C786   Cl816   1.770   .     S
C787   C791    1.398   .     A
C787   C797    1.404   .     A
C787   Cl817   1.769   .     S
C788   C793    1.398   .     A
C788   C796    1.404   .     A
C788   Cl818   1.769   .     S
C789   Cl819   1.770   .     S
C789   C794    1.411   .     A
C790   Cl820   1.771   .     S
C790   C795    1.412   .     A
C791   C795    1.410   .     A
C791   Cl821   1.770   .     S
C792   O852    1.294   .     A
C792   C798    1.473   .     S
C792   O853    1.292   .     A
C793   C794    1.411   .     A
C793   Cl822   1.772   .     S
C794   C803    1.460   .     S
C795   C809    1.460   .     S
C797   C94     1.464   1_556 S
C799   C814    1.415   .     A
C800   C814    1.529   .     S
C800   H847    1.107   .     S
C800   H848    1.110   .     S
C800   C801    1.528   .     S
C801   H846    1.111   .     S
C801   H844    1.111   .     S
C801   H845    1.104   .     S
C802   H830    1.108   .     S
C802   H829    1.107   .     S
C802   C804    1.532   .     S
C803   O855    1.289   .     A
C803   O858    1.290   .     A
C804   H828    1.111   .     S
C804   H827    1.111   .     S
C804   H826    1.108   .     S
C805   H834    1.108   .     S
C805   C806    1.530   .     S
C805   H835    1.108   .     S
C806   H832    1.108   .     S
C806   H833    1.110   .     S
C806   H831    1.111   .     S
C807   H840    1.108   .     S
C807   H841    1.109   .     S
C807   C808    1.529   .     S
C808   H837    1.105   .     S
C808   H839    1.111   .     S
C808   H838    1.111   .     S
C809   O856    1.288   .     A
C809   O857    1.292   .     A
C810   H825    1.081   .     S
C810   N850    1.366   .     A
C810   C1281   1.413   1_545 S
C811   H836    1.080   .     S
C811   N849    1.366   .     A
C811   C1046   1.412   .     S
C812   N850    1.365   .     A
C812   H842    1.080   .     S
C812   C1279   1.412   1_545 S
C813   N849    1.366   .     A
C813   H843    1.080   .     S
C813   C1044   1.413   .     S
Cu823  O853    1.980   .     S
Cu823  Cu824   2.668   .     S
Cu823  O855    1.953   .     S
Cu823  O851    1.980   .     S
Cu823  O857    1.953   .     S
Cu823  N849    2.005   .     S
Cu824  O856    1.953   .     S
Cu824  O852    1.980   .     S
Cu824  O854    1.980   .     S
Cu824  N850    2.005   .     S
Cu824  O858    1.953   .     S
C859   O929    1.287   .     A
C859   O932    1.288   .     A
C859   C877    1.454   .     S
C860   C876    1.429   .     A
C860   C880    1.531   .     S
C860   C706    1.400   1_655 S
C861   C876    1.428   .     A
C861   C883    1.530   .     S
C861   C736    1.398   1_655 S
C862   C877    1.416   .     A
C862   C885    1.531   .     S
C863   C867    1.398   .     A
C863   C874    1.404   .     A
C863   Cl893   1.770   .     S
C864   C875    1.404   .     A
C864   C868    1.398   .     A
C864   Cl894   1.770   .     S
C865   C869    1.398   .     A
C865   C875    1.404   .     A
C865   Cl895   1.769   .     S
C866   C871    1.398   .     A
C866   C874    1.404   .     A
C866   Cl896   1.769   .     S
C867   Cl897   1.770   .     S
C867   C872    1.411   .     A
C868   Cl898   1.771   .     S
C868   C873    1.412   .     A
C869   C873    1.410   .     A
C869   Cl899   1.770   .     S
C870   O930    1.294   .     A
C870   C876    1.473   .     S
C870   O931    1.292   .     A
C871   C872    1.411   .     A
C871   Cl900   1.772   .     S
C872   C881    1.460   .     S
C873   C887    1.460   .     S
C875   C172    1.464   1_556 S
C877   C892    1.415   .     A
C878   C892    1.529   .     S
C878   H925    1.107   .     S
C878   H926    1.110   .     S
C878   C879    1.528   .     S
C879   H924    1.111   .     S
C879   H922    1.111   .     S
C879   H923    1.104   .     S
C880   H908    1.108   .     S
C880   H907    1.107   .     S
C880   C882    1.532   .     S
C881   O933    1.289   .     A
C881   O936    1.290   .     A
C882   H906    1.111   .     S
C882   H905    1.111   .     S
C882   H904    1.108   .     S
C883   H912    1.108   .     S
C883   C884    1.530   .     S
C883   H913    1.108   .     S
C884   H910    1.108   .     S
C884   H911    1.110   .     S
C884   H909    1.111   .     S
C885   H918    1.108   .     S
C885   H919    1.109   .     S
C885   C886    1.529   .     S
C886   H915    1.105   .     S
C886   H917    1.111   .     S
C886   H916    1.111   .     S
C887   O934    1.288   .     A
C887   O935    1.292   .     A
C888   H903    1.081   .     S
C888   N928    1.366   .     A
C888   C1359   1.413   1_545 S
C889   H914    1.080   .     S
C889   N927    1.366   .     A
C889   C1124   1.412   .     S
C890   N928    1.365   .     A
C890   H920    1.080   .     S
C890   C1357   1.412   1_545 S
C891   N927    1.366   .     A
C891   H921    1.080   .     S
C891   C1122   1.413   .     S
Cu901  O931    1.980   .     S
Cu901  Cu902   2.668   .     S
Cu901  O933    1.953   .     S
Cu901  O929    1.980   .     S
Cu901  O935    1.953   .     S
Cu901  N927    2.005   .     S
Cu902  O934    1.953   .     S
Cu902  O930    1.980   .     S
Cu902  O932    1.980   .     S
Cu902  N928    2.005   .     S
Cu902  O936    1.953   .     S
C937   O1007   1.287   .     A
C937   O1010   1.288   .     A
C937   C955    1.454   .     S
C938   C954    1.429   .     A
C938   C958    1.531   .     S
C938   C1018   1.400   .     S
C939   C954    1.428   .     A
C939   C961    1.530   .     S
C939   C1048   1.398   .     S
C940   C955    1.416   .     A
C940   C963    1.531   .     S
C940   C1094   1.400   1_455 S
C941   C945    1.398   .     A
C941   C952    1.404   .     A
C941   Cl971   1.770   .     S
C942   C953    1.404   .     A
C942   C946    1.398   .     A
C942   Cl972   1.770   .     S
C943   C947    1.398   .     A
C943   C953    1.404   .     A
C943   Cl973   1.769   .     S
C944   C949    1.398   .     A
C944   C952    1.404   .     A
C944   Cl974   1.769   .     S
C945   Cl975   1.770   .     S
C945   C950    1.411   .     A
C946   Cl976   1.771   .     S
C946   C951    1.412   .     A
C947   C951    1.410   .     A
C947   Cl977   1.770   .     S
C948   O1008   1.294   .     A
C948   C954    1.473   .     S
C948   O1009   1.292   .     A
C949   C950    1.411   .     A
C949   Cl978   1.772   .     S
C950   C959    1.460   .     S
C951   C965    1.460   .     S
C953   C250    1.464   1_556 S
C955   C970    1.415   .     A
C956   C970    1.529   .     S
C956   H1003   1.107   .     S
C956   H1004   1.110   .     S
C956   C957    1.528   .     S
C957   H1002   1.111   .     S
C957   H1000   1.111   .     S
C957   H1001   1.104   .     S
C958   H986    1.108   .     S
C958   H985    1.107   .     S
C958   C960    1.532   .     S
C959   O1011   1.289   .     A
C959   O1014   1.290   .     A
C960   H984    1.111   .     S
C960   H983    1.111   .     S
C960   H982    1.108   .     S
C961   H990    1.108   .     S
C961   C962    1.530   .     S
C961   H991    1.108   .     S
C962   H988    1.108   .     S
C962   H989    1.110   .     S
C962   H987    1.111   .     S
C963   H996    1.108   .     S
C963   H997    1.109   .     S
C963   C964    1.529   .     S
C964   H993    1.105   .     S
C964   H995    1.111   .     S
C964   H994    1.111   .     S
C965   O1012   1.288   .     A
C965   O1013   1.292   .     A
C966   H981    1.081   .     S
C966   N1006   1.366   .     A
C967   H992    1.080   .     S
C967   N1005   1.366   .     A
C967   C1202   1.412   .     S
C968   N1006   1.365   .     A
C968   H998    1.080   .     S
C969   N1005   1.366   .     A
C969   H999    1.080   .     S
C969   C1200   1.413   .     S
C970   C1095   1.398   1_455 S
Cu979  O1009   1.980   .     S
Cu979  Cu980   2.668   .     S
Cu979  O1011   1.953   .     S
Cu979  O1007   1.980   .     S
Cu979  O1013   1.953   .     S
Cu979  N1005   2.005   .     S
Cu980  O1012   1.953   .     S
Cu980  O1008   1.980   .     S
Cu980  O1010   1.980   .     S
Cu980  N1006   2.005   .     S
Cu980  O1014   1.953   .     S
C1015  O1085   1.287   .     A
C1015  O1088   1.288   .     A
C1015  C1033   1.454   .     S
C1016  C1032   1.429   .     A
C1016  C1036   1.531   .     S
C1016  C1096   1.400   .     S
C1017  C1032   1.428   .     A
C1017  C1039   1.530   .     S
C1017  C1126   1.398   .     S
C1018  C1033   1.416   .     A
C1018  C1041   1.531   .     S
C1019  C1023   1.398   .     A
C1019  C1030   1.404   .     A
C1019  Cl1049  1.770   .     S
C1020  C1031   1.404   .     A
C1020  C1024   1.398   .     A
C1020  Cl1050  1.770   .     S
C1021  C1025   1.398   .     A
C1021  C1031   1.404   .     A
C1021  Cl1051  1.769   .     S
C1022  C1027   1.398   .     A
C1022  C1030   1.404   .     A
C1022  Cl1052  1.769   .     S
C1023  Cl1053  1.770   .     S
C1023  C1028   1.411   .     A
C1024  Cl1054  1.771   .     S
C1024  C1029   1.412   .     A
C1025  C1029   1.410   .     A
C1025  Cl1055  1.770   .     S
C1026  O1086   1.294   .     A
C1026  C1032   1.473   .     S
C1026  O1087   1.292   .     A
C1027  C1028   1.411   .     A
C1027  Cl1056  1.772   .     S
C1028  C1037   1.460   .     S
C1029  C1043   1.460   .     S
C1031  C328    1.464   1_556 S
C1033  C1048   1.415   .     A
C1034  C1048   1.529   .     S
C1034  H1081   1.107   .     S
C1034  H1082   1.110   .     S
C1034  C1035   1.528   .     S
C1035  H1080   1.111   .     S
C1035  H1078   1.111   .     S
C1035  H1079   1.104   .     S
C1036  H1064   1.108   .     S
C1036  H1063   1.107   .     S
C1036  C1038   1.532   .     S
C1037  O1089   1.289   .     A
C1037  O1092   1.290   .     A
C1038  H1062   1.111   .     S
C1038  H1061   1.111   .     S
C1038  H1060   1.108   .     S
C1039  H1068   1.108   .     S
C1039  C1040   1.530   .     S
C1039  H1069   1.108   .     S
C1040  H1066   1.108   .     S
C1040  H1067   1.110   .     S
C1040  H1065   1.111   .     S
C1041  H1074   1.108   .     S
C1041  H1075   1.109   .     S
C1041  C1042   1.529   .     S
C1042  H1071   1.105   .     S
C1042  H1073   1.111   .     S
C1042  H1072   1.111   .     S
C1043  O1090   1.288   .     A
C1043  O1091   1.292   .     A
C1044  H1059   1.081   .     S
C1044  N1084   1.366   .     A
C1045  H1070   1.080   .     S
C1045  N1083   1.366   .     A
C1045  C1280   1.412   .     S
C1046  N1084   1.365   .     A
C1046  H1076   1.080   .     S
C1047  N1083   1.366   .     A
C1047  H1077   1.080   .     S
C1047  C1278   1.413   .     S
Cu1057 O1087   1.980   .     S
Cu1057 Cu1058  2.668   .     S
Cu1057 O1089   1.953   .     S
Cu1057 O1085   1.980   .     S
Cu1057 O1091   1.953   .     S
Cu1057 N1083   2.005   .     S
Cu1058 O1090   1.953   .     S
Cu1058 O1086   1.980   .     S
Cu1058 O1088   1.980   .     S
Cu1058 N1084   2.005   .     S
Cu1058 O1092   1.953   .     S
C1093  O1163   1.287   .     A
C1093  O1166   1.288   .     A
C1093  C1111   1.454   .     S
C1094  C1110   1.429   .     A
C1094  C1114   1.531   .     S
C1094  C940    1.400   1_655 S
C1095  C1110   1.428   .     A
C1095  C1117   1.530   .     S
C1095  C970    1.398   1_655 S
C1096  C1111   1.416   .     A
C1096  C1119   1.531   .     S
C1097  C1101   1.398   .     A
C1097  C1108   1.404   .     A
C1097  Cl1127  1.770   .     S
C1098  C1109   1.404   .     A
C1098  C1102   1.398   .     A
C1098  Cl1128  1.770   .     S
C1099  C1103   1.398   .     A
C1099  C1109   1.404   .     A
C1099  Cl1129  1.769   .     S
C1100  C1105   1.398   .     A
C1100  C1108   1.404   .     A
C1100  Cl1130  1.769   .     S
C1101  Cl1131  1.770   .     S
C1101  C1106   1.411   .     A
C1102  Cl1132  1.771   .     S
C1102  C1107   1.412   .     A
C1103  C1107   1.410   .     A
C1103  Cl1133  1.770   .     S
C1104  O1164   1.294   .     A
C1104  C1110   1.473   .     S
C1104  O1165   1.292   .     A
C1105  C1106   1.411   .     A
C1105  Cl1134  1.772   .     S
C1106  C1115   1.460   .     S
C1107  C1121   1.460   .     S
C1109  C406    1.464   1_556 S
C1111  C1126   1.415   .     A
C1112  C1126   1.529   .     S
C1112  H1159   1.107   .     S
C1112  H1160   1.110   .     S
C1112  C1113   1.528   .     S
C1113  H1158   1.111   .     S
C1113  H1156   1.111   .     S
C1113  H1157   1.104   .     S
C1114  H1142   1.108   .     S
C1114  H1141   1.107   .     S
C1114  C1116   1.532   .     S
C1115  O1167   1.289   .     A
C1115  O1170   1.290   .     A
C1116  H1140   1.111   .     S
C1116  H1139   1.111   .     S
C1116  H1138   1.108   .     S
C1117  H1146   1.108   .     S
C1117  C1118   1.530   .     S
C1117  H1147   1.108   .     S
C1118  H1144   1.108   .     S
C1118  H1145   1.110   .     S
C1118  H1143   1.111   .     S
C1119  H1152   1.108   .     S
C1119  H1153   1.109   .     S
C1119  C1120   1.529   .     S
C1120  H1149   1.105   .     S
C1120  H1151   1.111   .     S
C1120  H1150   1.111   .     S
C1121  O1168   1.288   .     A
C1121  O1169   1.292   .     A
C1122  H1137   1.081   .     S
C1122  N1162   1.366   .     A
C1123  H1148   1.080   .     S
C1123  N1161   1.366   .     A
C1123  C1358   1.412   .     S
C1124  N1162   1.365   .     A
C1124  H1154   1.080   .     S
C1125  N1161   1.366   .     A
C1125  H1155   1.080   .     S
C1125  C1356   1.413   .     S
Cu1135 O1165   1.980   .     S
Cu1135 Cu1136  2.668   .     S
Cu1135 O1167   1.953   .     S
Cu1135 O1163   1.980   .     S
Cu1135 O1169   1.953   .     S
Cu1135 N1161   2.005   .     S
Cu1136 O1168   1.953   .     S
Cu1136 O1164   1.980   .     S
Cu1136 O1166   1.980   .     S
Cu1136 N1162   2.005   .     S
Cu1136 O1170   1.953   .     S
C1171  O1241   1.287   .     A
C1171  O1244   1.288   .     A
C1171  C1189   1.454   .     S
C1172  C1188   1.429   .     A
C1172  C1192   1.531   .     S
C1172  C1252   1.400   .     S
C1173  C1188   1.428   .     A
C1173  C1195   1.530   .     S
C1173  C1282   1.398   .     S
C1174  C1189   1.416   .     A
C1174  C1197   1.531   .     S
C1174  C1328   1.400   1_455 S
C1175  C1179   1.398   .     A
C1175  C1186   1.404   .     A
C1175  Cl1205  1.770   .     S
C1176  C1187   1.404   .     A
C1176  C1180   1.398   .     A
C1176  Cl1206  1.770   .     S
C1177  C1181   1.398   .     A
C1177  C1187   1.404   .     A
C1177  Cl1207  1.769   .     S
C1178  C1183   1.398   .     A
C1178  C1186   1.404   .     A
C1178  Cl1208  1.769   .     S
C1179  Cl1209  1.770   .     S
C1179  C1184   1.411   .     A
C1180  Cl1210  1.771   .     S
C1180  C1185   1.412   .     A
C1181  C1185   1.410   .     A
C1181  Cl1211  1.770   .     S
C1182  O1242   1.294   .     A
C1182  C1188   1.473   .     S
C1182  O1243   1.292   .     A
C1183  C1184   1.411   .     A
C1183  Cl1212  1.772   .     S
C1184  C1193   1.460   .     S
C1185  C1199   1.460   .     S
C1187  C484    1.464   1_556 S
C1189  C1204   1.415   .     A
C1190  C1204   1.529   .     S
C1190  H1237   1.107   .     S
C1190  H1238   1.110   .     S
C1190  C1191   1.528   .     S
C1191  H1236   1.111   .     S
C1191  H1234   1.111   .     S
C1191  H1235   1.104   .     S
C1192  H1220   1.108   .     S
C1192  H1219   1.107   .     S
C1192  C1194   1.532   .     S
C1193  O1245   1.289   .     A
C1193  O1248   1.290   .     A
C1194  H1218   1.111   .     S
C1194  H1217   1.111   .     S
C1194  H1216   1.108   .     S
C1195  H1224   1.108   .     S
C1195  C1196   1.530   .     S
C1195  H1225   1.108   .     S
C1196  H1222   1.108   .     S
C1196  H1223   1.110   .     S
C1196  H1221   1.111   .     S
C1197  H1230   1.108   .     S
C1197  H1231   1.109   .     S
C1197  C1198   1.529   .     S
C1198  H1227   1.105   .     S
C1198  H1229   1.111   .     S
C1198  H1228   1.111   .     S
C1199  O1246   1.288   .     A
C1199  O1247   1.292   .     A
C1200  H1215   1.081   .     S
C1200  N1240   1.366   .     A
C1201  H1226   1.080   .     S
C1201  N1239   1.366   .     A
C1201  C734    1.412   1_565 S
C1202  N1240   1.365   .     A
C1202  H1232   1.080   .     S
C1203  N1239   1.366   .     A
C1203  H1233   1.080   .     S
C1203  C732    1.413   1_565 S
C1204  C1329   1.398   1_455 S
Cu1213 O1243   1.980   .     S
Cu1213 Cu1214  2.668   .     S
Cu1213 O1245   1.953   .     S
Cu1213 O1241   1.980   .     S
Cu1213 O1247   1.953   .     S
Cu1213 N1239   2.005   .     S
Cu1214 O1246   1.953   .     S
Cu1214 O1242   1.980   .     S
Cu1214 O1244   1.980   .     S
Cu1214 N1240   2.005   .     S
Cu1214 O1248   1.953   .     S
C1249  O1319   1.287   .     A
C1249  O1322   1.288   .     A
C1249  C1267   1.454   .     S
C1250  C1266   1.429   .     A
C1250  C1270   1.531   .     S
C1250  C1330   1.400   .     S
C1251  C1266   1.428   .     A
C1251  C1273   1.530   .     S
C1251  C1360   1.398   .     S
C1252  C1267   1.416   .     A
C1252  C1275   1.531   .     S
C1253  C1257   1.398   .     A
C1253  C1264   1.404   .     A
C1253  Cl1283  1.770   .     S
C1254  C1265   1.404   .     A
C1254  C1258   1.398   .     A
C1254  Cl1284  1.770   .     S
C1255  C1259   1.398   .     A
C1255  C1265   1.404   .     A
C1255  Cl1285  1.769   .     S
C1256  C1261   1.398   .     A
C1256  C1264   1.404   .     A
C1256  Cl1286  1.769   .     S
C1257  Cl1287  1.770   .     S
C1257  C1262   1.411   .     A
C1258  Cl1288  1.771   .     S
C1258  C1263   1.412   .     A
C1259  C1263   1.410   .     A
C1259  Cl1289  1.770   .     S
C1260  O1320   1.294   .     A
C1260  C1266   1.473   .     S
C1260  O1321   1.292   .     A
C1261  C1262   1.411   .     A
C1261  Cl1290  1.772   .     S
C1262  C1271   1.460   .     S
C1263  C1277   1.460   .     S
C1265  C562    1.464   1_556 S
C1267  C1282   1.415   .     A
C1268  C1282   1.529   .     S
C1268  H1315   1.107   .     S
C1268  H1316   1.110   .     S
C1268  C1269   1.528   .     S
C1269  H1314   1.111   .     S
C1269  H1312   1.111   .     S
C1269  H1313   1.104   .     S
C1270  H1298   1.108   .     S
C1270  H1297   1.107   .     S
C1270  C1272   1.532   .     S
C1271  O1323   1.289   .     A
C1271  O1326   1.290   .     A
C1272  H1296   1.111   .     S
C1272  H1295   1.111   .     S
C1272  H1294   1.108   .     S
C1273  H1302   1.108   .     S
C1273  C1274   1.530   .     S
C1273  H1303   1.108   .     S
C1274  H1300   1.108   .     S
C1274  H1301   1.110   .     S
C1274  H1299   1.111   .     S
C1275  H1308   1.108   .     S
C1275  H1309   1.109   .     S
C1275  C1276   1.529   .     S
C1276  H1305   1.105   .     S
C1276  H1307   1.111   .     S
C1276  H1306   1.111   .     S
C1277  O1324   1.288   .     A
C1277  O1325   1.292   .     A
C1278  H1293   1.081   .     S
C1278  N1318   1.366   .     A
C1279  H1304   1.080   .     S
C1279  N1317   1.366   .     A
C1279  C812    1.412   1_565 S
C1280  N1318   1.365   .     A
C1280  H1310   1.080   .     S
C1281  N1317   1.366   .     A
C1281  H1311   1.080   .     S
C1281  C810    1.413   1_565 S
Cu1291 O1321   1.980   .     S
Cu1291 Cu1292  2.668   .     S
Cu1291 O1323   1.953   .     S
Cu1291 O1319   1.980   .     S
Cu1291 O1325   1.953   .     S
Cu1291 N1317   2.005   .     S
Cu1292 O1324   1.953   .     S
Cu1292 O1320   1.980   .     S
Cu1292 O1322   1.980   .     S
Cu1292 N1318   2.005   .     S
Cu1292 O1326   1.953   .     S
C1327  O1397   1.287   .     A
C1327  O1400   1.288   .     A
C1327  C1345   1.454   .     S
C1328  C1344   1.429   .     A
C1328  C1348   1.531   .     S
C1328  C1174   1.400   1_655 S
C1329  C1344   1.428   .     A
C1329  C1351   1.530   .     S
C1329  C1204   1.398   1_655 S
C1330  C1345   1.416   .     A
C1330  C1353   1.531   .     S
C1331  C1335   1.398   .     A
C1331  C1342   1.404   .     A
C1331  Cl1361  1.770   .     S
C1332  C1343   1.404   .     A
C1332  C1336   1.398   .     A
C1332  Cl1362  1.770   .     S
C1333  C1337   1.398   .     A
C1333  C1343   1.404   .     A
C1333  Cl1363  1.769   .     S
C1334  C1339   1.398   .     A
C1334  C1342   1.404   .     A
C1334  Cl1364  1.769   .     S
C1335  Cl1365  1.770   .     S
C1335  C1340   1.411   .     A
C1336  Cl1366  1.771   .     S
C1336  C1341   1.412   .     A
C1337  C1341   1.410   .     A
C1337  Cl1367  1.770   .     S
C1338  O1398   1.294   .     A
C1338  C1344   1.473   .     S
C1338  O1399   1.292   .     A
C1339  C1340   1.411   .     A
C1339  Cl1368  1.772   .     S
C1340  C1349   1.460   .     S
C1341  C1355   1.460   .     S
C1343  C640    1.464   1_556 S
C1345  C1360   1.415   .     A
C1346  C1360   1.529   .     S
C1346  H1393   1.107   .     S
C1346  H1394   1.110   .     S
C1346  C1347   1.528   .     S
C1347  H1392   1.111   .     S
C1347  H1390   1.111   .     S
C1347  H1391   1.104   .     S
C1348  H1376   1.108   .     S
C1348  H1375   1.107   .     S
C1348  C1350   1.532   .     S
C1349  O1401   1.289   .     A
C1349  O1404   1.290   .     A
C1350  H1374   1.111   .     S
C1350  H1373   1.111   .     S
C1350  H1372   1.108   .     S
C1351  H1380   1.108   .     S
C1351  C1352   1.530   .     S
C1351  H1381   1.108   .     S
C1352  H1378   1.108   .     S
C1352  H1379   1.110   .     S
C1352  H1377   1.111   .     S
C1353  H1386   1.108   .     S
C1353  H1387   1.109   .     S
C1353  C1354   1.529   .     S
C1354  H1383   1.105   .     S
C1354  H1385   1.111   .     S
C1354  H1384   1.111   .     S
C1355  O1402   1.288   .     A
C1355  O1403   1.292   .     A
C1356  H1371   1.081   .     S
C1356  N1396   1.366   .     A
C1357  H1382   1.080   .     S
C1357  N1395   1.366   .     A
C1357  C890    1.412   1_565 S
C1358  N1396   1.365   .     A
C1358  H1388   1.080   .     S
C1359  N1395   1.366   .     A
C1359  H1389   1.080   .     S
C1359  C888    1.413   1_565 S
Cu1369 O1399   1.980   .     S
Cu1369 Cu1370  2.668   .     S
Cu1369 O1401   1.953   .     S
Cu1369 O1397   1.980   .     S
Cu1369 O1403   1.953   .     S
Cu1369 N1395   2.005   .     S
Cu1370 O1402   1.953   .     S
Cu1370 O1398   1.980   .     S
Cu1370 O1400   1.980   .     S
Cu1370 N1396   2.005   .     S
Cu1370 O1404   1.953   .     S
