data_str_m2_o1_o5_pcu_sym.51
_audit_creation_date              2020-01-03
_audit_creation_method            'Materials Studio'
_symmetry_space_group_name_H-M    'P1'
_symmetry_Int_Tables_number       1
_symmetry_cell_setting            triclinic
loop_
_symmetry_equiv_pos_as_xyz
  x,y,z
_cell_length_a                    32.8898
_cell_length_b                    28.9658
_cell_length_c                    27.2215
_cell_angle_alpha                 89.9190
_cell_angle_beta                  92.7094
_cell_angle_gamma                 89.0523
loop_
_atom_site_label
_atom_site_type_symbol
_atom_site_fract_x
_atom_site_fract_y
_atom_site_fract_z
_atom_site_U_iso_or_equiv
_atom_site_adp_type
_atom_site_occupancy
C1     C     0.08751   0.16719   0.16854   0.00000  Uiso   1.00
C2     C     0.01988   0.20924   0.15751   0.00000  Uiso   1.00
C3     C     0.29039   0.16581   0.15888   0.00000  Uiso   1.00
C4     C     0.04258   0.16837   0.16994   0.00000  Uiso   1.00
C5     C     0.14715   0.02482   0.12935   0.00000  Uiso   1.00
C6     C     0.18602   0.30852   0.20410   0.00000  Uiso   1.00
C7     C     0.18626   0.02406   0.20391   0.00000  Uiso   1.00
C8     C     0.14732   0.30928   0.12927   0.00000  Uiso   1.00
C9     C     0.04348   0.08628   0.20099   0.00000  Uiso   1.00
C10    C     0.28810   0.25036   0.13644   0.00000  Uiso   1.00
C11    C     0.29459   0.07891   0.15983   0.00000  Uiso   1.00
C12    C     0.24566   0.16631   0.16330   0.00000  Uiso   1.00
C13    C     0.03900   0.25497   0.15293   0.00000  Uiso   1.00
C14    C     0.16655   0.16669   0.07367   0.00000  Uiso   1.00
C15    C     0.16677   0.16664   0.25966   0.00000  Uiso   1.00
C16    C     0.16663   0.16669   0.02188   0.00000  Uiso   1.00
C17    C     0.16670   0.16664   0.31146   0.00000  Uiso   1.00
C18    C     0.02185   0.12691   0.17849   0.00000  Uiso   1.00
C19    C     0.31082   0.20758   0.15106   0.00000  Uiso   1.00
C20    C     0.31329   0.12463   0.16752   0.00000  Uiso   1.00
Cu21   Cu    0.16667   0.21355   0.16667   0.00000  Uiso   1.00
Cu22   Cu    0.16667   0.11978   0.16667   0.00000  Uiso   1.00
H23    H     0.06855   0.02368   0.19115   0.00000  Uiso   1.00
H24    H     0.26258   0.30917   0.15964   0.00000  Uiso   1.00
H25    H     0.26244   0.03797   0.11244   0.00000  Uiso   1.00
H26    H     0.04826   0.31026   0.10988   0.00000  Uiso   1.00
H27    H     0.11330   0.07463   0.10368   0.00000  Uiso   1.00
H28    H     0.21970   0.25865   0.22999   0.00000  Uiso   1.00
H29    H     0.21975   0.07304   0.22898   0.00000  Uiso   1.00
H30    H     0.11467   0.26011   0.10333   0.00000  Uiso   1.00
N31    N     0.16667   0.28402   0.16667   0.00000  Uiso   1.00
N32    N     0.16667   0.04931   0.16667   0.00000  Uiso   1.00
O33    O     0.10655   0.20625   0.16666   0.00000  Uiso   1.00
O34    O     0.05011   0.04689   0.17288   0.00000  Uiso   1.00
O35    O     0.27204   0.25403   0.09514   0.00000  Uiso   1.00
O36    O     0.28353   0.28517   0.17116   0.00000  Uiso   1.00
O37    O     0.29554   0.05034   0.19295   0.00000  Uiso   1.00
O38    O     0.27551   0.06930   0.11404   0.00000  Uiso   1.00
O39    O     0.05566   0.27275   0.18908   0.00000  Uiso   1.00
O40    O     0.03560   0.27863   0.10807   0.00000  Uiso   1.00
O41    O     0.12594   0.04642   0.09089   0.00000  Uiso   1.00
O42    O     0.20705   0.28690   0.24270   0.00000  Uiso   1.00
O43    O     0.20788   0.04488   0.24196   0.00000  Uiso   1.00
O44    O     0.22679   0.12709   0.16667   0.00000  Uiso   1.00
O45    O     0.12653   0.28840   0.09065   0.00000  Uiso   1.00
O46    O     0.22679   0.20625   0.16667   0.00000  Uiso   1.00
O47    O     0.10655   0.12709   0.16666   0.00000  Uiso   1.00
O48    O     0.16667   0.20625   0.09613   0.00000  Uiso   1.00
O49    O     0.16667   0.12708   0.23720   0.00000  Uiso   1.00
O50    O     0.16667   0.20625   0.23720   0.00000  Uiso   1.00
O51    O     0.16667   0.12708   0.09613   0.00000  Uiso   1.00
O52    O     0.05698   0.08829   0.24355   0.00000  Uiso   1.00
C53    C     0.42085   0.16719   0.16854   0.00000  Uiso   1.00
C54    C     0.35322   0.20924   0.15751   0.00000  Uiso   1.00
C55    C     0.62372   0.16581   0.15888   0.00000  Uiso   1.00
C56    C     0.37592   0.16837   0.16994   0.00000  Uiso   1.00
C57    C     0.48049   0.02482   0.12935   0.00000  Uiso   1.00
C58    C     0.51935   0.30852   0.20410   0.00000  Uiso   1.00
C59    C     0.51959   0.02406   0.20391   0.00000  Uiso   1.00
C60    C     0.48066   0.30928   0.12927   0.00000  Uiso   1.00
C61    C     0.37682   0.08628   0.20099   0.00000  Uiso   1.00
C62    C     0.62143   0.25036   0.13644   0.00000  Uiso   1.00
C63    C     0.62792   0.07891   0.15983   0.00000  Uiso   1.00
C64    C     0.57899   0.16631   0.16330   0.00000  Uiso   1.00
C65    C     0.37234   0.25497   0.15293   0.00000  Uiso   1.00
C66    C     0.49989   0.16669   0.07367   0.00000  Uiso   1.00
C67    C     0.50011   0.16664   0.25966   0.00000  Uiso   1.00
C68    C     0.49996   0.16669   0.02188   0.00000  Uiso   1.00
C69    C     0.50004   0.16664   0.31146   0.00000  Uiso   1.00
C70    C     0.35519   0.12691   0.17849   0.00000  Uiso   1.00
C71    C     0.64416   0.20758   0.15106   0.00000  Uiso   1.00
C72    C     0.64662   0.12463   0.16752   0.00000  Uiso   1.00
Cu73   Cu    0.50000   0.21355   0.16667   0.00000  Uiso   1.00
Cu74   Cu    0.50000   0.11978   0.16667   0.00000  Uiso   1.00
H75    H     0.40189   0.02368   0.19115   0.00000  Uiso   1.00
H76    H     0.59592   0.30917   0.15964   0.00000  Uiso   1.00
H77    H     0.59578   0.03797   0.11244   0.00000  Uiso   1.00
H78    H     0.38159   0.31026   0.10988   0.00000  Uiso   1.00
H79    H     0.44664   0.07463   0.10368   0.00000  Uiso   1.00
H80    H     0.55303   0.25865   0.22999   0.00000  Uiso   1.00
H81    H     0.55308   0.07304   0.22898   0.00000  Uiso   1.00
H82    H     0.44800   0.26011   0.10333   0.00000  Uiso   1.00
N83    N     0.50000   0.28402   0.16667   0.00000  Uiso   1.00
N84    N     0.50000   0.04931   0.16667   0.00000  Uiso   1.00
O85    O     0.43988   0.20625   0.16666   0.00000  Uiso   1.00
O86    O     0.38344   0.04689   0.17288   0.00000  Uiso   1.00
O87    O     0.60537   0.25403   0.09514   0.00000  Uiso   1.00
O88    O     0.61687   0.28517   0.17116   0.00000  Uiso   1.00
O89    O     0.62887   0.05034   0.19295   0.00000  Uiso   1.00
O90    O     0.60884   0.06930   0.11404   0.00000  Uiso   1.00
O91    O     0.38900   0.27275   0.18908   0.00000  Uiso   1.00
O92    O     0.36894   0.27863   0.10807   0.00000  Uiso   1.00
O93    O     0.45927   0.04642   0.09089   0.00000  Uiso   1.00
O94    O     0.54038   0.28690   0.24270   0.00000  Uiso   1.00
O95    O     0.54121   0.04488   0.24196   0.00000  Uiso   1.00
O96    O     0.56012   0.12709   0.16667   0.00000  Uiso   1.00
O97    O     0.45986   0.28840   0.09065   0.00000  Uiso   1.00
O98    O     0.56012   0.20625   0.16667   0.00000  Uiso   1.00
O99    O     0.43988   0.12709   0.16666   0.00000  Uiso   1.00
O100   O     0.50000   0.20625   0.09613   0.00000  Uiso   1.00
O101   O     0.50000   0.12708   0.23720   0.00000  Uiso   1.00
O102   O     0.50000   0.20625   0.23720   0.00000  Uiso   1.00
O103   O     0.50000   0.12708   0.09613   0.00000  Uiso   1.00
O104   O     0.39032   0.08829   0.24355   0.00000  Uiso   1.00
C105   C     0.75418   0.16719   0.16854   0.00000  Uiso   1.00
C106   C     0.68655   0.20924   0.15751   0.00000  Uiso   1.00
C107   C     0.95706   0.16581   0.15888   0.00000  Uiso   1.00
C108   C     0.70925   0.16837   0.16994   0.00000  Uiso   1.00
C109   C     0.81382   0.02482   0.12935   0.00000  Uiso   1.00
C110   C     0.85269   0.30852   0.20410   0.00000  Uiso   1.00
C111   C     0.85293   0.02406   0.20391   0.00000  Uiso   1.00
C112   C     0.81399   0.30928   0.12927   0.00000  Uiso   1.00
C113   C     0.71015   0.08628   0.20099   0.00000  Uiso   1.00
C114   C     0.95476   0.25036   0.13644   0.00000  Uiso   1.00
C115   C     0.96125   0.07891   0.15983   0.00000  Uiso   1.00
C116   C     0.91232   0.16631   0.16330   0.00000  Uiso   1.00
C117   C     0.70567   0.25497   0.15293   0.00000  Uiso   1.00
C118   C     0.83322   0.16669   0.07367   0.00000  Uiso   1.00
C119   C     0.83344   0.16664   0.25966   0.00000  Uiso   1.00
C120   C     0.83329   0.16669   0.02188   0.00000  Uiso   1.00
C121   C     0.83337   0.16664   0.31146   0.00000  Uiso   1.00
C122   C     0.68852   0.12691   0.17849   0.00000  Uiso   1.00
C123   C     0.97749   0.20758   0.15106   0.00000  Uiso   1.00
C124   C     0.97995   0.12463   0.16752   0.00000  Uiso   1.00
Cu125  Cu    0.83333   0.21355   0.16667   0.00000  Uiso   1.00
Cu126  Cu    0.83333   0.11978   0.16667   0.00000  Uiso   1.00
H127   H     0.73522   0.02368   0.19115   0.00000  Uiso   1.00
H128   H     0.92925   0.30917   0.15964   0.00000  Uiso   1.00
H129   H     0.92911   0.03797   0.11244   0.00000  Uiso   1.00
H130   H     0.71492   0.31026   0.10988   0.00000  Uiso   1.00
H131   H     0.77997   0.07463   0.10368   0.00000  Uiso   1.00
H132   H     0.88636   0.25865   0.22999   0.00000  Uiso   1.00
H133   H     0.88642   0.07304   0.22898   0.00000  Uiso   1.00
H134   H     0.78133   0.26011   0.10333   0.00000  Uiso   1.00
N135   N     0.83333   0.28402   0.16667   0.00000  Uiso   1.00
N136   N     0.83333   0.04931   0.16667   0.00000  Uiso   1.00
O137   O     0.77321   0.20625   0.16666   0.00000  Uiso   1.00
O138   O     0.71677   0.04689   0.17288   0.00000  Uiso   1.00
O139   O     0.93871   0.25403   0.09514   0.00000  Uiso   1.00
O140   O     0.95020   0.28517   0.17116   0.00000  Uiso   1.00
O141   O     0.96221   0.05034   0.19295   0.00000  Uiso   1.00
O142   O     0.94217   0.06930   0.11404   0.00000  Uiso   1.00
O143   O     0.72233   0.27275   0.18908   0.00000  Uiso   1.00
O144   O     0.70227   0.27863   0.10807   0.00000  Uiso   1.00
O145   O     0.79261   0.04642   0.09089   0.00000  Uiso   1.00
O146   O     0.87372   0.28690   0.24270   0.00000  Uiso   1.00
O147   O     0.87454   0.04488   0.24196   0.00000  Uiso   1.00
O148   O     0.89345   0.12709   0.16667   0.00000  Uiso   1.00
O149   O     0.79320   0.28840   0.09065   0.00000  Uiso   1.00
O150   O     0.89345   0.20625   0.16667   0.00000  Uiso   1.00
O151   O     0.77321   0.12709   0.16666   0.00000  Uiso   1.00
O152   O     0.83333   0.20625   0.09613   0.00000  Uiso   1.00
O153   O     0.83333   0.12708   0.23720   0.00000  Uiso   1.00
O154   O     0.83333   0.20625   0.23720   0.00000  Uiso   1.00
O155   O     0.83333   0.12708   0.09613   0.00000  Uiso   1.00
O156   O     0.72365   0.08829   0.24355   0.00000  Uiso   1.00
C157   C     0.08751   0.50053   0.16854   0.00000  Uiso   1.00
C158   C     0.01988   0.54258   0.15751   0.00000  Uiso   1.00
C159   C     0.29039   0.49914   0.15888   0.00000  Uiso   1.00
C160   C     0.04258   0.50170   0.16994   0.00000  Uiso   1.00
C161   C     0.14715   0.35815   0.12935   0.00000  Uiso   1.00
C162   C     0.18602   0.64185   0.20410   0.00000  Uiso   1.00
C163   C     0.18626   0.35739   0.20391   0.00000  Uiso   1.00
C164   C     0.14732   0.64261   0.12927   0.00000  Uiso   1.00
C165   C     0.04348   0.41961   0.20099   0.00000  Uiso   1.00
C166   C     0.28810   0.58370   0.13644   0.00000  Uiso   1.00
C167   C     0.29459   0.41224   0.15983   0.00000  Uiso   1.00
C168   C     0.24566   0.49964   0.16330   0.00000  Uiso   1.00
C169   C     0.03900   0.58831   0.15293   0.00000  Uiso   1.00
C170   C     0.16655   0.50002   0.07367   0.00000  Uiso   1.00
C171   C     0.16677   0.49998   0.25966   0.00000  Uiso   1.00
C172   C     0.16663   0.50003   0.02188   0.00000  Uiso   1.00
C173   C     0.16670   0.49997   0.31146   0.00000  Uiso   1.00
C174   C     0.02185   0.46024   0.17849   0.00000  Uiso   1.00
C175   C     0.31082   0.54091   0.15106   0.00000  Uiso   1.00
C176   C     0.31329   0.45796   0.16752   0.00000  Uiso   1.00
Cu177  Cu    0.16667   0.54689   0.16667   0.00000  Uiso   1.00
Cu178  Cu    0.16667   0.45311   0.16667   0.00000  Uiso   1.00
H179   H     0.06855   0.35701   0.19115   0.00000  Uiso   1.00
H180   H     0.26258   0.64250   0.15964   0.00000  Uiso   1.00
H181   H     0.26244   0.37130   0.11244   0.00000  Uiso   1.00
H182   H     0.04826   0.64359   0.10988   0.00000  Uiso   1.00
H183   H     0.11330   0.40796   0.10368   0.00000  Uiso   1.00
H184   H     0.21970   0.59199   0.22999   0.00000  Uiso   1.00
H185   H     0.21975   0.40638   0.22898   0.00000  Uiso   1.00
H186   H     0.11467   0.59344   0.10333   0.00000  Uiso   1.00
N187   N     0.16667   0.61736   0.16667   0.00000  Uiso   1.00
N188   N     0.16667   0.38264   0.16667   0.00000  Uiso   1.00
O189   O     0.10655   0.53958   0.16666   0.00000  Uiso   1.00
O190   O     0.05011   0.38023   0.17288   0.00000  Uiso   1.00
O191   O     0.27204   0.58736   0.09514   0.00000  Uiso   1.00
O192   O     0.28353   0.61850   0.17116   0.00000  Uiso   1.00
O193   O     0.29554   0.38367   0.19295   0.00000  Uiso   1.00
O194   O     0.27551   0.40263   0.11404   0.00000  Uiso   1.00
O195   O     0.05566   0.60608   0.18908   0.00000  Uiso   1.00
O196   O     0.03560   0.61197   0.10807   0.00000  Uiso   1.00
O197   O     0.12594   0.37975   0.09089   0.00000  Uiso   1.00
O198   O     0.20705   0.62023   0.24270   0.00000  Uiso   1.00
O199   O     0.20788   0.37822   0.24196   0.00000  Uiso   1.00
O200   O     0.22679   0.46042   0.16667   0.00000  Uiso   1.00
O201   O     0.12653   0.62173   0.09065   0.00000  Uiso   1.00
O202   O     0.22679   0.53958   0.16667   0.00000  Uiso   1.00
O203   O     0.10655   0.46042   0.16666   0.00000  Uiso   1.00
O204   O     0.16667   0.53959   0.09613   0.00000  Uiso   1.00
O205   O     0.16667   0.46041   0.23720   0.00000  Uiso   1.00
O206   O     0.16667   0.53959   0.23720   0.00000  Uiso   1.00
O207   O     0.16667   0.46041   0.09613   0.00000  Uiso   1.00
O208   O     0.05698   0.42162   0.24355   0.00000  Uiso   1.00
C209   C     0.42085   0.50053   0.16854   0.00000  Uiso   1.00
C210   C     0.35322   0.54258   0.15751   0.00000  Uiso   1.00
C211   C     0.62372   0.49914   0.15888   0.00000  Uiso   1.00
C212   C     0.37592   0.50170   0.16994   0.00000  Uiso   1.00
C213   C     0.48049   0.35815   0.12935   0.00000  Uiso   1.00
C214   C     0.51935   0.64185   0.20410   0.00000  Uiso   1.00
C215   C     0.51959   0.35739   0.20391   0.00000  Uiso   1.00
C216   C     0.48066   0.64261   0.12927   0.00000  Uiso   1.00
C217   C     0.37682   0.41961   0.20099   0.00000  Uiso   1.00
C218   C     0.62143   0.58370   0.13644   0.00000  Uiso   1.00
C219   C     0.62792   0.41224   0.15983   0.00000  Uiso   1.00
C220   C     0.57899   0.49964   0.16330   0.00000  Uiso   1.00
C221   C     0.37234   0.58831   0.15293   0.00000  Uiso   1.00
C222   C     0.49989   0.50002   0.07367   0.00000  Uiso   1.00
C223   C     0.50011   0.49998   0.25966   0.00000  Uiso   1.00
C224   C     0.49996   0.50003   0.02188   0.00000  Uiso   1.00
C225   C     0.50004   0.49997   0.31146   0.00000  Uiso   1.00
C226   C     0.35519   0.46024   0.17849   0.00000  Uiso   1.00
C227   C     0.64416   0.54091   0.15106   0.00000  Uiso   1.00
C228   C     0.64662   0.45796   0.16752   0.00000  Uiso   1.00
Cu229  Cu    0.50000   0.54689   0.16667   0.00000  Uiso   1.00
Cu230  Cu    0.50000   0.45311   0.16667   0.00000  Uiso   1.00
H231   H     0.40189   0.35701   0.19115   0.00000  Uiso   1.00
H232   H     0.59592   0.64250   0.15964   0.00000  Uiso   1.00
H233   H     0.59578   0.37130   0.11244   0.00000  Uiso   1.00
H234   H     0.38159   0.64359   0.10988   0.00000  Uiso   1.00
H235   H     0.44664   0.40796   0.10368   0.00000  Uiso   1.00
H236   H     0.55303   0.59199   0.22999   0.00000  Uiso   1.00
H237   H     0.55308   0.40638   0.22898   0.00000  Uiso   1.00
H238   H     0.44800   0.59344   0.10333   0.00000  Uiso   1.00
N239   N     0.50000   0.61736   0.16667   0.00000  Uiso   1.00
N240   N     0.50000   0.38264   0.16667   0.00000  Uiso   1.00
O241   O     0.43988   0.53958   0.16666   0.00000  Uiso   1.00
O242   O     0.38344   0.38023   0.17288   0.00000  Uiso   1.00
O243   O     0.60537   0.58736   0.09514   0.00000  Uiso   1.00
O244   O     0.61687   0.61850   0.17116   0.00000  Uiso   1.00
O245   O     0.62887   0.38367   0.19295   0.00000  Uiso   1.00
O246   O     0.60884   0.40263   0.11404   0.00000  Uiso   1.00
O247   O     0.38900   0.60608   0.18908   0.00000  Uiso   1.00
O248   O     0.36894   0.61197   0.10807   0.00000  Uiso   1.00
O249   O     0.45927   0.37975   0.09089   0.00000  Uiso   1.00
O250   O     0.54038   0.62023   0.24270   0.00000  Uiso   1.00
O251   O     0.54121   0.37822   0.24196   0.00000  Uiso   1.00
O252   O     0.56012   0.46042   0.16667   0.00000  Uiso   1.00
O253   O     0.45986   0.62173   0.09065   0.00000  Uiso   1.00
O254   O     0.56012   0.53958   0.16667   0.00000  Uiso   1.00
O255   O     0.43988   0.46042   0.16666   0.00000  Uiso   1.00
O256   O     0.50000   0.53959   0.09613   0.00000  Uiso   1.00
O257   O     0.50000   0.46041   0.23720   0.00000  Uiso   1.00
O258   O     0.50000   0.53959   0.23720   0.00000  Uiso   1.00
O259   O     0.50000   0.46041   0.09613   0.00000  Uiso   1.00
O260   O     0.39032   0.42162   0.24355   0.00000  Uiso   1.00
C261   C     0.75418   0.50053   0.16854   0.00000  Uiso   1.00
C262   C     0.68655   0.54258   0.15751   0.00000  Uiso   1.00
C263   C     0.95706   0.49914   0.15888   0.00000  Uiso   1.00
C264   C     0.70925   0.50170   0.16994   0.00000  Uiso   1.00
C265   C     0.81382   0.35815   0.12935   0.00000  Uiso   1.00
C266   C     0.85269   0.64185   0.20410   0.00000  Uiso   1.00
C267   C     0.85293   0.35739   0.20391   0.00000  Uiso   1.00
C268   C     0.81399   0.64261   0.12927   0.00000  Uiso   1.00
C269   C     0.71015   0.41961   0.20099   0.00000  Uiso   1.00
C270   C     0.95476   0.58370   0.13644   0.00000  Uiso   1.00
C271   C     0.96125   0.41224   0.15983   0.00000  Uiso   1.00
C272   C     0.91232   0.49964   0.16330   0.00000  Uiso   1.00
C273   C     0.70567   0.58831   0.15293   0.00000  Uiso   1.00
C274   C     0.83322   0.50002   0.07367   0.00000  Uiso   1.00
C275   C     0.83344   0.49998   0.25966   0.00000  Uiso   1.00
C276   C     0.83329   0.50003   0.02188   0.00000  Uiso   1.00
C277   C     0.83337   0.49997   0.31146   0.00000  Uiso   1.00
C278   C     0.68852   0.46024   0.17849   0.00000  Uiso   1.00
C279   C     0.97749   0.54091   0.15106   0.00000  Uiso   1.00
C280   C     0.97995   0.45796   0.16752   0.00000  Uiso   1.00
Cu281  Cu    0.83333   0.54689   0.16667   0.00000  Uiso   1.00
Cu282  Cu    0.83333   0.45311   0.16667   0.00000  Uiso   1.00
H283   H     0.73522   0.35701   0.19115   0.00000  Uiso   1.00
H284   H     0.92925   0.64250   0.15964   0.00000  Uiso   1.00
H285   H     0.92911   0.37130   0.11244   0.00000  Uiso   1.00
H286   H     0.71492   0.64359   0.10988   0.00000  Uiso   1.00
H287   H     0.77997   0.40796   0.10368   0.00000  Uiso   1.00
H288   H     0.88636   0.59199   0.22999   0.00000  Uiso   1.00
H289   H     0.88642   0.40638   0.22898   0.00000  Uiso   1.00
H290   H     0.78133   0.59344   0.10333   0.00000  Uiso   1.00
N291   N     0.83333   0.61736   0.16667   0.00000  Uiso   1.00
N292   N     0.83333   0.38264   0.16667   0.00000  Uiso   1.00
O293   O     0.77321   0.53958   0.16666   0.00000  Uiso   1.00
O294   O     0.71677   0.38023   0.17288   0.00000  Uiso   1.00
O295   O     0.93871   0.58736   0.09514   0.00000  Uiso   1.00
O296   O     0.95020   0.61850   0.17116   0.00000  Uiso   1.00
O297   O     0.96221   0.38367   0.19295   0.00000  Uiso   1.00
O298   O     0.94217   0.40263   0.11404   0.00000  Uiso   1.00
O299   O     0.72233   0.60608   0.18908   0.00000  Uiso   1.00
O300   O     0.70227   0.61197   0.10807   0.00000  Uiso   1.00
O301   O     0.79261   0.37975   0.09089   0.00000  Uiso   1.00
O302   O     0.87372   0.62023   0.24270   0.00000  Uiso   1.00
O303   O     0.87454   0.37822   0.24196   0.00000  Uiso   1.00
O304   O     0.89345   0.46042   0.16667   0.00000  Uiso   1.00
O305   O     0.79320   0.62173   0.09065   0.00000  Uiso   1.00
O306   O     0.89345   0.53958   0.16667   0.00000  Uiso   1.00
O307   O     0.77321   0.46042   0.16666   0.00000  Uiso   1.00
O308   O     0.83333   0.53959   0.09613   0.00000  Uiso   1.00
O309   O     0.83333   0.46041   0.23720   0.00000  Uiso   1.00
O310   O     0.83333   0.53959   0.23720   0.00000  Uiso   1.00
O311   O     0.83333   0.46041   0.09613   0.00000  Uiso   1.00
O312   O     0.72365   0.42162   0.24355   0.00000  Uiso   1.00
C313   C     0.08751   0.83386   0.16854   0.00000  Uiso   1.00
C314   C     0.01988   0.87591   0.15751   0.00000  Uiso   1.00
C315   C     0.29039   0.83248   0.15888   0.00000  Uiso   1.00
C316   C     0.04258   0.83503   0.16994   0.00000  Uiso   1.00
C317   C     0.14715   0.69148   0.12935   0.00000  Uiso   1.00
C318   C     0.18602   0.97519   0.20410   0.00000  Uiso   1.00
C319   C     0.18626   0.69072   0.20391   0.00000  Uiso   1.00
C320   C     0.14732   0.97595   0.12927   0.00000  Uiso   1.00
C321   C     0.04348   0.75295   0.20099   0.00000  Uiso   1.00
C322   C     0.28810   0.91703   0.13644   0.00000  Uiso   1.00
C323   C     0.29459   0.74558   0.15983   0.00000  Uiso   1.00
C324   C     0.24566   0.83298   0.16330   0.00000  Uiso   1.00
C325   C     0.03900   0.92164   0.15293   0.00000  Uiso   1.00
C326   C     0.16655   0.83336   0.07367   0.00000  Uiso   1.00
C327   C     0.16677   0.83331   0.25966   0.00000  Uiso   1.00
C328   C     0.16663   0.83336   0.02188   0.00000  Uiso   1.00
C329   C     0.16670   0.83330   0.31146   0.00000  Uiso   1.00
C330   C     0.02185   0.79358   0.17849   0.00000  Uiso   1.00
C331   C     0.31082   0.87424   0.15106   0.00000  Uiso   1.00
C332   C     0.31329   0.79129   0.16752   0.00000  Uiso   1.00
Cu333  Cu    0.16667   0.88022   0.16667   0.00000  Uiso   1.00
Cu334  Cu    0.16667   0.78645   0.16667   0.00000  Uiso   1.00
H335   H     0.06855   0.69034   0.19115   0.00000  Uiso   1.00
H336   H     0.26258   0.97583   0.15964   0.00000  Uiso   1.00
H337   H     0.26244   0.70464   0.11244   0.00000  Uiso   1.00
H338   H     0.04826   0.97693   0.10988   0.00000  Uiso   1.00
H339   H     0.11330   0.74129   0.10368   0.00000  Uiso   1.00
H340   H     0.21970   0.92532   0.22999   0.00000  Uiso   1.00
H341   H     0.21975   0.73971   0.22898   0.00000  Uiso   1.00
H342   H     0.11467   0.92678   0.10333   0.00000  Uiso   1.00
N343   N     0.16667   0.95069   0.16667   0.00000  Uiso   1.00
N344   N     0.16667   0.71598   0.16667   0.00000  Uiso   1.00
O345   O     0.10655   0.87291   0.16666   0.00000  Uiso   1.00
O346   O     0.05011   0.71356   0.17288   0.00000  Uiso   1.00
O347   O     0.27204   0.92069   0.09514   0.00000  Uiso   1.00
O348   O     0.28353   0.95184   0.17116   0.00000  Uiso   1.00
O349   O     0.29554   0.71701   0.19295   0.00000  Uiso   1.00
O350   O     0.27551   0.73597   0.11404   0.00000  Uiso   1.00
O351   O     0.05566   0.93941   0.18908   0.00000  Uiso   1.00
O352   O     0.03560   0.94530   0.10807   0.00000  Uiso   1.00
O353   O     0.12594   0.71309   0.09089   0.00000  Uiso   1.00
O354   O     0.20705   0.95357   0.24270   0.00000  Uiso   1.00
O355   O     0.20788   0.71155   0.24196   0.00000  Uiso   1.00
O356   O     0.22679   0.79375   0.16667   0.00000  Uiso   1.00
O357   O     0.12653   0.95507   0.09065   0.00000  Uiso   1.00
O358   O     0.22679   0.87291   0.16667   0.00000  Uiso   1.00
O359   O     0.10655   0.79375   0.16666   0.00000  Uiso   1.00
O360   O     0.16667   0.87292   0.09613   0.00000  Uiso   1.00
O361   O     0.16667   0.79375   0.23720   0.00000  Uiso   1.00
O362   O     0.16667   0.87292   0.23720   0.00000  Uiso   1.00
O363   O     0.16667   0.79375   0.09613   0.00000  Uiso   1.00
O364   O     0.05698   0.75496   0.24355   0.00000  Uiso   1.00
C365   C     0.42085   0.83386   0.16854   0.00000  Uiso   1.00
C366   C     0.35322   0.87591   0.15751   0.00000  Uiso   1.00
C367   C     0.62372   0.83248   0.15888   0.00000  Uiso   1.00
C368   C     0.37592   0.83503   0.16994   0.00000  Uiso   1.00
C369   C     0.48049   0.69148   0.12935   0.00000  Uiso   1.00
C370   C     0.51935   0.97519   0.20410   0.00000  Uiso   1.00
C371   C     0.51959   0.69072   0.20391   0.00000  Uiso   1.00
C372   C     0.48066   0.97595   0.12927   0.00000  Uiso   1.00
C373   C     0.37682   0.75295   0.20099   0.00000  Uiso   1.00
C374   C     0.62143   0.91703   0.13644   0.00000  Uiso   1.00
C375   C     0.62792   0.74558   0.15983   0.00000  Uiso   1.00
C376   C     0.57899   0.83298   0.16330   0.00000  Uiso   1.00
C377   C     0.37234   0.92164   0.15293   0.00000  Uiso   1.00
C378   C     0.49989   0.83336   0.07367   0.00000  Uiso   1.00
C379   C     0.50011   0.83331   0.25966   0.00000  Uiso   1.00
C380   C     0.49996   0.83336   0.02188   0.00000  Uiso   1.00
C381   C     0.50004   0.83330   0.31146   0.00000  Uiso   1.00
C382   C     0.35519   0.79358   0.17849   0.00000  Uiso   1.00
C383   C     0.64416   0.87424   0.15106   0.00000  Uiso   1.00
C384   C     0.64662   0.79129   0.16752   0.00000  Uiso   1.00
Cu385  Cu    0.50000   0.88022   0.16667   0.00000  Uiso   1.00
Cu386  Cu    0.50000   0.78645   0.16667   0.00000  Uiso   1.00
H387   H     0.40189   0.69034   0.19115   0.00000  Uiso   1.00
H388   H     0.59592   0.97583   0.15964   0.00000  Uiso   1.00
H389   H     0.59578   0.70464   0.11244   0.00000  Uiso   1.00
H390   H     0.38159   0.97693   0.10988   0.00000  Uiso   1.00
H391   H     0.44664   0.74129   0.10368   0.00000  Uiso   1.00
H392   H     0.55303   0.92532   0.22999   0.00000  Uiso   1.00
H393   H     0.55308   0.73971   0.22898   0.00000  Uiso   1.00
H394   H     0.44800   0.92678   0.10333   0.00000  Uiso   1.00
N395   N     0.50000   0.95069   0.16667   0.00000  Uiso   1.00
N396   N     0.50000   0.71598   0.16667   0.00000  Uiso   1.00
O397   O     0.43988   0.87291   0.16666   0.00000  Uiso   1.00
O398   O     0.38344   0.71356   0.17288   0.00000  Uiso   1.00
O399   O     0.60537   0.92069   0.09514   0.00000  Uiso   1.00
O400   O     0.61687   0.95184   0.17116   0.00000  Uiso   1.00
O401   O     0.62887   0.71701   0.19295   0.00000  Uiso   1.00
O402   O     0.60884   0.73597   0.11404   0.00000  Uiso   1.00
O403   O     0.38900   0.93941   0.18908   0.00000  Uiso   1.00
O404   O     0.36894   0.94530   0.10807   0.00000  Uiso   1.00
O405   O     0.45927   0.71309   0.09089   0.00000  Uiso   1.00
O406   O     0.54038   0.95357   0.24270   0.00000  Uiso   1.00
O407   O     0.54121   0.71155   0.24196   0.00000  Uiso   1.00
O408   O     0.56012   0.79375   0.16667   0.00000  Uiso   1.00
O409   O     0.45986   0.95507   0.09065   0.00000  Uiso   1.00
O410   O     0.56012   0.87291   0.16667   0.00000  Uiso   1.00
O411   O     0.43988   0.79375   0.16666   0.00000  Uiso   1.00
O412   O     0.50000   0.87292   0.09613   0.00000  Uiso   1.00
O413   O     0.50000   0.79375   0.23720   0.00000  Uiso   1.00
O414   O     0.50000   0.87292   0.23720   0.00000  Uiso   1.00
O415   O     0.50000   0.79375   0.09613   0.00000  Uiso   1.00
O416   O     0.39032   0.75496   0.24355   0.00000  Uiso   1.00
C417   C     0.75418   0.83386   0.16854   0.00000  Uiso   1.00
C418   C     0.68655   0.87591   0.15751   0.00000  Uiso   1.00
C419   C     0.95706   0.83248   0.15888   0.00000  Uiso   1.00
C420   C     0.70925   0.83503   0.16994   0.00000  Uiso   1.00
C421   C     0.81382   0.69148   0.12935   0.00000  Uiso   1.00
C422   C     0.85269   0.97519   0.20410   0.00000  Uiso   1.00
C423   C     0.85293   0.69072   0.20391   0.00000  Uiso   1.00
C424   C     0.81399   0.97595   0.12927   0.00000  Uiso   1.00
C425   C     0.71015   0.75295   0.20099   0.00000  Uiso   1.00
C426   C     0.95476   0.91703   0.13644   0.00000  Uiso   1.00
C427   C     0.96125   0.74558   0.15983   0.00000  Uiso   1.00
C428   C     0.91232   0.83298   0.16330   0.00000  Uiso   1.00
C429   C     0.70567   0.92164   0.15293   0.00000  Uiso   1.00
C430   C     0.83322   0.83336   0.07367   0.00000  Uiso   1.00
C431   C     0.83344   0.83331   0.25966   0.00000  Uiso   1.00
C432   C     0.83329   0.83336   0.02188   0.00000  Uiso   1.00
C433   C     0.83337   0.83330   0.31146   0.00000  Uiso   1.00
C434   C     0.68852   0.79358   0.17849   0.00000  Uiso   1.00
C435   C     0.97749   0.87424   0.15106   0.00000  Uiso   1.00
C436   C     0.97995   0.79129   0.16752   0.00000  Uiso   1.00
Cu437  Cu    0.83333   0.88022   0.16667   0.00000  Uiso   1.00
Cu438  Cu    0.83333   0.78645   0.16667   0.00000  Uiso   1.00
H439   H     0.73522   0.69034   0.19115   0.00000  Uiso   1.00
H440   H     0.92925   0.97583   0.15964   0.00000  Uiso   1.00
H441   H     0.92911   0.70464   0.11244   0.00000  Uiso   1.00
H442   H     0.71492   0.97693   0.10988   0.00000  Uiso   1.00
H443   H     0.77997   0.74129   0.10368   0.00000  Uiso   1.00
H444   H     0.88636   0.92532   0.22999   0.00000  Uiso   1.00
H445   H     0.88642   0.73971   0.22898   0.00000  Uiso   1.00
H446   H     0.78133   0.92678   0.10333   0.00000  Uiso   1.00
N447   N     0.83333   0.95069   0.16667   0.00000  Uiso   1.00
N448   N     0.83333   0.71598   0.16667   0.00000  Uiso   1.00
O449   O     0.77321   0.87291   0.16666   0.00000  Uiso   1.00
O450   O     0.71677   0.71356   0.17288   0.00000  Uiso   1.00
O451   O     0.93871   0.92069   0.09514   0.00000  Uiso   1.00
O452   O     0.95020   0.95184   0.17116   0.00000  Uiso   1.00
O453   O     0.96221   0.71701   0.19295   0.00000  Uiso   1.00
O454   O     0.94217   0.73597   0.11404   0.00000  Uiso   1.00
O455   O     0.72233   0.93941   0.18908   0.00000  Uiso   1.00
O456   O     0.70227   0.94530   0.10807   0.00000  Uiso   1.00
O457   O     0.79261   0.71309   0.09089   0.00000  Uiso   1.00
O458   O     0.87372   0.95357   0.24270   0.00000  Uiso   1.00
O459   O     0.87454   0.71155   0.24196   0.00000  Uiso   1.00
O460   O     0.89345   0.79375   0.16667   0.00000  Uiso   1.00
O461   O     0.79320   0.95507   0.09065   0.00000  Uiso   1.00
O462   O     0.89345   0.87291   0.16667   0.00000  Uiso   1.00
O463   O     0.77321   0.79375   0.16666   0.00000  Uiso   1.00
O464   O     0.83333   0.87292   0.09613   0.00000  Uiso   1.00
O465   O     0.83333   0.79375   0.23720   0.00000  Uiso   1.00
O466   O     0.83333   0.87292   0.23720   0.00000  Uiso   1.00
O467   O     0.83333   0.79375   0.09613   0.00000  Uiso   1.00
O468   O     0.72365   0.75496   0.24355   0.00000  Uiso   1.00
C469   C     0.08751   0.16719   0.50187   0.00000  Uiso   1.00
C470   C     0.01988   0.20924   0.49084   0.00000  Uiso   1.00
C471   C     0.29039   0.16581   0.49222   0.00000  Uiso   1.00
C472   C     0.04258   0.16837   0.50328   0.00000  Uiso   1.00
C473   C     0.14715   0.02482   0.46269   0.00000  Uiso   1.00
C474   C     0.18602   0.30852   0.53744   0.00000  Uiso   1.00
C475   C     0.18626   0.02406   0.53724   0.00000  Uiso   1.00
C476   C     0.14732   0.30928   0.46260   0.00000  Uiso   1.00
C477   C     0.04348   0.08628   0.53432   0.00000  Uiso   1.00
C478   C     0.28810   0.25036   0.46977   0.00000  Uiso   1.00
C479   C     0.29459   0.07891   0.49316   0.00000  Uiso   1.00
C480   C     0.24566   0.16631   0.49664   0.00000  Uiso   1.00
C481   C     0.03900   0.25497   0.48626   0.00000  Uiso   1.00
C482   C     0.16655   0.16669   0.40701   0.00000  Uiso   1.00
C483   C     0.16677   0.16664   0.59299   0.00000  Uiso   1.00
C484   C     0.16663   0.16669   0.35521   0.00000  Uiso   1.00
C485   C     0.16670   0.16664   0.64479   0.00000  Uiso   1.00
C486   C     0.02185   0.12691   0.51182   0.00000  Uiso   1.00
C487   C     0.31082   0.20758   0.48439   0.00000  Uiso   1.00
C488   C     0.31329   0.12463   0.50086   0.00000  Uiso   1.00
Cu489  Cu    0.16667   0.21355   0.50000   0.00000  Uiso   1.00
Cu490  Cu    0.16667   0.11978   0.50000   0.00000  Uiso   1.00
H491   H     0.06855   0.02368   0.52448   0.00000  Uiso   1.00
H492   H     0.26258   0.30917   0.49297   0.00000  Uiso   1.00
H493   H     0.26244   0.03797   0.44578   0.00000  Uiso   1.00
H494   H     0.04826   0.31026   0.44321   0.00000  Uiso   1.00
H495   H     0.11330   0.07463   0.43702   0.00000  Uiso   1.00
H496   H     0.21970   0.25865   0.56333   0.00000  Uiso   1.00
H497   H     0.21975   0.07304   0.56231   0.00000  Uiso   1.00
H498   H     0.11467   0.26011   0.43666   0.00000  Uiso   1.00
N499   N     0.16667   0.28402   0.50000   0.00000  Uiso   1.00
N500   N     0.16667   0.04931   0.50000   0.00000  Uiso   1.00
O501   O     0.10655   0.20625   0.50000   0.00000  Uiso   1.00
O502   O     0.05011   0.04689   0.50622   0.00000  Uiso   1.00
O503   O     0.27204   0.25403   0.42848   0.00000  Uiso   1.00
O504   O     0.28353   0.28517   0.50450   0.00000  Uiso   1.00
O505   O     0.29554   0.05034   0.52629   0.00000  Uiso   1.00
O506   O     0.27551   0.06930   0.44737   0.00000  Uiso   1.00
O507   O     0.05566   0.27275   0.52241   0.00000  Uiso   1.00
O508   O     0.03560   0.27863   0.44140   0.00000  Uiso   1.00
O509   O     0.12594   0.04642   0.42422   0.00000  Uiso   1.00
O510   O     0.20705   0.28690   0.57603   0.00000  Uiso   1.00
O511   O     0.20788   0.04488   0.57530   0.00000  Uiso   1.00
O512   O     0.22679   0.12709   0.50000   0.00000  Uiso   1.00
O513   O     0.12653   0.28840   0.42398   0.00000  Uiso   1.00
O514   O     0.22679   0.20625   0.50000   0.00000  Uiso   1.00
O515   O     0.10655   0.12709   0.50000   0.00000  Uiso   1.00
O516   O     0.16667   0.20625   0.42946   0.00000  Uiso   1.00
O517   O     0.16667   0.12708   0.57054   0.00000  Uiso   1.00
O518   O     0.16667   0.20625   0.57054   0.00000  Uiso   1.00
O519   O     0.16667   0.12708   0.42946   0.00000  Uiso   1.00
O520   O     0.05698   0.08829   0.57689   0.00000  Uiso   1.00
C521   C     0.42085   0.16719   0.50187   0.00000  Uiso   1.00
C522   C     0.35322   0.20924   0.49084   0.00000  Uiso   1.00
C523   C     0.62372   0.16581   0.49222   0.00000  Uiso   1.00
C524   C     0.37592   0.16837   0.50328   0.00000  Uiso   1.00
C525   C     0.48049   0.02482   0.46269   0.00000  Uiso   1.00
C526   C     0.51935   0.30852   0.53744   0.00000  Uiso   1.00
C527   C     0.51959   0.02406   0.53724   0.00000  Uiso   1.00
C528   C     0.48066   0.30928   0.46260   0.00000  Uiso   1.00
C529   C     0.37682   0.08628   0.53432   0.00000  Uiso   1.00
C530   C     0.62143   0.25036   0.46977   0.00000  Uiso   1.00
C531   C     0.62792   0.07891   0.49316   0.00000  Uiso   1.00
C532   C     0.57899   0.16631   0.49664   0.00000  Uiso   1.00
C533   C     0.37234   0.25497   0.48626   0.00000  Uiso   1.00
C534   C     0.49989   0.16669   0.40701   0.00000  Uiso   1.00
C535   C     0.50011   0.16664   0.59299   0.00000  Uiso   1.00
C536   C     0.49996   0.16669   0.35521   0.00000  Uiso   1.00
C537   C     0.50004   0.16664   0.64479   0.00000  Uiso   1.00
C538   C     0.35519   0.12691   0.51182   0.00000  Uiso   1.00
C539   C     0.64416   0.20758   0.48439   0.00000  Uiso   1.00
C540   C     0.64662   0.12463   0.50086   0.00000  Uiso   1.00
Cu541  Cu    0.50000   0.21355   0.50000   0.00000  Uiso   1.00
Cu542  Cu    0.50000   0.11978   0.50000   0.00000  Uiso   1.00
H543   H     0.40189   0.02368   0.52448   0.00000  Uiso   1.00
H544   H     0.59592   0.30917   0.49297   0.00000  Uiso   1.00
H545   H     0.59578   0.03797   0.44578   0.00000  Uiso   1.00
H546   H     0.38159   0.31026   0.44321   0.00000  Uiso   1.00
H547   H     0.44664   0.07463   0.43702   0.00000  Uiso   1.00
H548   H     0.55303   0.25865   0.56333   0.00000  Uiso   1.00
H549   H     0.55308   0.07304   0.56231   0.00000  Uiso   1.00
H550   H     0.44800   0.26011   0.43666   0.00000  Uiso   1.00
N551   N     0.50000   0.28402   0.50000   0.00000  Uiso   1.00
N552   N     0.50000   0.04931   0.50000   0.00000  Uiso   1.00
O553   O     0.43988   0.20625   0.50000   0.00000  Uiso   1.00
O554   O     0.38344   0.04689   0.50622   0.00000  Uiso   1.00
O555   O     0.60537   0.25403   0.42848   0.00000  Uiso   1.00
O556   O     0.61687   0.28517   0.50450   0.00000  Uiso   1.00
O557   O     0.62887   0.05034   0.52629   0.00000  Uiso   1.00
O558   O     0.60884   0.06930   0.44737   0.00000  Uiso   1.00
O559   O     0.38900   0.27275   0.52241   0.00000  Uiso   1.00
O560   O     0.36894   0.27863   0.44140   0.00000  Uiso   1.00
O561   O     0.45927   0.04642   0.42422   0.00000  Uiso   1.00
O562   O     0.54038   0.28690   0.57603   0.00000  Uiso   1.00
O563   O     0.54121   0.04488   0.57530   0.00000  Uiso   1.00
O564   O     0.56012   0.12709   0.50000   0.00000  Uiso   1.00
O565   O     0.45986   0.28840   0.42398   0.00000  Uiso   1.00
O566   O     0.56012   0.20625   0.50000   0.00000  Uiso   1.00
O567   O     0.43988   0.12709   0.50000   0.00000  Uiso   1.00
O568   O     0.50000   0.20625   0.42946   0.00000  Uiso   1.00
O569   O     0.50000   0.12708   0.57054   0.00000  Uiso   1.00
O570   O     0.50000   0.20625   0.57054   0.00000  Uiso   1.00
O571   O     0.50000   0.12708   0.42946   0.00000  Uiso   1.00
O572   O     0.39032   0.08829   0.57689   0.00000  Uiso   1.00
C573   C     0.75418   0.16719   0.50187   0.00000  Uiso   1.00
C574   C     0.68655   0.20924   0.49084   0.00000  Uiso   1.00
C575   C     0.95706   0.16581   0.49222   0.00000  Uiso   1.00
C576   C     0.70925   0.16837   0.50328   0.00000  Uiso   1.00
C577   C     0.81382   0.02482   0.46269   0.00000  Uiso   1.00
C578   C     0.85269   0.30852   0.53744   0.00000  Uiso   1.00
C579   C     0.85293   0.02406   0.53724   0.00000  Uiso   1.00
C580   C     0.81399   0.30928   0.46260   0.00000  Uiso   1.00
C581   C     0.71015   0.08628   0.53432   0.00000  Uiso   1.00
C582   C     0.95476   0.25036   0.46977   0.00000  Uiso   1.00
C583   C     0.96125   0.07891   0.49316   0.00000  Uiso   1.00
C584   C     0.91232   0.16631   0.49664   0.00000  Uiso   1.00
C585   C     0.70567   0.25497   0.48626   0.00000  Uiso   1.00
C586   C     0.83322   0.16669   0.40701   0.00000  Uiso   1.00
C587   C     0.83344   0.16664   0.59299   0.00000  Uiso   1.00
C588   C     0.83329   0.16669   0.35521   0.00000  Uiso   1.00
C589   C     0.83337   0.16664   0.64479   0.00000  Uiso   1.00
C590   C     0.68852   0.12691   0.51182   0.00000  Uiso   1.00
C591   C     0.97749   0.20758   0.48439   0.00000  Uiso   1.00
C592   C     0.97995   0.12463   0.50086   0.00000  Uiso   1.00
Cu593  Cu    0.83333   0.21355   0.50000   0.00000  Uiso   1.00
Cu594  Cu    0.83333   0.11978   0.50000   0.00000  Uiso   1.00
H595   H     0.73522   0.02368   0.52448   0.00000  Uiso   1.00
H596   H     0.92925   0.30917   0.49297   0.00000  Uiso   1.00
H597   H     0.92911   0.03797   0.44578   0.00000  Uiso   1.00
H598   H     0.71492   0.31026   0.44321   0.00000  Uiso   1.00
H599   H     0.77997   0.07463   0.43702   0.00000  Uiso   1.00
H600   H     0.88636   0.25865   0.56333   0.00000  Uiso   1.00
H601   H     0.88642   0.07304   0.56231   0.00000  Uiso   1.00
H602   H     0.78133   0.26011   0.43666   0.00000  Uiso   1.00
N603   N     0.83333   0.28402   0.50000   0.00000  Uiso   1.00
N604   N     0.83333   0.04931   0.50000   0.00000  Uiso   1.00
O605   O     0.77321   0.20625   0.50000   0.00000  Uiso   1.00
O606   O     0.71677   0.04689   0.50622   0.00000  Uiso   1.00
O607   O     0.93871   0.25403   0.42848   0.00000  Uiso   1.00
O608   O     0.95020   0.28517   0.50450   0.00000  Uiso   1.00
O609   O     0.96221   0.05034   0.52629   0.00000  Uiso   1.00
O610   O     0.94217   0.06930   0.44737   0.00000  Uiso   1.00
O611   O     0.72233   0.27275   0.52241   0.00000  Uiso   1.00
O612   O     0.70227   0.27863   0.44140   0.00000  Uiso   1.00
O613   O     0.79261   0.04642   0.42422   0.00000  Uiso   1.00
O614   O     0.87372   0.28690   0.57603   0.00000  Uiso   1.00
O615   O     0.87454   0.04488   0.57530   0.00000  Uiso   1.00
O616   O     0.89345   0.12709   0.50000   0.00000  Uiso   1.00
O617   O     0.79320   0.28840   0.42398   0.00000  Uiso   1.00
O618   O     0.89345   0.20625   0.50000   0.00000  Uiso   1.00
O619   O     0.77321   0.12709   0.50000   0.00000  Uiso   1.00
O620   O     0.83333   0.20625   0.42946   0.00000  Uiso   1.00
O621   O     0.83333   0.12708   0.57054   0.00000  Uiso   1.00
O622   O     0.83333   0.20625   0.57054   0.00000  Uiso   1.00
O623   O     0.83333   0.12708   0.42946   0.00000  Uiso   1.00
O624   O     0.72365   0.08829   0.57689   0.00000  Uiso   1.00
C625   C     0.08751   0.50053   0.50187   0.00000  Uiso   1.00
C626   C     0.01988   0.54258   0.49084   0.00000  Uiso   1.00
C627   C     0.29039   0.49914   0.49222   0.00000  Uiso   1.00
C628   C     0.04258   0.50170   0.50328   0.00000  Uiso   1.00
C629   C     0.14715   0.35815   0.46269   0.00000  Uiso   1.00
C630   C     0.18602   0.64185   0.53744   0.00000  Uiso   1.00
C631   C     0.18626   0.35739   0.53724   0.00000  Uiso   1.00
C632   C     0.14732   0.64261   0.46260   0.00000  Uiso   1.00
C633   C     0.04348   0.41961   0.53432   0.00000  Uiso   1.00
C634   C     0.28810   0.58370   0.46977   0.00000  Uiso   1.00
C635   C     0.29459   0.41224   0.49316   0.00000  Uiso   1.00
C636   C     0.24566   0.49964   0.49664   0.00000  Uiso   1.00
C637   C     0.03900   0.58831   0.48626   0.00000  Uiso   1.00
C638   C     0.16655   0.50002   0.40701   0.00000  Uiso   1.00
C639   C     0.16677   0.49998   0.59299   0.00000  Uiso   1.00
C640   C     0.16663   0.50003   0.35521   0.00000  Uiso   1.00
C641   C     0.16670   0.49997   0.64479   0.00000  Uiso   1.00
C642   C     0.02185   0.46024   0.51182   0.00000  Uiso   1.00
C643   C     0.31082   0.54091   0.48439   0.00000  Uiso   1.00
C644   C     0.31329   0.45796   0.50086   0.00000  Uiso   1.00
Cu645  Cu    0.16667   0.54689   0.50000   0.00000  Uiso   1.00
Cu646  Cu    0.16667   0.45311   0.50000   0.00000  Uiso   1.00
H647   H     0.06855   0.35701   0.52448   0.00000  Uiso   1.00
H648   H     0.26258   0.64250   0.49297   0.00000  Uiso   1.00
H649   H     0.26244   0.37130   0.44578   0.00000  Uiso   1.00
H650   H     0.04826   0.64359   0.44321   0.00000  Uiso   1.00
H651   H     0.11330   0.40796   0.43702   0.00000  Uiso   1.00
H652   H     0.21970   0.59199   0.56333   0.00000  Uiso   1.00
H653   H     0.21975   0.40638   0.56231   0.00000  Uiso   1.00
H654   H     0.11467   0.59344   0.43666   0.00000  Uiso   1.00
N655   N     0.16667   0.61736   0.50000   0.00000  Uiso   1.00
N656   N     0.16667   0.38264   0.50000   0.00000  Uiso   1.00
O657   O     0.10655   0.53958   0.50000   0.00000  Uiso   1.00
O658   O     0.05011   0.38023   0.50622   0.00000  Uiso   1.00
O659   O     0.27204   0.58736   0.42848   0.00000  Uiso   1.00
O660   O     0.28353   0.61850   0.50450   0.00000  Uiso   1.00
O661   O     0.29554   0.38367   0.52629   0.00000  Uiso   1.00
O662   O     0.27551   0.40263   0.44737   0.00000  Uiso   1.00
O663   O     0.05566   0.60608   0.52241   0.00000  Uiso   1.00
O664   O     0.03560   0.61197   0.44140   0.00000  Uiso   1.00
O665   O     0.12594   0.37975   0.42422   0.00000  Uiso   1.00
O666   O     0.20705   0.62023   0.57603   0.00000  Uiso   1.00
O667   O     0.20788   0.37822   0.57530   0.00000  Uiso   1.00
O668   O     0.22679   0.46042   0.50000   0.00000  Uiso   1.00
O669   O     0.12653   0.62173   0.42398   0.00000  Uiso   1.00
O670   O     0.22679   0.53958   0.50000   0.00000  Uiso   1.00
O671   O     0.10655   0.46042   0.50000   0.00000  Uiso   1.00
O672   O     0.16667   0.53959   0.42946   0.00000  Uiso   1.00
O673   O     0.16667   0.46041   0.57054   0.00000  Uiso   1.00
O674   O     0.16667   0.53959   0.57054   0.00000  Uiso   1.00
O675   O     0.16667   0.46041   0.42946   0.00000  Uiso   1.00
O676   O     0.05698   0.42162   0.57689   0.00000  Uiso   1.00
C677   C     0.42085   0.50053   0.50187   0.00000  Uiso   1.00
C678   C     0.35322   0.54258   0.49084   0.00000  Uiso   1.00
C679   C     0.62372   0.49914   0.49222   0.00000  Uiso   1.00
C680   C     0.37592   0.50170   0.50328   0.00000  Uiso   1.00
C681   C     0.48049   0.35815   0.46269   0.00000  Uiso   1.00
C682   C     0.51935   0.64185   0.53744   0.00000  Uiso   1.00
C683   C     0.51959   0.35739   0.53724   0.00000  Uiso   1.00
C684   C     0.48066   0.64261   0.46260   0.00000  Uiso   1.00
C685   C     0.37682   0.41961   0.53432   0.00000  Uiso   1.00
C686   C     0.62143   0.58370   0.46977   0.00000  Uiso   1.00
C687   C     0.62792   0.41224   0.49316   0.00000  Uiso   1.00
C688   C     0.57899   0.49964   0.49664   0.00000  Uiso   1.00
C689   C     0.37234   0.58831   0.48626   0.00000  Uiso   1.00
C690   C     0.49989   0.50002   0.40701   0.00000  Uiso   1.00
C691   C     0.50011   0.49998   0.59299   0.00000  Uiso   1.00
C692   C     0.49996   0.50003   0.35521   0.00000  Uiso   1.00
C693   C     0.50004   0.49997   0.64479   0.00000  Uiso   1.00
C694   C     0.35519   0.46024   0.51182   0.00000  Uiso   1.00
C695   C     0.64416   0.54091   0.48439   0.00000  Uiso   1.00
C696   C     0.64662   0.45796   0.50086   0.00000  Uiso   1.00
Cu697  Cu    0.50000   0.54689   0.50000   0.00000  Uiso   1.00
Cu698  Cu    0.50000   0.45311   0.50000   0.00000  Uiso   1.00
H699   H     0.40189   0.35701   0.52448   0.00000  Uiso   1.00
H700   H     0.59592   0.64250   0.49297   0.00000  Uiso   1.00
H701   H     0.59578   0.37130   0.44578   0.00000  Uiso   1.00
H702   H     0.38159   0.64359   0.44321   0.00000  Uiso   1.00
H703   H     0.44664   0.40796   0.43702   0.00000  Uiso   1.00
H704   H     0.55303   0.59199   0.56333   0.00000  Uiso   1.00
H705   H     0.55308   0.40638   0.56231   0.00000  Uiso   1.00
H706   H     0.44800   0.59344   0.43666   0.00000  Uiso   1.00
N707   N     0.50000   0.61736   0.50000   0.00000  Uiso   1.00
N708   N     0.50000   0.38264   0.50000   0.00000  Uiso   1.00
O709   O     0.43988   0.53958   0.50000   0.00000  Uiso   1.00
O710   O     0.38344   0.38023   0.50622   0.00000  Uiso   1.00
O711   O     0.60537   0.58736   0.42848   0.00000  Uiso   1.00
O712   O     0.61687   0.61850   0.50450   0.00000  Uiso   1.00
O713   O     0.62887   0.38367   0.52629   0.00000  Uiso   1.00
O714   O     0.60884   0.40263   0.44737   0.00000  Uiso   1.00
O715   O     0.38900   0.60608   0.52241   0.00000  Uiso   1.00
O716   O     0.36894   0.61197   0.44140   0.00000  Uiso   1.00
O717   O     0.45927   0.37975   0.42422   0.00000  Uiso   1.00
O718   O     0.54038   0.62023   0.57603   0.00000  Uiso   1.00
O719   O     0.54121   0.37822   0.57530   0.00000  Uiso   1.00
O720   O     0.56012   0.46042   0.50000   0.00000  Uiso   1.00
O721   O     0.45986   0.62173   0.42398   0.00000  Uiso   1.00
O722   O     0.56012   0.53958   0.50000   0.00000  Uiso   1.00
O723   O     0.43988   0.46042   0.50000   0.00000  Uiso   1.00
O724   O     0.50000   0.53959   0.42946   0.00000  Uiso   1.00
O725   O     0.50000   0.46041   0.57054   0.00000  Uiso   1.00
O726   O     0.50000   0.53959   0.57054   0.00000  Uiso   1.00
O727   O     0.50000   0.46041   0.42946   0.00000  Uiso   1.00
O728   O     0.39032   0.42162   0.57689   0.00000  Uiso   1.00
C729   C     0.75418   0.50053   0.50187   0.00000  Uiso   1.00
C730   C     0.68655   0.54258   0.49084   0.00000  Uiso   1.00
C731   C     0.95706   0.49914   0.49222   0.00000  Uiso   1.00
C732   C     0.70925   0.50170   0.50328   0.00000  Uiso   1.00
C733   C     0.81382   0.35815   0.46269   0.00000  Uiso   1.00
C734   C     0.85269   0.64185   0.53744   0.00000  Uiso   1.00
C735   C     0.85293   0.35739   0.53724   0.00000  Uiso   1.00
C736   C     0.81399   0.64261   0.46260   0.00000  Uiso   1.00
C737   C     0.71015   0.41961   0.53432   0.00000  Uiso   1.00
C738   C     0.95476   0.58370   0.46977   0.00000  Uiso   1.00
C739   C     0.96125   0.41224   0.49316   0.00000  Uiso   1.00
C740   C     0.91232   0.49964   0.49664   0.00000  Uiso   1.00
C741   C     0.70567   0.58831   0.48626   0.00000  Uiso   1.00
C742   C     0.83322   0.50002   0.40701   0.00000  Uiso   1.00
C743   C     0.83344   0.49998   0.59299   0.00000  Uiso   1.00
C744   C     0.83329   0.50003   0.35521   0.00000  Uiso   1.00
C745   C     0.83337   0.49997   0.64479   0.00000  Uiso   1.00
C746   C     0.68852   0.46024   0.51182   0.00000  Uiso   1.00
C747   C     0.97749   0.54091   0.48439   0.00000  Uiso   1.00
C748   C     0.97995   0.45796   0.50086   0.00000  Uiso   1.00
Cu749  Cu    0.83333   0.54689   0.50000   0.00000  Uiso   1.00
Cu750  Cu    0.83333   0.45311   0.50000   0.00000  Uiso   1.00
H751   H     0.73522   0.35701   0.52448   0.00000  Uiso   1.00
H752   H     0.92925   0.64250   0.49297   0.00000  Uiso   1.00
H753   H     0.92911   0.37130   0.44578   0.00000  Uiso   1.00
H754   H     0.71492   0.64359   0.44321   0.00000  Uiso   1.00
H755   H     0.77997   0.40796   0.43702   0.00000  Uiso   1.00
H756   H     0.88636   0.59199   0.56333   0.00000  Uiso   1.00
H757   H     0.88642   0.40638   0.56231   0.00000  Uiso   1.00
H758   H     0.78133   0.59344   0.43666   0.00000  Uiso   1.00
N759   N     0.83333   0.61736   0.50000   0.00000  Uiso   1.00
N760   N     0.83333   0.38264   0.50000   0.00000  Uiso   1.00
O761   O     0.77321   0.53958   0.50000   0.00000  Uiso   1.00
O762   O     0.71677   0.38023   0.50622   0.00000  Uiso   1.00
O763   O     0.93871   0.58736   0.42848   0.00000  Uiso   1.00
O764   O     0.95020   0.61850   0.50450   0.00000  Uiso   1.00
O765   O     0.96221   0.38367   0.52629   0.00000  Uiso   1.00
O766   O     0.94217   0.40263   0.44737   0.00000  Uiso   1.00
O767   O     0.72233   0.60608   0.52241   0.00000  Uiso   1.00
O768   O     0.70227   0.61197   0.44140   0.00000  Uiso   1.00
O769   O     0.79261   0.37975   0.42422   0.00000  Uiso   1.00
O770   O     0.87372   0.62023   0.57603   0.00000  Uiso   1.00
O771   O     0.87454   0.37822   0.57530   0.00000  Uiso   1.00
O772   O     0.89345   0.46042   0.50000   0.00000  Uiso   1.00
O773   O     0.79320   0.62173   0.42398   0.00000  Uiso   1.00
O774   O     0.89345   0.53958   0.50000   0.00000  Uiso   1.00
O775   O     0.77321   0.46042   0.50000   0.00000  Uiso   1.00
O776   O     0.83333   0.53959   0.42946   0.00000  Uiso   1.00
O777   O     0.83333   0.46041   0.57054   0.00000  Uiso   1.00
O778   O     0.83333   0.53959   0.57054   0.00000  Uiso   1.00
O779   O     0.83333   0.46041   0.42946   0.00000  Uiso   1.00
O780   O     0.72365   0.42162   0.57689   0.00000  Uiso   1.00
C781   C     0.08751   0.83386   0.50187   0.00000  Uiso   1.00
C782   C     0.01988   0.87591   0.49084   0.00000  Uiso   1.00
C783   C     0.29039   0.83248   0.49222   0.00000  Uiso   1.00
C784   C     0.04258   0.83503   0.50328   0.00000  Uiso   1.00
C785   C     0.14715   0.69148   0.46269   0.00000  Uiso   1.00
C786   C     0.18602   0.97519   0.53744   0.00000  Uiso   1.00
C787   C     0.18626   0.69072   0.53724   0.00000  Uiso   1.00
C788   C     0.14732   0.97595   0.46260   0.00000  Uiso   1.00
C789   C     0.04348   0.75295   0.53432   0.00000  Uiso   1.00
C790   C     0.28810   0.91703   0.46977   0.00000  Uiso   1.00
C791   C     0.29459   0.74558   0.49316   0.00000  Uiso   1.00
C792   C     0.24566   0.83298   0.49664   0.00000  Uiso   1.00
C793   C     0.03900   0.92164   0.48626   0.00000  Uiso   1.00
C794   C     0.16655   0.83336   0.40701   0.00000  Uiso   1.00
C795   C     0.16677   0.83331   0.59299   0.00000  Uiso   1.00
C796   C     0.16663   0.83336   0.35521   0.00000  Uiso   1.00
C797   C     0.16670   0.83330   0.64479   0.00000  Uiso   1.00
C798   C     0.02185   0.79358   0.51182   0.00000  Uiso   1.00
C799   C     0.31082   0.87424   0.48439   0.00000  Uiso   1.00
C800   C     0.31329   0.79129   0.50086   0.00000  Uiso   1.00
Cu801  Cu    0.16667   0.88022   0.50000   0.00000  Uiso   1.00
Cu802  Cu    0.16667   0.78645   0.50000   0.00000  Uiso   1.00
H803   H     0.06855   0.69034   0.52448   0.00000  Uiso   1.00
H804   H     0.26258   0.97583   0.49297   0.00000  Uiso   1.00
H805   H     0.26244   0.70464   0.44578   0.00000  Uiso   1.00
H806   H     0.04826   0.97693   0.44321   0.00000  Uiso   1.00
H807   H     0.11330   0.74129   0.43702   0.00000  Uiso   1.00
H808   H     0.21970   0.92532   0.56333   0.00000  Uiso   1.00
H809   H     0.21975   0.73971   0.56231   0.00000  Uiso   1.00
H810   H     0.11467   0.92678   0.43666   0.00000  Uiso   1.00
N811   N     0.16667   0.95069   0.50000   0.00000  Uiso   1.00
N812   N     0.16667   0.71598   0.50000   0.00000  Uiso   1.00
O813   O     0.10655   0.87291   0.50000   0.00000  Uiso   1.00
O814   O     0.05011   0.71356   0.50622   0.00000  Uiso   1.00
O815   O     0.27204   0.92069   0.42848   0.00000  Uiso   1.00
O816   O     0.28353   0.95184   0.50450   0.00000  Uiso   1.00
O817   O     0.29554   0.71701   0.52629   0.00000  Uiso   1.00
O818   O     0.27551   0.73597   0.44737   0.00000  Uiso   1.00
O819   O     0.05566   0.93941   0.52241   0.00000  Uiso   1.00
O820   O     0.03560   0.94530   0.44140   0.00000  Uiso   1.00
O821   O     0.12594   0.71309   0.42422   0.00000  Uiso   1.00
O822   O     0.20705   0.95357   0.57603   0.00000  Uiso   1.00
O823   O     0.20788   0.71155   0.57530   0.00000  Uiso   1.00
O824   O     0.22679   0.79375   0.50000   0.00000  Uiso   1.00
O825   O     0.12653   0.95507   0.42398   0.00000  Uiso   1.00
O826   O     0.22679   0.87291   0.50000   0.00000  Uiso   1.00
O827   O     0.10655   0.79375   0.50000   0.00000  Uiso   1.00
O828   O     0.16667   0.87292   0.42946   0.00000  Uiso   1.00
O829   O     0.16667   0.79375   0.57054   0.00000  Uiso   1.00
O830   O     0.16667   0.87292   0.57054   0.00000  Uiso   1.00
O831   O     0.16667   0.79375   0.42946   0.00000  Uiso   1.00
O832   O     0.05698   0.75496   0.57689   0.00000  Uiso   1.00
C833   C     0.42085   0.83386   0.50187   0.00000  Uiso   1.00
C834   C     0.35322   0.87591   0.49084   0.00000  Uiso   1.00
C835   C     0.62372   0.83248   0.49222   0.00000  Uiso   1.00
C836   C     0.37592   0.83503   0.50328   0.00000  Uiso   1.00
C837   C     0.48049   0.69148   0.46269   0.00000  Uiso   1.00
C838   C     0.51935   0.97519   0.53744   0.00000  Uiso   1.00
C839   C     0.51959   0.69072   0.53724   0.00000  Uiso   1.00
C840   C     0.48066   0.97595   0.46260   0.00000  Uiso   1.00
C841   C     0.37682   0.75295   0.53432   0.00000  Uiso   1.00
C842   C     0.62143   0.91703   0.46977   0.00000  Uiso   1.00
C843   C     0.62792   0.74558   0.49316   0.00000  Uiso   1.00
C844   C     0.57899   0.83298   0.49664   0.00000  Uiso   1.00
C845   C     0.37234   0.92164   0.48626   0.00000  Uiso   1.00
C846   C     0.49989   0.83336   0.40701   0.00000  Uiso   1.00
C847   C     0.50011   0.83331   0.59299   0.00000  Uiso   1.00
C848   C     0.49996   0.83336   0.35521   0.00000  Uiso   1.00
C849   C     0.50004   0.83330   0.64479   0.00000  Uiso   1.00
C850   C     0.35519   0.79358   0.51182   0.00000  Uiso   1.00
C851   C     0.64416   0.87424   0.48439   0.00000  Uiso   1.00
C852   C     0.64662   0.79129   0.50086   0.00000  Uiso   1.00
Cu853  Cu    0.50000   0.88022   0.50000   0.00000  Uiso   1.00
Cu854  Cu    0.50000   0.78645   0.50000   0.00000  Uiso   1.00
H855   H     0.40189   0.69034   0.52448   0.00000  Uiso   1.00
H856   H     0.59592   0.97583   0.49297   0.00000  Uiso   1.00
H857   H     0.59578   0.70464   0.44578   0.00000  Uiso   1.00
H858   H     0.38159   0.97693   0.44321   0.00000  Uiso   1.00
H859   H     0.44664   0.74129   0.43702   0.00000  Uiso   1.00
H860   H     0.55303   0.92532   0.56333   0.00000  Uiso   1.00
H861   H     0.55308   0.73971   0.56231   0.00000  Uiso   1.00
H862   H     0.44800   0.92678   0.43666   0.00000  Uiso   1.00
N863   N     0.50000   0.95069   0.50000   0.00000  Uiso   1.00
N864   N     0.50000   0.71598   0.50000   0.00000  Uiso   1.00
O865   O     0.43988   0.87291   0.50000   0.00000  Uiso   1.00
O866   O     0.38344   0.71356   0.50622   0.00000  Uiso   1.00
O867   O     0.60537   0.92069   0.42848   0.00000  Uiso   1.00
O868   O     0.61687   0.95184   0.50450   0.00000  Uiso   1.00
O869   O     0.62887   0.71701   0.52629   0.00000  Uiso   1.00
O870   O     0.60884   0.73597   0.44737   0.00000  Uiso   1.00
O871   O     0.38900   0.93941   0.52241   0.00000  Uiso   1.00
O872   O     0.36894   0.94530   0.44140   0.00000  Uiso   1.00
O873   O     0.45927   0.71309   0.42422   0.00000  Uiso   1.00
O874   O     0.54038   0.95357   0.57603   0.00000  Uiso   1.00
O875   O     0.54121   0.71155   0.57530   0.00000  Uiso   1.00
O876   O     0.56012   0.79375   0.50000   0.00000  Uiso   1.00
O877   O     0.45986   0.95507   0.42398   0.00000  Uiso   1.00
O878   O     0.56012   0.87291   0.50000   0.00000  Uiso   1.00
O879   O     0.43988   0.79375   0.50000   0.00000  Uiso   1.00
O880   O     0.50000   0.87292   0.42946   0.00000  Uiso   1.00
O881   O     0.50000   0.79375   0.57054   0.00000  Uiso   1.00
O882   O     0.50000   0.87292   0.57054   0.00000  Uiso   1.00
O883   O     0.50000   0.79375   0.42946   0.00000  Uiso   1.00
O884   O     0.39032   0.75496   0.57689   0.00000  Uiso   1.00
C885   C     0.75418   0.83386   0.50187   0.00000  Uiso   1.00
C886   C     0.68655   0.87591   0.49084   0.00000  Uiso   1.00
C887   C     0.95706   0.83248   0.49222   0.00000  Uiso   1.00
C888   C     0.70925   0.83503   0.50328   0.00000  Uiso   1.00
C889   C     0.81382   0.69148   0.46269   0.00000  Uiso   1.00
C890   C     0.85269   0.97519   0.53744   0.00000  Uiso   1.00
C891   C     0.85293   0.69072   0.53724   0.00000  Uiso   1.00
C892   C     0.81399   0.97595   0.46260   0.00000  Uiso   1.00
C893   C     0.71015   0.75295   0.53432   0.00000  Uiso   1.00
C894   C     0.95476   0.91703   0.46977   0.00000  Uiso   1.00
C895   C     0.96125   0.74558   0.49316   0.00000  Uiso   1.00
C896   C     0.91232   0.83298   0.49664   0.00000  Uiso   1.00
C897   C     0.70567   0.92164   0.48626   0.00000  Uiso   1.00
C898   C     0.83322   0.83336   0.40701   0.00000  Uiso   1.00
C899   C     0.83344   0.83331   0.59299   0.00000  Uiso   1.00
C900   C     0.83329   0.83336   0.35521   0.00000  Uiso   1.00
C901   C     0.83337   0.83330   0.64479   0.00000  Uiso   1.00
C902   C     0.68852   0.79358   0.51182   0.00000  Uiso   1.00
C903   C     0.97749   0.87424   0.48439   0.00000  Uiso   1.00
C904   C     0.97995   0.79129   0.50086   0.00000  Uiso   1.00
Cu905  Cu    0.83333   0.88022   0.50000   0.00000  Uiso   1.00
Cu906  Cu    0.83333   0.78645   0.50000   0.00000  Uiso   1.00
H907   H     0.73522   0.69034   0.52448   0.00000  Uiso   1.00
H908   H     0.92925   0.97583   0.49297   0.00000  Uiso   1.00
H909   H     0.92911   0.70464   0.44578   0.00000  Uiso   1.00
H910   H     0.71492   0.97693   0.44321   0.00000  Uiso   1.00
H911   H     0.77997   0.74129   0.43702   0.00000  Uiso   1.00
H912   H     0.88636   0.92532   0.56333   0.00000  Uiso   1.00
H913   H     0.88642   0.73971   0.56231   0.00000  Uiso   1.00
H914   H     0.78133   0.92678   0.43666   0.00000  Uiso   1.00
N915   N     0.83333   0.95069   0.50000   0.00000  Uiso   1.00
N916   N     0.83333   0.71598   0.50000   0.00000  Uiso   1.00
O917   O     0.77321   0.87291   0.50000   0.00000  Uiso   1.00
O918   O     0.71677   0.71356   0.50622   0.00000  Uiso   1.00
O919   O     0.93871   0.92069   0.42848   0.00000  Uiso   1.00
O920   O     0.95020   0.95184   0.50450   0.00000  Uiso   1.00
O921   O     0.96221   0.71701   0.52629   0.00000  Uiso   1.00
O922   O     0.94217   0.73597   0.44737   0.00000  Uiso   1.00
O923   O     0.72233   0.93941   0.52241   0.00000  Uiso   1.00
O924   O     0.70227   0.94530   0.44140   0.00000  Uiso   1.00
O925   O     0.79261   0.71309   0.42422   0.00000  Uiso   1.00
O926   O     0.87372   0.95357   0.57603   0.00000  Uiso   1.00
O927   O     0.87454   0.71155   0.57530   0.00000  Uiso   1.00
O928   O     0.89345   0.79375   0.50000   0.00000  Uiso   1.00
O929   O     0.79320   0.95507   0.42398   0.00000  Uiso   1.00
O930   O     0.89345   0.87291   0.50000   0.00000  Uiso   1.00
O931   O     0.77321   0.79375   0.50000   0.00000  Uiso   1.00
O932   O     0.83333   0.87292   0.42946   0.00000  Uiso   1.00
O933   O     0.83333   0.79375   0.57054   0.00000  Uiso   1.00
O934   O     0.83333   0.87292   0.57054   0.00000  Uiso   1.00
O935   O     0.83333   0.79375   0.42946   0.00000  Uiso   1.00
O936   O     0.72365   0.75496   0.57689   0.00000  Uiso   1.00
C937   C     0.08751   0.16719   0.83521   0.00000  Uiso   1.00
C938   C     0.01988   0.20924   0.82417   0.00000  Uiso   1.00
C939   C     0.29039   0.16581   0.82555   0.00000  Uiso   1.00
C940   C     0.04258   0.16837   0.83661   0.00000  Uiso   1.00
C941   C     0.14715   0.02482   0.79602   0.00000  Uiso   1.00
C942   C     0.18602   0.30852   0.87077   0.00000  Uiso   1.00
C943   C     0.18626   0.02406   0.87058   0.00000  Uiso   1.00
C944   C     0.14732   0.30928   0.79593   0.00000  Uiso   1.00
C945   C     0.04348   0.08628   0.86766   0.00000  Uiso   1.00
C946   C     0.28810   0.25036   0.80311   0.00000  Uiso   1.00
C947   C     0.29459   0.07891   0.82649   0.00000  Uiso   1.00
C948   C     0.24566   0.16631   0.82997   0.00000  Uiso   1.00
C949   C     0.03900   0.25497   0.81959   0.00000  Uiso   1.00
C950   C     0.16655   0.16669   0.74034   0.00000  Uiso   1.00
C951   C     0.16677   0.16664   0.92633   0.00000  Uiso   1.00
C952   C     0.16663   0.16669   0.68854   0.00000  Uiso   1.00
C953   C     0.16670   0.16664   0.97812   0.00000  Uiso   1.00
C954   C     0.02185   0.12691   0.84515   0.00000  Uiso   1.00
C955   C     0.31082   0.20758   0.81773   0.00000  Uiso   1.00
C956   C     0.31329   0.12463   0.83419   0.00000  Uiso   1.00
Cu957  Cu    0.16667   0.21355   0.83333   0.00000  Uiso   1.00
Cu958  Cu    0.16667   0.11978   0.83333   0.00000  Uiso   1.00
H959   H     0.06855   0.02368   0.85781   0.00000  Uiso   1.00
H960   H     0.26258   0.30917   0.82630   0.00000  Uiso   1.00
H961   H     0.26244   0.03797   0.77911   0.00000  Uiso   1.00
H962   H     0.04826   0.31026   0.77655   0.00000  Uiso   1.00
H963   H     0.11330   0.07463   0.77035   0.00000  Uiso   1.00
H964   H     0.21970   0.25865   0.89666   0.00000  Uiso   1.00
H965   H     0.21975   0.07304   0.89565   0.00000  Uiso   1.00
H966   H     0.11467   0.26011   0.76999   0.00000  Uiso   1.00
N967   N     0.16667   0.28402   0.83333   0.00000  Uiso   1.00
N968   N     0.16667   0.04931   0.83333   0.00000  Uiso   1.00
O969   O     0.10655   0.20625   0.83333   0.00000  Uiso   1.00
O970   O     0.05011   0.04689   0.83955   0.00000  Uiso   1.00
O971   O     0.27204   0.25403   0.76181   0.00000  Uiso   1.00
O972   O     0.28353   0.28517   0.83783   0.00000  Uiso   1.00
O973   O     0.29554   0.05034   0.85962   0.00000  Uiso   1.00
O974   O     0.27551   0.06930   0.78070   0.00000  Uiso   1.00
O975   O     0.05566   0.27275   0.85574   0.00000  Uiso   1.00
O976   O     0.03560   0.27863   0.77474   0.00000  Uiso   1.00
O977   O     0.12594   0.04642   0.75756   0.00000  Uiso   1.00
O978   O     0.20705   0.28690   0.90936   0.00000  Uiso   1.00
O979   O     0.20788   0.04488   0.90863   0.00000  Uiso   1.00
O980   O     0.22679   0.12709   0.83334   0.00000  Uiso   1.00
O981   O     0.12653   0.28840   0.75732   0.00000  Uiso   1.00
O982   O     0.22679   0.20625   0.83334   0.00000  Uiso   1.00
O983   O     0.10655   0.12709   0.83333   0.00000  Uiso   1.00
O984   O     0.16667   0.20625   0.76280   0.00000  Uiso   1.00
O985   O     0.16667   0.12708   0.90387   0.00000  Uiso   1.00
O986   O     0.16667   0.20625   0.90387   0.00000  Uiso   1.00
O987   O     0.16667   0.12708   0.76280   0.00000  Uiso   1.00
O988   O     0.05698   0.08829   0.91022   0.00000  Uiso   1.00
C989   C     0.42085   0.16719   0.83521   0.00000  Uiso   1.00
C990   C     0.35322   0.20924   0.82417   0.00000  Uiso   1.00
C991   C     0.62372   0.16581   0.82555   0.00000  Uiso   1.00
C992   C     0.37592   0.16837   0.83661   0.00000  Uiso   1.00
C993   C     0.48049   0.02482   0.79602   0.00000  Uiso   1.00
C994   C     0.51935   0.30852   0.87077   0.00000  Uiso   1.00
C995   C     0.51959   0.02406   0.87058   0.00000  Uiso   1.00
C996   C     0.48066   0.30928   0.79593   0.00000  Uiso   1.00
C997   C     0.37682   0.08628   0.86766   0.00000  Uiso   1.00
C998   C     0.62143   0.25036   0.80311   0.00000  Uiso   1.00
C999   C     0.62792   0.07891   0.82649   0.00000  Uiso   1.00
C1000  C     0.57899   0.16631   0.82997   0.00000  Uiso   1.00
C1001  C     0.37234   0.25497   0.81959   0.00000  Uiso   1.00
C1002  C     0.49989   0.16669   0.74034   0.00000  Uiso   1.00
C1003  C     0.50011   0.16664   0.92633   0.00000  Uiso   1.00
C1004  C     0.49996   0.16669   0.68854   0.00000  Uiso   1.00
C1005  C     0.50004   0.16664   0.97812   0.00000  Uiso   1.00
C1006  C     0.35519   0.12691   0.84515   0.00000  Uiso   1.00
C1007  C     0.64416   0.20758   0.81773   0.00000  Uiso   1.00
C1008  C     0.64662   0.12463   0.83419   0.00000  Uiso   1.00
Cu1009 Cu    0.50000   0.21355   0.83333   0.00000  Uiso   1.00
Cu1010 Cu    0.50000   0.11978   0.83333   0.00000  Uiso   1.00
H1011  H     0.40189   0.02368   0.85781   0.00000  Uiso   1.00
H1012  H     0.59592   0.30917   0.82630   0.00000  Uiso   1.00
H1013  H     0.59578   0.03797   0.77911   0.00000  Uiso   1.00
H1014  H     0.38159   0.31026   0.77655   0.00000  Uiso   1.00
H1015  H     0.44664   0.07463   0.77035   0.00000  Uiso   1.00
H1016  H     0.55303   0.25865   0.89666   0.00000  Uiso   1.00
H1017  H     0.55308   0.07304   0.89565   0.00000  Uiso   1.00
H1018  H     0.44800   0.26011   0.76999   0.00000  Uiso   1.00
N1019  N     0.50000   0.28402   0.83333   0.00000  Uiso   1.00
N1020  N     0.50000   0.04931   0.83333   0.00000  Uiso   1.00
O1021  O     0.43988   0.20625   0.83333   0.00000  Uiso   1.00
O1022  O     0.38344   0.04689   0.83955   0.00000  Uiso   1.00
O1023  O     0.60537   0.25403   0.76181   0.00000  Uiso   1.00
O1024  O     0.61687   0.28517   0.83783   0.00000  Uiso   1.00
O1025  O     0.62887   0.05034   0.85962   0.00000  Uiso   1.00
O1026  O     0.60884   0.06930   0.78070   0.00000  Uiso   1.00
O1027  O     0.38900   0.27275   0.85574   0.00000  Uiso   1.00
O1028  O     0.36894   0.27863   0.77474   0.00000  Uiso   1.00
O1029  O     0.45927   0.04642   0.75756   0.00000  Uiso   1.00
O1030  O     0.54038   0.28690   0.90936   0.00000  Uiso   1.00
O1031  O     0.54121   0.04488   0.90863   0.00000  Uiso   1.00
O1032  O     0.56012   0.12709   0.83334   0.00000  Uiso   1.00
O1033  O     0.45986   0.28840   0.75732   0.00000  Uiso   1.00
O1034  O     0.56012   0.20625   0.83334   0.00000  Uiso   1.00
O1035  O     0.43988   0.12709   0.83333   0.00000  Uiso   1.00
O1036  O     0.50000   0.20625   0.76280   0.00000  Uiso   1.00
O1037  O     0.50000   0.12708   0.90387   0.00000  Uiso   1.00
O1038  O     0.50000   0.20625   0.90387   0.00000  Uiso   1.00
O1039  O     0.50000   0.12708   0.76280   0.00000  Uiso   1.00
O1040  O     0.39032   0.08829   0.91022   0.00000  Uiso   1.00
C1041  C     0.75418   0.16719   0.83521   0.00000  Uiso   1.00
C1042  C     0.68655   0.20924   0.82417   0.00000  Uiso   1.00
C1043  C     0.95706   0.16581   0.82555   0.00000  Uiso   1.00
C1044  C     0.70925   0.16837   0.83661   0.00000  Uiso   1.00
C1045  C     0.81382   0.02482   0.79602   0.00000  Uiso   1.00
C1046  C     0.85269   0.30852   0.87077   0.00000  Uiso   1.00
C1047  C     0.85293   0.02406   0.87058   0.00000  Uiso   1.00
C1048  C     0.81399   0.30928   0.79593   0.00000  Uiso   1.00
C1049  C     0.71015   0.08628   0.86766   0.00000  Uiso   1.00
C1050  C     0.95476   0.25036   0.80311   0.00000  Uiso   1.00
C1051  C     0.96125   0.07891   0.82649   0.00000  Uiso   1.00
C1052  C     0.91232   0.16631   0.82997   0.00000  Uiso   1.00
C1053  C     0.70567   0.25497   0.81959   0.00000  Uiso   1.00
C1054  C     0.83322   0.16669   0.74034   0.00000  Uiso   1.00
C1055  C     0.83344   0.16664   0.92633   0.00000  Uiso   1.00
C1056  C     0.83329   0.16669   0.68854   0.00000  Uiso   1.00
C1057  C     0.83337   0.16664   0.97812   0.00000  Uiso   1.00
C1058  C     0.68852   0.12691   0.84515   0.00000  Uiso   1.00
C1059  C     0.97749   0.20758   0.81773   0.00000  Uiso   1.00
C1060  C     0.97995   0.12463   0.83419   0.00000  Uiso   1.00
Cu1061 Cu    0.83333   0.21355   0.83333   0.00000  Uiso   1.00
Cu1062 Cu    0.83333   0.11978   0.83333   0.00000  Uiso   1.00
H1063  H     0.73522   0.02368   0.85781   0.00000  Uiso   1.00
H1064  H     0.92925   0.30917   0.82630   0.00000  Uiso   1.00
H1065  H     0.92911   0.03797   0.77911   0.00000  Uiso   1.00
H1066  H     0.71492   0.31026   0.77655   0.00000  Uiso   1.00
H1067  H     0.77997   0.07463   0.77035   0.00000  Uiso   1.00
H1068  H     0.88636   0.25865   0.89666   0.00000  Uiso   1.00
H1069  H     0.88642   0.07304   0.89565   0.00000  Uiso   1.00
H1070  H     0.78133   0.26011   0.76999   0.00000  Uiso   1.00
N1071  N     0.83333   0.28402   0.83333   0.00000  Uiso   1.00
N1072  N     0.83333   0.04931   0.83333   0.00000  Uiso   1.00
O1073  O     0.77321   0.20625   0.83333   0.00000  Uiso   1.00
O1074  O     0.71677   0.04689   0.83955   0.00000  Uiso   1.00
O1075  O     0.93871   0.25403   0.76181   0.00000  Uiso   1.00
O1076  O     0.95020   0.28517   0.83783   0.00000  Uiso   1.00
O1077  O     0.96221   0.05034   0.85962   0.00000  Uiso   1.00
O1078  O     0.94217   0.06930   0.78070   0.00000  Uiso   1.00
O1079  O     0.72233   0.27275   0.85574   0.00000  Uiso   1.00
O1080  O     0.70227   0.27863   0.77474   0.00000  Uiso   1.00
O1081  O     0.79261   0.04642   0.75756   0.00000  Uiso   1.00
O1082  O     0.87372   0.28690   0.90936   0.00000  Uiso   1.00
O1083  O     0.87454   0.04488   0.90863   0.00000  Uiso   1.00
O1084  O     0.89345   0.12709   0.83334   0.00000  Uiso   1.00
O1085  O     0.79320   0.28840   0.75732   0.00000  Uiso   1.00
O1086  O     0.89345   0.20625   0.83334   0.00000  Uiso   1.00
O1087  O     0.77321   0.12709   0.83333   0.00000  Uiso   1.00
O1088  O     0.83333   0.20625   0.76280   0.00000  Uiso   1.00
O1089  O     0.83333   0.12708   0.90387   0.00000  Uiso   1.00
O1090  O     0.83333   0.20625   0.90387   0.00000  Uiso   1.00
O1091  O     0.83333   0.12708   0.76280   0.00000  Uiso   1.00
O1092  O     0.72365   0.08829   0.91022   0.00000  Uiso   1.00
C1093  C     0.08751   0.50053   0.83521   0.00000  Uiso   1.00
C1094  C     0.01988   0.54258   0.82417   0.00000  Uiso   1.00
C1095  C     0.29039   0.49914   0.82555   0.00000  Uiso   1.00
C1096  C     0.04258   0.50170   0.83661   0.00000  Uiso   1.00
C1097  C     0.14715   0.35815   0.79602   0.00000  Uiso   1.00
C1098  C     0.18602   0.64185   0.87077   0.00000  Uiso   1.00
C1099  C     0.18626   0.35739   0.87058   0.00000  Uiso   1.00
C1100  C     0.14732   0.64261   0.79593   0.00000  Uiso   1.00
C1101  C     0.04348   0.41961   0.86766   0.00000  Uiso   1.00
C1102  C     0.28810   0.58370   0.80311   0.00000  Uiso   1.00
C1103  C     0.29459   0.41224   0.82649   0.00000  Uiso   1.00
C1104  C     0.24566   0.49964   0.82997   0.00000  Uiso   1.00
C1105  C     0.03900   0.58831   0.81959   0.00000  Uiso   1.00
C1106  C     0.16655   0.50002   0.74034   0.00000  Uiso   1.00
C1107  C     0.16677   0.49998   0.92633   0.00000  Uiso   1.00
C1108  C     0.16663   0.50003   0.68854   0.00000  Uiso   1.00
C1109  C     0.16670   0.49997   0.97812   0.00000  Uiso   1.00
C1110  C     0.02185   0.46024   0.84515   0.00000  Uiso   1.00
C1111  C     0.31082   0.54091   0.81773   0.00000  Uiso   1.00
C1112  C     0.31329   0.45796   0.83419   0.00000  Uiso   1.00
Cu1113 Cu    0.16667   0.54689   0.83333   0.00000  Uiso   1.00
Cu1114 Cu    0.16667   0.45311   0.83333   0.00000  Uiso   1.00
H1115  H     0.06855   0.35701   0.85781   0.00000  Uiso   1.00
H1116  H     0.26258   0.64250   0.82630   0.00000  Uiso   1.00
H1117  H     0.26244   0.37130   0.77911   0.00000  Uiso   1.00
H1118  H     0.04826   0.64359   0.77655   0.00000  Uiso   1.00
H1119  H     0.11330   0.40796   0.77035   0.00000  Uiso   1.00
H1120  H     0.21970   0.59199   0.89666   0.00000  Uiso   1.00
H1121  H     0.21975   0.40638   0.89565   0.00000  Uiso   1.00
H1122  H     0.11467   0.59344   0.76999   0.00000  Uiso   1.00
N1123  N     0.16667   0.61736   0.83333   0.00000  Uiso   1.00
N1124  N     0.16667   0.38264   0.83333   0.00000  Uiso   1.00
O1125  O     0.10655   0.53958   0.83333   0.00000  Uiso   1.00
O1126  O     0.05011   0.38023   0.83955   0.00000  Uiso   1.00
O1127  O     0.27204   0.58736   0.76181   0.00000  Uiso   1.00
O1128  O     0.28353   0.61850   0.83783   0.00000  Uiso   1.00
O1129  O     0.29554   0.38367   0.85962   0.00000  Uiso   1.00
O1130  O     0.27551   0.40263   0.78070   0.00000  Uiso   1.00
O1131  O     0.05566   0.60608   0.85574   0.00000  Uiso   1.00
O1132  O     0.03560   0.61197   0.77474   0.00000  Uiso   1.00
O1133  O     0.12594   0.37975   0.75756   0.00000  Uiso   1.00
O1134  O     0.20705   0.62023   0.90936   0.00000  Uiso   1.00
O1135  O     0.20788   0.37822   0.90863   0.00000  Uiso   1.00
O1136  O     0.22679   0.46042   0.83334   0.00000  Uiso   1.00
O1137  O     0.12653   0.62173   0.75732   0.00000  Uiso   1.00
O1138  O     0.22679   0.53958   0.83334   0.00000  Uiso   1.00
O1139  O     0.10655   0.46042   0.83333   0.00000  Uiso   1.00
O1140  O     0.16667   0.53959   0.76280   0.00000  Uiso   1.00
O1141  O     0.16667   0.46041   0.90387   0.00000  Uiso   1.00
O1142  O     0.16667   0.53959   0.90387   0.00000  Uiso   1.00
O1143  O     0.16667   0.46041   0.76280   0.00000  Uiso   1.00
O1144  O     0.05698   0.42162   0.91022   0.00000  Uiso   1.00
C1145  C     0.42085   0.50053   0.83521   0.00000  Uiso   1.00
C1146  C     0.35322   0.54258   0.82417   0.00000  Uiso   1.00
C1147  C     0.62372   0.49914   0.82555   0.00000  Uiso   1.00
C1148  C     0.37592   0.50170   0.83661   0.00000  Uiso   1.00
C1149  C     0.48049   0.35815   0.79602   0.00000  Uiso   1.00
C1150  C     0.51935   0.64185   0.87077   0.00000  Uiso   1.00
C1151  C     0.51959   0.35739   0.87058   0.00000  Uiso   1.00
C1152  C     0.48066   0.64261   0.79593   0.00000  Uiso   1.00
C1153  C     0.37682   0.41961   0.86766   0.00000  Uiso   1.00
C1154  C     0.62143   0.58370   0.80311   0.00000  Uiso   1.00
C1155  C     0.62792   0.41224   0.82649   0.00000  Uiso   1.00
C1156  C     0.57899   0.49964   0.82997   0.00000  Uiso   1.00
C1157  C     0.37234   0.58831   0.81959   0.00000  Uiso   1.00
C1158  C     0.49989   0.50002   0.74034   0.00000  Uiso   1.00
C1159  C     0.50011   0.49998   0.92633   0.00000  Uiso   1.00
C1160  C     0.49996   0.50003   0.68854   0.00000  Uiso   1.00
C1161  C     0.50004   0.49997   0.97812   0.00000  Uiso   1.00
C1162  C     0.35519   0.46024   0.84515   0.00000  Uiso   1.00
C1163  C     0.64416   0.54091   0.81773   0.00000  Uiso   1.00
C1164  C     0.64662   0.45796   0.83419   0.00000  Uiso   1.00
Cu1165 Cu    0.50000   0.54689   0.83333   0.00000  Uiso   1.00
Cu1166 Cu    0.50000   0.45311   0.83333   0.00000  Uiso   1.00
H1167  H     0.40189   0.35701   0.85781   0.00000  Uiso   1.00
H1168  H     0.59592   0.64250   0.82630   0.00000  Uiso   1.00
H1169  H     0.59578   0.37130   0.77911   0.00000  Uiso   1.00
H1170  H     0.38159   0.64359   0.77655   0.00000  Uiso   1.00
H1171  H     0.44664   0.40796   0.77035   0.00000  Uiso   1.00
H1172  H     0.55303   0.59199   0.89666   0.00000  Uiso   1.00
H1173  H     0.55308   0.40638   0.89565   0.00000  Uiso   1.00
H1174  H     0.44800   0.59344   0.76999   0.00000  Uiso   1.00
N1175  N     0.50000   0.61736   0.83333   0.00000  Uiso   1.00
N1176  N     0.50000   0.38264   0.83333   0.00000  Uiso   1.00
O1177  O     0.43988   0.53958   0.83333   0.00000  Uiso   1.00
O1178  O     0.38344   0.38023   0.83955   0.00000  Uiso   1.00
O1179  O     0.60537   0.58736   0.76181   0.00000  Uiso   1.00
O1180  O     0.61687   0.61850   0.83783   0.00000  Uiso   1.00
O1181  O     0.62887   0.38367   0.85962   0.00000  Uiso   1.00
O1182  O     0.60884   0.40263   0.78070   0.00000  Uiso   1.00
O1183  O     0.38900   0.60608   0.85574   0.00000  Uiso   1.00
O1184  O     0.36894   0.61197   0.77474   0.00000  Uiso   1.00
O1185  O     0.45927   0.37975   0.75756   0.00000  Uiso   1.00
O1186  O     0.54038   0.62023   0.90936   0.00000  Uiso   1.00
O1187  O     0.54121   0.37822   0.90863   0.00000  Uiso   1.00
O1188  O     0.56012   0.46042   0.83334   0.00000  Uiso   1.00
O1189  O     0.45986   0.62173   0.75732   0.00000  Uiso   1.00
O1190  O     0.56012   0.53958   0.83334   0.00000  Uiso   1.00
O1191  O     0.43988   0.46042   0.83333   0.00000  Uiso   1.00
O1192  O     0.50000   0.53959   0.76280   0.00000  Uiso   1.00
O1193  O     0.50000   0.46041   0.90387   0.00000  Uiso   1.00
O1194  O     0.50000   0.53959   0.90387   0.00000  Uiso   1.00
O1195  O     0.50000   0.46041   0.76280   0.00000  Uiso   1.00
O1196  O     0.39032   0.42162   0.91022   0.00000  Uiso   1.00
C1197  C     0.75418   0.50053   0.83521   0.00000  Uiso   1.00
C1198  C     0.68655   0.54258   0.82417   0.00000  Uiso   1.00
C1199  C     0.95706   0.49914   0.82555   0.00000  Uiso   1.00
C1200  C     0.70925   0.50170   0.83661   0.00000  Uiso   1.00
C1201  C     0.81382   0.35815   0.79602   0.00000  Uiso   1.00
C1202  C     0.85269   0.64185   0.87077   0.00000  Uiso   1.00
C1203  C     0.85293   0.35739   0.87058   0.00000  Uiso   1.00
C1204  C     0.81399   0.64261   0.79593   0.00000  Uiso   1.00
C1205  C     0.71015   0.41961   0.86766   0.00000  Uiso   1.00
C1206  C     0.95476   0.58370   0.80311   0.00000  Uiso   1.00
C1207  C     0.96125   0.41224   0.82649   0.00000  Uiso   1.00
C1208  C     0.91232   0.49964   0.82997   0.00000  Uiso   1.00
C1209  C     0.70567   0.58831   0.81959   0.00000  Uiso   1.00
C1210  C     0.83322   0.50002   0.74034   0.00000  Uiso   1.00
C1211  C     0.83344   0.49998   0.92633   0.00000  Uiso   1.00
C1212  C     0.83329   0.50003   0.68854   0.00000  Uiso   1.00
C1213  C     0.83337   0.49997   0.97812   0.00000  Uiso   1.00
C1214  C     0.68852   0.46024   0.84515   0.00000  Uiso   1.00
C1215  C     0.97749   0.54091   0.81773   0.00000  Uiso   1.00
C1216  C     0.97995   0.45796   0.83419   0.00000  Uiso   1.00
Cu1217 Cu    0.83333   0.54689   0.83333   0.00000  Uiso   1.00
Cu1218 Cu    0.83333   0.45311   0.83333   0.00000  Uiso   1.00
H1219  H     0.73522   0.35701   0.85781   0.00000  Uiso   1.00
H1220  H     0.92925   0.64250   0.82630   0.00000  Uiso   1.00
H1221  H     0.92911   0.37130   0.77911   0.00000  Uiso   1.00
H1222  H     0.71492   0.64359   0.77655   0.00000  Uiso   1.00
H1223  H     0.77997   0.40796   0.77035   0.00000  Uiso   1.00
H1224  H     0.88636   0.59199   0.89666   0.00000  Uiso   1.00
H1225  H     0.88642   0.40638   0.89565   0.00000  Uiso   1.00
H1226  H     0.78133   0.59344   0.76999   0.00000  Uiso   1.00
N1227  N     0.83333   0.61736   0.83333   0.00000  Uiso   1.00
N1228  N     0.83333   0.38264   0.83333   0.00000  Uiso   1.00
O1229  O     0.77321   0.53958   0.83333   0.00000  Uiso   1.00
O1230  O     0.71677   0.38023   0.83955   0.00000  Uiso   1.00
O1231  O     0.93871   0.58736   0.76181   0.00000  Uiso   1.00
O1232  O     0.95020   0.61850   0.83783   0.00000  Uiso   1.00
O1233  O     0.96221   0.38367   0.85962   0.00000  Uiso   1.00
O1234  O     0.94217   0.40263   0.78070   0.00000  Uiso   1.00
O1235  O     0.72233   0.60608   0.85574   0.00000  Uiso   1.00
O1236  O     0.70227   0.61197   0.77474   0.00000  Uiso   1.00
O1237  O     0.79261   0.37975   0.75756   0.00000  Uiso   1.00
O1238  O     0.87372   0.62023   0.90936   0.00000  Uiso   1.00
O1239  O     0.87454   0.37822   0.90863   0.00000  Uiso   1.00
O1240  O     0.89345   0.46042   0.83334   0.00000  Uiso   1.00
O1241  O     0.79320   0.62173   0.75732   0.00000  Uiso   1.00
O1242  O     0.89345   0.53958   0.83334   0.00000  Uiso   1.00
O1243  O     0.77321   0.46042   0.83333   0.00000  Uiso   1.00
O1244  O     0.83333   0.53959   0.76280   0.00000  Uiso   1.00
O1245  O     0.83333   0.46041   0.90387   0.00000  Uiso   1.00
O1246  O     0.83333   0.53959   0.90387   0.00000  Uiso   1.00
O1247  O     0.83333   0.46041   0.76280   0.00000  Uiso   1.00
O1248  O     0.72365   0.42162   0.91022   0.00000  Uiso   1.00
C1249  C     0.08751   0.83386   0.83521   0.00000  Uiso   1.00
C1250  C     0.01988   0.87591   0.82417   0.00000  Uiso   1.00
C1251  C     0.29039   0.83248   0.82555   0.00000  Uiso   1.00
C1252  C     0.04258   0.83503   0.83661   0.00000  Uiso   1.00
C1253  C     0.14715   0.69148   0.79602   0.00000  Uiso   1.00
C1254  C     0.18602   0.97519   0.87077   0.00000  Uiso   1.00
C1255  C     0.18626   0.69072   0.87058   0.00000  Uiso   1.00
C1256  C     0.14732   0.97595   0.79593   0.00000  Uiso   1.00
C1257  C     0.04348   0.75295   0.86766   0.00000  Uiso   1.00
C1258  C     0.28810   0.91703   0.80311   0.00000  Uiso   1.00
C1259  C     0.29459   0.74558   0.82649   0.00000  Uiso   1.00
C1260  C     0.24566   0.83298   0.82997   0.00000  Uiso   1.00
C1261  C     0.03900   0.92164   0.81959   0.00000  Uiso   1.00
C1262  C     0.16655   0.83336   0.74034   0.00000  Uiso   1.00
C1263  C     0.16677   0.83331   0.92633   0.00000  Uiso   1.00
C1264  C     0.16663   0.83336   0.68854   0.00000  Uiso   1.00
C1265  C     0.16670   0.83330   0.97812   0.00000  Uiso   1.00
C1266  C     0.02185   0.79358   0.84515   0.00000  Uiso   1.00
C1267  C     0.31082   0.87424   0.81773   0.00000  Uiso   1.00
C1268  C     0.31329   0.79129   0.83419   0.00000  Uiso   1.00
Cu1269 Cu    0.16667   0.88022   0.83333   0.00000  Uiso   1.00
Cu1270 Cu    0.16667   0.78645   0.83333   0.00000  Uiso   1.00
H1271  H     0.06855   0.69034   0.85781   0.00000  Uiso   1.00
H1272  H     0.26258   0.97583   0.82630   0.00000  Uiso   1.00
H1273  H     0.26244   0.70464   0.77911   0.00000  Uiso   1.00
H1274  H     0.04826   0.97693   0.77655   0.00000  Uiso   1.00
H1275  H     0.11330   0.74129   0.77035   0.00000  Uiso   1.00
H1276  H     0.21970   0.92532   0.89666   0.00000  Uiso   1.00
H1277  H     0.21975   0.73971   0.89565   0.00000  Uiso   1.00
H1278  H     0.11467   0.92678   0.76999   0.00000  Uiso   1.00
N1279  N     0.16667   0.95069   0.83333   0.00000  Uiso   1.00
N1280  N     0.16667   0.71598   0.83333   0.00000  Uiso   1.00
O1281  O     0.10655   0.87291   0.83333   0.00000  Uiso   1.00
O1282  O     0.05011   0.71356   0.83955   0.00000  Uiso   1.00
O1283  O     0.27204   0.92069   0.76181   0.00000  Uiso   1.00
O1284  O     0.28353   0.95184   0.83783   0.00000  Uiso   1.00
O1285  O     0.29554   0.71701   0.85962   0.00000  Uiso   1.00
O1286  O     0.27551   0.73597   0.78070   0.00000  Uiso   1.00
O1287  O     0.05566   0.93941   0.85574   0.00000  Uiso   1.00
O1288  O     0.03560   0.94530   0.77474   0.00000  Uiso   1.00
O1289  O     0.12594   0.71309   0.75756   0.00000  Uiso   1.00
O1290  O     0.20705   0.95357   0.90936   0.00000  Uiso   1.00
O1291  O     0.20788   0.71155   0.90863   0.00000  Uiso   1.00
O1292  O     0.22679   0.79375   0.83334   0.00000  Uiso   1.00
O1293  O     0.12653   0.95507   0.75732   0.00000  Uiso   1.00
O1294  O     0.22679   0.87291   0.83334   0.00000  Uiso   1.00
O1295  O     0.10655   0.79375   0.83333   0.00000  Uiso   1.00
O1296  O     0.16667   0.87292   0.76280   0.00000  Uiso   1.00
O1297  O     0.16667   0.79375   0.90387   0.00000  Uiso   1.00
O1298  O     0.16667   0.87292   0.90387   0.00000  Uiso   1.00
O1299  O     0.16667   0.79375   0.76280   0.00000  Uiso   1.00
O1300  O     0.05698   0.75496   0.91022   0.00000  Uiso   1.00
C1301  C     0.42085   0.83386   0.83521   0.00000  Uiso   1.00
C1302  C     0.35322   0.87591   0.82417   0.00000  Uiso   1.00
C1303  C     0.62372   0.83248   0.82555   0.00000  Uiso   1.00
C1304  C     0.37592   0.83503   0.83661   0.00000  Uiso   1.00
C1305  C     0.48049   0.69148   0.79602   0.00000  Uiso   1.00
C1306  C     0.51935   0.97519   0.87077   0.00000  Uiso   1.00
C1307  C     0.51959   0.69072   0.87058   0.00000  Uiso   1.00
C1308  C     0.48066   0.97595   0.79593   0.00000  Uiso   1.00
C1309  C     0.37682   0.75295   0.86766   0.00000  Uiso   1.00
C1310  C     0.62143   0.91703   0.80311   0.00000  Uiso   1.00
C1311  C     0.62792   0.74558   0.82649   0.00000  Uiso   1.00
C1312  C     0.57899   0.83298   0.82997   0.00000  Uiso   1.00
C1313  C     0.37234   0.92164   0.81959   0.00000  Uiso   1.00
C1314  C     0.49989   0.83336   0.74034   0.00000  Uiso   1.00
C1315  C     0.50011   0.83331   0.92633   0.00000  Uiso   1.00
C1316  C     0.49996   0.83336   0.68854   0.00000  Uiso   1.00
C1317  C     0.50004   0.83330   0.97812   0.00000  Uiso   1.00
C1318  C     0.35519   0.79358   0.84515   0.00000  Uiso   1.00
C1319  C     0.64416   0.87424   0.81773   0.00000  Uiso   1.00
C1320  C     0.64662   0.79129   0.83419   0.00000  Uiso   1.00
Cu1321 Cu    0.50000   0.88022   0.83333   0.00000  Uiso   1.00
Cu1322 Cu    0.50000   0.78645   0.83333   0.00000  Uiso   1.00
H1323  H     0.40189   0.69034   0.85781   0.00000  Uiso   1.00
H1324  H     0.59592   0.97583   0.82630   0.00000  Uiso   1.00
H1325  H     0.59578   0.70464   0.77911   0.00000  Uiso   1.00
H1326  H     0.38159   0.97693   0.77655   0.00000  Uiso   1.00
H1327  H     0.44664   0.74129   0.77035   0.00000  Uiso   1.00
H1328  H     0.55303   0.92532   0.89666   0.00000  Uiso   1.00
H1329  H     0.55308   0.73971   0.89565   0.00000  Uiso   1.00
H1330  H     0.44800   0.92678   0.76999   0.00000  Uiso   1.00
N1331  N     0.50000   0.95069   0.83333   0.00000  Uiso   1.00
N1332  N     0.50000   0.71598   0.83333   0.00000  Uiso   1.00
O1333  O     0.43988   0.87291   0.83333   0.00000  Uiso   1.00
O1334  O     0.38344   0.71356   0.83955   0.00000  Uiso   1.00
O1335  O     0.60537   0.92069   0.76181   0.00000  Uiso   1.00
O1336  O     0.61687   0.95184   0.83783   0.00000  Uiso   1.00
O1337  O     0.62887   0.71701   0.85962   0.00000  Uiso   1.00
O1338  O     0.60884   0.73597   0.78070   0.00000  Uiso   1.00
O1339  O     0.38900   0.93941   0.85574   0.00000  Uiso   1.00
O1340  O     0.36894   0.94530   0.77474   0.00000  Uiso   1.00
O1341  O     0.45927   0.71309   0.75756   0.00000  Uiso   1.00
O1342  O     0.54038   0.95357   0.90936   0.00000  Uiso   1.00
O1343  O     0.54121   0.71155   0.90863   0.00000  Uiso   1.00
O1344  O     0.56012   0.79375   0.83334   0.00000  Uiso   1.00
O1345  O     0.45986   0.95507   0.75732   0.00000  Uiso   1.00
O1346  O     0.56012   0.87291   0.83334   0.00000  Uiso   1.00
O1347  O     0.43988   0.79375   0.83333   0.00000  Uiso   1.00
O1348  O     0.50000   0.87292   0.76280   0.00000  Uiso   1.00
O1349  O     0.50000   0.79375   0.90387   0.00000  Uiso   1.00
O1350  O     0.50000   0.87292   0.90387   0.00000  Uiso   1.00
O1351  O     0.50000   0.79375   0.76280   0.00000  Uiso   1.00
O1352  O     0.39032   0.75496   0.91022   0.00000  Uiso   1.00
C1353  C     0.75418   0.83386   0.83521   0.00000  Uiso   1.00
C1354  C     0.68655   0.87591   0.82417   0.00000  Uiso   1.00
C1355  C     0.95706   0.83248   0.82555   0.00000  Uiso   1.00
C1356  C     0.70925   0.83503   0.83661   0.00000  Uiso   1.00
C1357  C     0.81382   0.69148   0.79602   0.00000  Uiso   1.00
C1358  C     0.85269   0.97519   0.87077   0.00000  Uiso   1.00
C1359  C     0.85293   0.69072   0.87058   0.00000  Uiso   1.00
C1360  C     0.81399   0.97595   0.79593   0.00000  Uiso   1.00
C1361  C     0.71015   0.75295   0.86766   0.00000  Uiso   1.00
C1362  C     0.95476   0.91703   0.80311   0.00000  Uiso   1.00
C1363  C     0.96125   0.74558   0.82649   0.00000  Uiso   1.00
C1364  C     0.91232   0.83298   0.82997   0.00000  Uiso   1.00
C1365  C     0.70567   0.92164   0.81959   0.00000  Uiso   1.00
C1366  C     0.83322   0.83336   0.74034   0.00000  Uiso   1.00
C1367  C     0.83344   0.83331   0.92633   0.00000  Uiso   1.00
C1368  C     0.83329   0.83336   0.68854   0.00000  Uiso   1.00
C1369  C     0.83337   0.83330   0.97812   0.00000  Uiso   1.00
C1370  C     0.68852   0.79358   0.84515   0.00000  Uiso   1.00
C1371  C     0.97749   0.87424   0.81773   0.00000  Uiso   1.00
C1372  C     0.97995   0.79129   0.83419   0.00000  Uiso   1.00
Cu1373 Cu    0.83333   0.88022   0.83333   0.00000  Uiso   1.00
Cu1374 Cu    0.83333   0.78645   0.83333   0.00000  Uiso   1.00
H1375  H     0.73522   0.69034   0.85781   0.00000  Uiso   1.00
H1376  H     0.92925   0.97583   0.82630   0.00000  Uiso   1.00
H1377  H     0.92911   0.70464   0.77911   0.00000  Uiso   1.00
H1378  H     0.71492   0.97693   0.77655   0.00000  Uiso   1.00
H1379  H     0.77997   0.74129   0.77035   0.00000  Uiso   1.00
H1380  H     0.88636   0.92532   0.89666   0.00000  Uiso   1.00
H1381  H     0.88642   0.73971   0.89565   0.00000  Uiso   1.00
H1382  H     0.78133   0.92678   0.76999   0.00000  Uiso   1.00
N1383  N     0.83333   0.95069   0.83333   0.00000  Uiso   1.00
N1384  N     0.83333   0.71598   0.83333   0.00000  Uiso   1.00
O1385  O     0.77321   0.87291   0.83333   0.00000  Uiso   1.00
O1386  O     0.71677   0.71356   0.83955   0.00000  Uiso   1.00
O1387  O     0.93871   0.92069   0.76181   0.00000  Uiso   1.00
O1388  O     0.95020   0.95184   0.83783   0.00000  Uiso   1.00
O1389  O     0.96221   0.71701   0.85962   0.00000  Uiso   1.00
O1390  O     0.94217   0.73597   0.78070   0.00000  Uiso   1.00
O1391  O     0.72233   0.93941   0.85574   0.00000  Uiso   1.00
O1392  O     0.70227   0.94530   0.77474   0.00000  Uiso   1.00
O1393  O     0.79261   0.71309   0.75756   0.00000  Uiso   1.00
O1394  O     0.87372   0.95357   0.90936   0.00000  Uiso   1.00
O1395  O     0.87454   0.71155   0.90863   0.00000  Uiso   1.00
O1396  O     0.89345   0.79375   0.83334   0.00000  Uiso   1.00
O1397  O     0.79320   0.95507   0.75732   0.00000  Uiso   1.00
O1398  O     0.89345   0.87291   0.83334   0.00000  Uiso   1.00
O1399  O     0.77321   0.79375   0.83333   0.00000  Uiso   1.00
O1400  O     0.83333   0.87292   0.76280   0.00000  Uiso   1.00
O1401  O     0.83333   0.79375   0.90387   0.00000  Uiso   1.00
O1402  O     0.83333   0.87292   0.90387   0.00000  Uiso   1.00
O1403  O     0.83333   0.79375   0.76280   0.00000  Uiso   1.00
O1404  O     0.72365   0.75496   0.91022   0.00000  Uiso   1.00
loop_
_geom_bond_atom_site_label_1
_geom_bond_atom_site_label_2
_geom_bond_distance
_geom_bond_site_symmetry_2
_ccdc_geom_bond_type
C1     C4      1.480   .     S
C1     O33     1.304   .     A
C1     O47     1.313   .     A
C2     C4      1.421   .     A
C2     C13     1.483   .     S
C2     C123    1.399   1_455 S
C3     C19     1.414   .     A
C3     C20     1.414   .     A
C3     C12     1.482   .     S
C4     C18     1.415   .     A
C5     O41     1.375   .     S
C5     N32     1.379   .     A
C5     C320    1.415   1_545 S
C6     N31     1.379   .     A
C6     O42     1.375   .     S
C6     C163    1.416   .     S
C7     N32     1.378   .     A
C7     O43     1.374   .     S
C7     C318    1.416   1_545 S
C8     O45     1.373   .     S
C8     N31     1.378   .     A
C8     C161    1.415   .     S
C9     O52     1.223   .     D
C9     O34     1.394   .     S
C9     C18     1.482   .     S
C10    C19     1.481   .     S
C10    O35     1.223   .     D
C10    O36     1.394   .     S
C11    O38     1.399   .     S
C11    C20     1.480   .     S
C11    O37     1.222   .     D
C12    O44     1.309   .     A
C12    O46     1.309   .     A
C13    O39     1.222   .     D
C13    O40     1.398   .     S
C14    O48     1.300   .     A
C14    O51     1.299   .     A
C14    C16     1.410   .     S
C15    O49     1.300   .     A
C15    O50     1.299   .     A
C15    C17     1.410   .     S
C16    C953    1.191   1_554 S
C17    C484    1.191   .     S
C18    C124    1.399   1_455 S
C19    C54     1.399   .     S
C20    C70     1.399   .     S
Cu21   O48     1.932   .     S
Cu21   Cu22    2.716   .     S
Cu21   N31     2.041   .     S
Cu21   O50     1.931   .     S
Cu21   O33     1.992   .     S
Cu21   O46     1.985   .     S
Cu22   O47     1.985   .     S
Cu22   N32     2.041   .     S
Cu22   O49     1.932   .     S
Cu22   O51     1.931   .     S
Cu22   O44     1.992   .     S
H23    O34     1.012   .     S
H24    O36     1.010   .     S
H25    O38     1.011   .     S
H26    O40     1.013   .     S
H27    O41     0.982   .     S
H28    O42     0.982   .     S
H29    O43     0.983   .     S
H30    O45     0.983   .     S
C53    C56     1.480   .     S
C53    O85     1.304   .     A
C53    O99     1.313   .     A
C54    C56     1.421   .     A
C54    C65     1.483   .     S
C55    C71     1.414   .     A
C55    C72     1.414   .     A
C55    C64     1.482   .     S
C56    C70     1.415   .     A
C57    O93     1.375   .     S
C57    N84     1.379   .     A
C57    C372    1.415   1_545 S
C58    N83     1.379   .     A
C58    O94     1.375   .     S
C58    C215    1.416   .     S
C59    N84     1.378   .     A
C59    O95     1.374   .     S
C59    C370    1.416   1_545 S
C60    O97     1.373   .     S
C60    N83     1.378   .     A
C60    C213    1.415   .     S
C61    O104    1.223   .     D
C61    O86     1.394   .     S
C61    C70     1.482   .     S
C62    C71     1.481   .     S
C62    O87     1.223   .     D
C62    O88     1.394   .     S
C63    O90     1.399   .     S
C63    C72     1.480   .     S
C63    O89     1.222   .     D
C64    O96     1.309   .     A
C64    O98     1.309   .     A
C65    O91     1.222   .     D
C65    O92     1.398   .     S
C66    O100    1.300   .     A
C66    O103    1.299   .     A
C66    C68     1.410   .     S
C67    O101    1.300   .     A
C67    O102    1.299   .     A
C67    C69     1.410   .     S
C68    C1005   1.191   1_554 S
C69    C536    1.191   .     S
C71    C106    1.399   .     S
C72    C122    1.399   .     S
Cu73   O100    1.932   .     S
Cu73   Cu74    2.716   .     S
Cu73   N83     2.041   .     S
Cu73   O102    1.931   .     S
Cu73   O85     1.992   .     S
Cu73   O98     1.985   .     S
Cu74   O99     1.985   .     S
Cu74   N84     2.041   .     S
Cu74   O101    1.932   .     S
Cu74   O103    1.931   .     S
Cu74   O96     1.992   .     S
H75    O86     1.012   .     S
H76    O88     1.010   .     S
H77    O90     1.011   .     S
H78    O92     1.013   .     S
H79    O93     0.982   .     S
H80    O94     0.982   .     S
H81    O95     0.983   .     S
H82    O97     0.983   .     S
C105   C108    1.480   .     S
C105   O137    1.304   .     A
C105   O151    1.313   .     A
C106   C108    1.421   .     A
C106   C117    1.483   .     S
C107   C123    1.414   .     A
C107   C124    1.414   .     A
C107   C116    1.482   .     S
C108   C122    1.415   .     A
C109   O145    1.375   .     S
C109   N136    1.379   .     A
C109   C424    1.415   1_545 S
C110   N135    1.379   .     A
C110   O146    1.375   .     S
C110   C267    1.416   .     S
C111   N136    1.378   .     A
C111   O147    1.374   .     S
C111   C422    1.416   1_545 S
C112   O149    1.373   .     S
C112   N135    1.378   .     A
C112   C265    1.415   .     S
C113   O156    1.223   .     D
C113   O138    1.394   .     S
C113   C122    1.482   .     S
C114   C123    1.481   .     S
C114   O139    1.223   .     D
C114   O140    1.394   .     S
C115   O142    1.399   .     S
C115   C124    1.480   .     S
C115   O141    1.222   .     D
C116   O148    1.309   .     A
C116   O150    1.309   .     A
C117   O143    1.222   .     D
C117   O144    1.398   .     S
C118   O152    1.300   .     A
C118   O155    1.299   .     A
C118   C120    1.410   .     S
C119   O153    1.300   .     A
C119   O154    1.299   .     A
C119   C121    1.410   .     S
C120   C1057   1.191   1_554 S
C121   C588    1.191   .     S
C123   C2      1.399   1_655 S
C124   C18     1.399   1_655 S
Cu125  O152    1.932   .     S
Cu125  Cu126   2.716   .     S
Cu125  N135    2.041   .     S
Cu125  O154    1.931   .     S
Cu125  O137    1.992   .     S
Cu125  O150    1.985   .     S
Cu126  O151    1.985   .     S
Cu126  N136    2.041   .     S
Cu126  O153    1.932   .     S
Cu126  O155    1.931   .     S
Cu126  O148    1.992   .     S
H127   O138    1.012   .     S
H128   O140    1.010   .     S
H129   O142    1.011   .     S
H130   O144    1.013   .     S
H131   O145    0.982   .     S
H132   O146    0.982   .     S
H133   O147    0.983   .     S
H134   O149    0.983   .     S
C157   C160    1.480   .     S
C157   O189    1.304   .     A
C157   O203    1.313   .     A
C158   C160    1.421   .     A
C158   C169    1.483   .     S
C158   C279    1.399   1_455 S
C159   C175    1.414   .     A
C159   C176    1.414   .     A
C159   C168    1.482   .     S
C160   C174    1.415   .     A
C161   O197    1.375   .     S
C161   N188    1.379   .     A
C162   N187    1.379   .     A
C162   O198    1.375   .     S
C162   C319    1.416   .     S
C163   N188    1.378   .     A
C163   O199    1.374   .     S
C164   O201    1.373   .     S
C164   N187    1.378   .     A
C164   C317    1.415   .     S
C165   O208    1.223   .     D
C165   O190    1.394   .     S
C165   C174    1.482   .     S
C166   C175    1.481   .     S
C166   O191    1.223   .     D
C166   O192    1.394   .     S
C167   O194    1.399   .     S
C167   C176    1.480   .     S
C167   O193    1.222   .     D
C168   O200    1.309   .     A
C168   O202    1.309   .     A
C169   O195    1.222   .     D
C169   O196    1.398   .     S
C170   O204    1.300   .     A
C170   O207    1.299   .     A
C170   C172    1.410   .     S
C171   O205    1.300   .     A
C171   O206    1.299   .     A
C171   C173    1.410   .     S
C172   C1109   1.191   1_554 S
C173   C640    1.191   .     S
C174   C280    1.399   1_455 S
C175   C210    1.399   .     S
C176   C226    1.399   .     S
Cu177  O204    1.932   .     S
Cu177  Cu178   2.716   .     S
Cu177  N187    2.041   .     S
Cu177  O206    1.931   .     S
Cu177  O189    1.992   .     S
Cu177  O202    1.985   .     S
Cu178  O203    1.985   .     S
Cu178  N188    2.041   .     S
Cu178  O205    1.932   .     S
Cu178  O207    1.931   .     S
Cu178  O200    1.992   .     S
H179   O190    1.012   .     S
H180   O192    1.010   .     S
H181   O194    1.011   .     S
H182   O196    1.013   .     S
H183   O197    0.982   .     S
H184   O198    0.982   .     S
H185   O199    0.983   .     S
H186   O201    0.983   .     S
C209   C212    1.480   .     S
C209   O241    1.304   .     A
C209   O255    1.313   .     A
C210   C212    1.421   .     A
C210   C221    1.483   .     S
C211   C227    1.414   .     A
C211   C228    1.414   .     A
C211   C220    1.482   .     S
C212   C226    1.415   .     A
C213   O249    1.375   .     S
C213   N240    1.379   .     A
C214   N239    1.379   .     A
C214   O250    1.375   .     S
C214   C371    1.416   .     S
C215   N240    1.378   .     A
C215   O251    1.374   .     S
C216   O253    1.373   .     S
C216   N239    1.378   .     A
C216   C369    1.415   .     S
C217   O260    1.223   .     D
C217   O242    1.394   .     S
C217   C226    1.482   .     S
C218   C227    1.481   .     S
C218   O243    1.223   .     D
C218   O244    1.394   .     S
C219   O246    1.399   .     S
C219   C228    1.480   .     S
C219   O245    1.222   .     D
C220   O252    1.309   .     A
C220   O254    1.309   .     A
C221   O247    1.222   .     D
C221   O248    1.398   .     S
C222   O256    1.300   .     A
C222   O259    1.299   .     A
C222   C224    1.410   .     S
C223   O257    1.300   .     A
C223   O258    1.299   .     A
C223   C225    1.410   .     S
C224   C1161   1.191   1_554 S
C225   C692    1.191   .     S
C227   C262    1.399   .     S
C228   C278    1.399   .     S
Cu229  O256    1.932   .     S
Cu229  Cu230   2.716   .     S
Cu229  N239    2.041   .     S
Cu229  O258    1.931   .     S
Cu229  O241    1.992   .     S
Cu229  O254    1.985   .     S
Cu230  O255    1.985   .     S
Cu230  N240    2.041   .     S
Cu230  O257    1.932   .     S
Cu230  O259    1.931   .     S
Cu230  O252    1.992   .     S
H231   O242    1.012   .     S
H232   O244    1.010   .     S
H233   O246    1.011   .     S
H234   O248    1.013   .     S
H235   O249    0.982   .     S
H236   O250    0.982   .     S
H237   O251    0.983   .     S
H238   O253    0.983   .     S
C261   C264    1.480   .     S
C261   O293    1.304   .     A
C261   O307    1.313   .     A
C262   C264    1.421   .     A
C262   C273    1.483   .     S
C263   C279    1.414   .     A
C263   C280    1.414   .     A
C263   C272    1.482   .     S
C264   C278    1.415   .     A
C265   O301    1.375   .     S
C265   N292    1.379   .     A
C266   N291    1.379   .     A
C266   O302    1.375   .     S
C266   C423    1.416   .     S
C267   N292    1.378   .     A
C267   O303    1.374   .     S
C268   O305    1.373   .     S
C268   N291    1.378   .     A
C268   C421    1.415   .     S
C269   O312    1.223   .     D
C269   O294    1.394   .     S
C269   C278    1.482   .     S
C270   C279    1.481   .     S
C270   O295    1.223   .     D
C270   O296    1.394   .     S
C271   O298    1.399   .     S
C271   C280    1.480   .     S
C271   O297    1.222   .     D
C272   O304    1.309   .     A
C272   O306    1.309   .     A
C273   O299    1.222   .     D
C273   O300    1.398   .     S
C274   O308    1.300   .     A
C274   O311    1.299   .     A
C274   C276    1.410   .     S
C275   O309    1.300   .     A
C275   O310    1.299   .     A
C275   C277    1.410   .     S
C276   C1213   1.191   1_554 S
C277   C744    1.191   .     S
C279   C158    1.399   1_655 S
C280   C174    1.399   1_655 S
Cu281  O308    1.932   .     S
Cu281  Cu282   2.716   .     S
Cu281  N291    2.041   .     S
Cu281  O310    1.931   .     S
Cu281  O293    1.992   .     S
Cu281  O306    1.985   .     S
Cu282  O307    1.985   .     S
Cu282  N292    2.041   .     S
Cu282  O309    1.932   .     S
Cu282  O311    1.931   .     S
Cu282  O304    1.992   .     S
H283   O294    1.012   .     S
H284   O296    1.010   .     S
H285   O298    1.011   .     S
H286   O300    1.013   .     S
H287   O301    0.982   .     S
H288   O302    0.982   .     S
H289   O303    0.983   .     S
H290   O305    0.983   .     S
C313   C316    1.480   .     S
C313   O345    1.304   .     A
C313   O359    1.313   .     A
C314   C316    1.421   .     A
C314   C325    1.483   .     S
C314   C435    1.399   1_455 S
C315   C331    1.414   .     A
C315   C332    1.414   .     A
C315   C324    1.482   .     S
C316   C330    1.415   .     A
C317   O353    1.375   .     S
C317   N344    1.379   .     A
C318   N343    1.379   .     A
C318   O354    1.375   .     S
C318   C7      1.416   1_565 S
C319   N344    1.378   .     A
C319   O355    1.374   .     S
C320   O357    1.373   .     S
C320   N343    1.378   .     A
C320   C5      1.415   1_565 S
C321   O364    1.223   .     D
C321   O346    1.394   .     S
C321   C330    1.482   .     S
C322   C331    1.481   .     S
C322   O347    1.223   .     D
C322   O348    1.394   .     S
C323   O350    1.399   .     S
C323   C332    1.480   .     S
C323   O349    1.222   .     D
C324   O356    1.309   .     A
C324   O358    1.309   .     A
C325   O351    1.222   .     D
C325   O352    1.398   .     S
C326   O360    1.300   .     A
C326   O363    1.299   .     A
C326   C328    1.410   .     S
C327   O361    1.300   .     A
C327   O362    1.299   .     A
C327   C329    1.410   .     S
C328   C1265   1.191   1_554 S
C329   C796    1.191   .     S
C330   C436    1.399   1_455 S
C331   C366    1.399   .     S
C332   C382    1.399   .     S
Cu333  O360    1.932   .     S
Cu333  Cu334   2.716   .     S
Cu333  N343    2.041   .     S
Cu333  O362    1.931   .     S
Cu333  O345    1.992   .     S
Cu333  O358    1.985   .     S
Cu334  O359    1.985   .     S
Cu334  N344    2.041   .     S
Cu334  O361    1.932   .     S
Cu334  O363    1.931   .     S
Cu334  O356    1.992   .     S
H335   O346    1.012   .     S
H336   O348    1.010   .     S
H337   O350    1.011   .     S
H338   O352    1.013   .     S
H339   O353    0.982   .     S
H340   O354    0.982   .     S
H341   O355    0.983   .     S
H342   O357    0.983   .     S
C365   C368    1.480   .     S
C365   O397    1.304   .     A
C365   O411    1.313   .     A
C366   C368    1.421   .     A
C366   C377    1.483   .     S
C367   C383    1.414   .     A
C367   C384    1.414   .     A
C367   C376    1.482   .     S
C368   C382    1.415   .     A
C369   O405    1.375   .     S
C369   N396    1.379   .     A
C370   N395    1.379   .     A
C370   O406    1.375   .     S
C370   C59     1.416   1_565 S
C371   N396    1.378   .     A
C371   O407    1.374   .     S
C372   O409    1.373   .     S
C372   N395    1.378   .     A
C372   C57     1.415   1_565 S
C373   O416    1.223   .     D
C373   O398    1.394   .     S
C373   C382    1.482   .     S
C374   C383    1.481   .     S
C374   O399    1.223   .     D
C374   O400    1.394   .     S
C375   O402    1.399   .     S
C375   C384    1.480   .     S
C375   O401    1.222   .     D
C376   O408    1.309   .     A
C376   O410    1.309   .     A
C377   O403    1.222   .     D
C377   O404    1.398   .     S
C378   O412    1.300   .     A
C378   O415    1.299   .     A
C378   C380    1.410   .     S
C379   O413    1.300   .     A
C379   O414    1.299   .     A
C379   C381    1.410   .     S
C380   C1317   1.191   1_554 S
C381   C848    1.191   .     S
C383   C418    1.399   .     S
C384   C434    1.399   .     S
Cu385  O412    1.932   .     S
Cu385  Cu386   2.716   .     S
Cu385  N395    2.041   .     S
Cu385  O414    1.931   .     S
Cu385  O397    1.992   .     S
Cu385  O410    1.985   .     S
Cu386  O411    1.985   .     S
Cu386  N396    2.041   .     S
Cu386  O413    1.932   .     S
Cu386  O415    1.931   .     S
Cu386  O408    1.992   .     S
H387   O398    1.012   .     S
H388   O400    1.010   .     S
H389   O402    1.011   .     S
H390   O404    1.013   .     S
H391   O405    0.982   .     S
H392   O406    0.982   .     S
H393   O407    0.983   .     S
H394   O409    0.983   .     S
C417   C420    1.480   .     S
C417   O449    1.304   .     A
C417   O463    1.313   .     A
C418   C420    1.421   .     A
C418   C429    1.483   .     S
C419   C435    1.414   .     A
C419   C436    1.414   .     A
C419   C428    1.482   .     S
C420   C434    1.415   .     A
C421   O457    1.375   .     S
C421   N448    1.379   .     A
C422   N447    1.379   .     A
C422   O458    1.375   .     S
C422   C111    1.416   1_565 S
C423   N448    1.378   .     A
C423   O459    1.374   .     S
C424   O461    1.373   .     S
C424   N447    1.378   .     A
C424   C109    1.415   1_565 S
C425   O468    1.223   .     D
C425   O450    1.394   .     S
C425   C434    1.482   .     S
C426   C435    1.481   .     S
C426   O451    1.223   .     D
C426   O452    1.394   .     S
C427   O454    1.399   .     S
C427   C436    1.480   .     S
C427   O453    1.222   .     D
C428   O460    1.309   .     A
C428   O462    1.309   .     A
C429   O455    1.222   .     D
C429   O456    1.398   .     S
C430   O464    1.300   .     A
C430   O467    1.299   .     A
C430   C432    1.410   .     S
C431   O465    1.300   .     A
C431   O466    1.299   .     A
C431   C433    1.410   .     S
C432   C1369   1.191   1_554 S
C433   C900    1.191   .     S
C435   C314    1.399   1_655 S
C436   C330    1.399   1_655 S
Cu437  O464    1.932   .     S
Cu437  Cu438   2.716   .     S
Cu437  N447    2.041   .     S
Cu437  O466    1.931   .     S
Cu437  O449    1.992   .     S
Cu437  O462    1.985   .     S
Cu438  O463    1.985   .     S
Cu438  N448    2.041   .     S
Cu438  O465    1.932   .     S
Cu438  O467    1.931   .     S
Cu438  O460    1.992   .     S
H439   O450    1.012   .     S
H440   O452    1.010   .     S
H441   O454    1.011   .     S
H442   O456    1.013   .     S
H443   O457    0.982   .     S
H444   O458    0.982   .     S
H445   O459    0.983   .     S
H446   O461    0.983   .     S
C469   C472    1.480   .     S
C469   O501    1.304   .     A
C469   O515    1.313   .     A
C470   C472    1.421   .     A
C470   C481    1.483   .     S
C470   C591    1.399   1_455 S
C471   C487    1.414   .     A
C471   C488    1.414   .     A
C471   C480    1.482   .     S
C472   C486    1.415   .     A
C473   O509    1.375   .     S
C473   N500    1.379   .     A
C473   C788    1.415   1_545 S
C474   N499    1.379   .     A
C474   O510    1.375   .     S
C474   C631    1.416   .     S
C475   N500    1.378   .     A
C475   O511    1.374   .     S
C475   C786    1.416   1_545 S
C476   O513    1.373   .     S
C476   N499    1.378   .     A
C476   C629    1.415   .     S
C477   O520    1.223   .     D
C477   O502    1.394   .     S
C477   C486    1.482   .     S
C478   C487    1.481   .     S
C478   O503    1.223   .     D
C478   O504    1.394   .     S
C479   O506    1.399   .     S
C479   C488    1.480   .     S
C479   O505    1.222   .     D
C480   O512    1.309   .     A
C480   O514    1.309   .     A
C481   O507    1.222   .     D
C481   O508    1.398   .     S
C482   O516    1.300   .     A
C482   O519    1.299   .     A
C482   C484    1.410   .     S
C483   O517    1.300   .     A
C483   O518    1.299   .     A
C483   C485    1.410   .     S
C485   C952    1.191   .     S
C486   C592    1.399   1_455 S
C487   C522    1.399   .     S
C488   C538    1.399   .     S
Cu489  O516    1.932   .     S
Cu489  Cu490   2.716   .     S
Cu489  N499    2.041   .     S
Cu489  O518    1.931   .     S
Cu489  O501    1.992   .     S
Cu489  O514    1.985   .     S
Cu490  O515    1.985   .     S
Cu490  N500    2.041   .     S
Cu490  O517    1.932   .     S
Cu490  O519    1.931   .     S
Cu490  O512    1.992   .     S
H491   O502    1.012   .     S
H492   O504    1.010   .     S
H493   O506    1.011   .     S
H494   O508    1.013   .     S
H495   O509    0.982   .     S
H496   O510    0.982   .     S
H497   O511    0.983   .     S
H498   O513    0.983   .     S
C521   C524    1.480   .     S
C521   O553    1.304   .     A
C521   O567    1.313   .     A
C522   C524    1.421   .     A
C522   C533    1.483   .     S
C523   C539    1.414   .     A
C523   C540    1.414   .     A
C523   C532    1.482   .     S
C524   C538    1.415   .     A
C525   O561    1.375   .     S
C525   N552    1.379   .     A
C525   C840    1.415   1_545 S
C526   N551    1.379   .     A
C526   O562    1.375   .     S
C526   C683    1.416   .     S
C527   N552    1.378   .     A
C527   O563    1.374   .     S
C527   C838    1.416   1_545 S
C528   O565    1.373   .     S
C528   N551    1.378   .     A
C528   C681    1.415   .     S
C529   O572    1.223   .     D
C529   O554    1.394   .     S
C529   C538    1.482   .     S
C530   C539    1.481   .     S
C530   O555    1.223   .     D
C530   O556    1.394   .     S
C531   O558    1.399   .     S
C531   C540    1.480   .     S
C531   O557    1.222   .     D
C532   O564    1.309   .     A
C532   O566    1.309   .     A
C533   O559    1.222   .     D
C533   O560    1.398   .     S
C534   O568    1.300   .     A
C534   O571    1.299   .     A
C534   C536    1.410   .     S
C535   O569    1.300   .     A
C535   O570    1.299   .     A
C535   C537    1.410   .     S
C537   C1004   1.191   .     S
C539   C574    1.399   .     S
C540   C590    1.399   .     S
Cu541  O568    1.932   .     S
Cu541  Cu542   2.716   .     S
Cu541  N551    2.041   .     S
Cu541  O570    1.931   .     S
Cu541  O553    1.992   .     S
Cu541  O566    1.985   .     S
Cu542  O567    1.985   .     S
Cu542  N552    2.041   .     S
Cu542  O569    1.932   .     S
Cu542  O571    1.931   .     S
Cu542  O564    1.992   .     S
H543   O554    1.012   .     S
H544   O556    1.010   .     S
H545   O558    1.011   .     S
H546   O560    1.013   .     S
H547   O561    0.982   .     S
H548   O562    0.982   .     S
H549   O563    0.983   .     S
H550   O565    0.983   .     S
C573   C576    1.480   .     S
C573   O605    1.304   .     A
C573   O619    1.313   .     A
C574   C576    1.421   .     A
C574   C585    1.483   .     S
C575   C591    1.414   .     A
C575   C592    1.414   .     A
C575   C584    1.482   .     S
C576   C590    1.415   .     A
C577   O613    1.375   .     S
C577   N604    1.379   .     A
C577   C892    1.415   1_545 S
C578   N603    1.379   .     A
C578   O614    1.375   .     S
C578   C735    1.416   .     S
C579   N604    1.378   .     A
C579   O615    1.374   .     S
C579   C890    1.416   1_545 S
C580   O617    1.373   .     S
C580   N603    1.378   .     A
C580   C733    1.415   .     S
C581   O624    1.223   .     D
C581   O606    1.394   .     S
C581   C590    1.482   .     S
C582   C591    1.481   .     S
C582   O607    1.223   .     D
C582   O608    1.394   .     S
C583   O610    1.399   .     S
C583   C592    1.480   .     S
C583   O609    1.222   .     D
C584   O616    1.309   .     A
C584   O618    1.309   .     A
C585   O611    1.222   .     D
C585   O612    1.398   .     S
C586   O620    1.300   .     A
C586   O623    1.299   .     A
C586   C588    1.410   .     S
C587   O621    1.300   .     A
C587   O622    1.299   .     A
C587   C589    1.410   .     S
C589   C1056   1.191   .     S
C591   C470    1.399   1_655 S
C592   C486    1.399   1_655 S
Cu593  O620    1.932   .     S
Cu593  Cu594   2.716   .     S
Cu593  N603    2.041   .     S
Cu593  O622    1.931   .     S
Cu593  O605    1.992   .     S
Cu593  O618    1.985   .     S
Cu594  O619    1.985   .     S
Cu594  N604    2.041   .     S
Cu594  O621    1.932   .     S
Cu594  O623    1.931   .     S
Cu594  O616    1.992   .     S
H595   O606    1.012   .     S
H596   O608    1.010   .     S
H597   O610    1.011   .     S
H598   O612    1.013   .     S
H599   O613    0.982   .     S
H600   O614    0.982   .     S
H601   O615    0.983   .     S
H602   O617    0.983   .     S
C625   C628    1.480   .     S
C625   O657    1.304   .     A
C625   O671    1.313   .     A
C626   C628    1.421   .     A
C626   C637    1.483   .     S
C626   C747    1.399   1_455 S
C627   C643    1.414   .     A
C627   C644    1.414   .     A
C627   C636    1.482   .     S
C628   C642    1.415   .     A
C629   O665    1.375   .     S
C629   N656    1.379   .     A
C630   N655    1.379   .     A
C630   O666    1.375   .     S
C630   C787    1.416   .     S
C631   N656    1.378   .     A
C631   O667    1.374   .     S
C632   O669    1.373   .     S
C632   N655    1.378   .     A
C632   C785    1.415   .     S
C633   O676    1.223   .     D
C633   O658    1.394   .     S
C633   C642    1.482   .     S
C634   C643    1.481   .     S
C634   O659    1.223   .     D
C634   O660    1.394   .     S
C635   O662    1.399   .     S
C635   C644    1.480   .     S
C635   O661    1.222   .     D
C636   O668    1.309   .     A
C636   O670    1.309   .     A
C637   O663    1.222   .     D
C637   O664    1.398   .     S
C638   O672    1.300   .     A
C638   O675    1.299   .     A
C638   C640    1.410   .     S
C639   O673    1.300   .     A
C639   O674    1.299   .     A
C639   C641    1.410   .     S
C641   C1108   1.191   .     S
C642   C748    1.399   1_455 S
C643   C678    1.399   .     S
C644   C694    1.399   .     S
Cu645  O672    1.932   .     S
Cu645  Cu646   2.716   .     S
Cu645  N655    2.041   .     S
Cu645  O674    1.931   .     S
Cu645  O657    1.992   .     S
Cu645  O670    1.985   .     S
Cu646  O671    1.985   .     S
Cu646  N656    2.041   .     S
Cu646  O673    1.932   .     S
Cu646  O675    1.931   .     S
Cu646  O668    1.992   .     S
H647   O658    1.012   .     S
H648   O660    1.010   .     S
H649   O662    1.011   .     S
H650   O664    1.013   .     S
H651   O665    0.982   .     S
H652   O666    0.982   .     S
H653   O667    0.983   .     S
H654   O669    0.983   .     S
C677   C680    1.480   .     S
C677   O709    1.304   .     A
C677   O723    1.313   .     A
C678   C680    1.421   .     A
C678   C689    1.483   .     S
C679   C695    1.414   .     A
C679   C696    1.414   .     A
C679   C688    1.482   .     S
C680   C694    1.415   .     A
C681   O717    1.375   .     S
C681   N708    1.379   .     A
C682   N707    1.379   .     A
C682   O718    1.375   .     S
C682   C839    1.416   .     S
C683   N708    1.378   .     A
C683   O719    1.374   .     S
C684   O721    1.373   .     S
C684   N707    1.378   .     A
C684   C837    1.415   .     S
C685   O728    1.223   .     D
C685   O710    1.394   .     S
C685   C694    1.482   .     S
C686   C695    1.481   .     S
C686   O711    1.223   .     D
C686   O712    1.394   .     S
C687   O714    1.399   .     S
C687   C696    1.480   .     S
C687   O713    1.222   .     D
C688   O720    1.309   .     A
C688   O722    1.309   .     A
C689   O715    1.222   .     D
C689   O716    1.398   .     S
C690   O724    1.300   .     A
C690   O727    1.299   .     A
C690   C692    1.410   .     S
C691   O725    1.300   .     A
C691   O726    1.299   .     A
C691   C693    1.410   .     S
C693   C1160   1.191   .     S
C695   C730    1.399   .     S
C696   C746    1.399   .     S
Cu697  O724    1.932   .     S
Cu697  Cu698   2.716   .     S
Cu697  N707    2.041   .     S
Cu697  O726    1.931   .     S
Cu697  O709    1.992   .     S
Cu697  O722    1.985   .     S
Cu698  O723    1.985   .     S
Cu698  N708    2.041   .     S
Cu698  O725    1.932   .     S
Cu698  O727    1.931   .     S
Cu698  O720    1.992   .     S
H699   O710    1.012   .     S
H700   O712    1.010   .     S
H701   O714    1.011   .     S
H702   O716    1.013   .     S
H703   O717    0.982   .     S
H704   O718    0.982   .     S
H705   O719    0.983   .     S
H706   O721    0.983   .     S
C729   C732    1.480   .     S
C729   O761    1.304   .     A
C729   O775    1.313   .     A
C730   C732    1.421   .     A
C730   C741    1.483   .     S
C731   C747    1.414   .     A
C731   C748    1.414   .     A
C731   C740    1.482   .     S
C732   C746    1.415   .     A
C733   O769    1.375   .     S
C733   N760    1.379   .     A
C734   N759    1.379   .     A
C734   O770    1.375   .     S
C734   C891    1.416   .     S
C735   N760    1.378   .     A
C735   O771    1.374   .     S
C736   O773    1.373   .     S
C736   N759    1.378   .     A
C736   C889    1.415   .     S
C737   O780    1.223   .     D
C737   O762    1.394   .     S
C737   C746    1.482   .     S
C738   C747    1.481   .     S
C738   O763    1.223   .     D
C738   O764    1.394   .     S
C739   O766    1.399   .     S
C739   C748    1.480   .     S
C739   O765    1.222   .     D
C740   O772    1.309   .     A
C740   O774    1.309   .     A
C741   O767    1.222   .     D
C741   O768    1.398   .     S
C742   O776    1.300   .     A
C742   O779    1.299   .     A
C742   C744    1.410   .     S
C743   O777    1.300   .     A
C743   O778    1.299   .     A
C743   C745    1.410   .     S
C745   C1212   1.191   .     S
C747   C626    1.399   1_655 S
C748   C642    1.399   1_655 S
Cu749  O776    1.932   .     S
Cu749  Cu750   2.716   .     S
Cu749  N759    2.041   .     S
Cu749  O778    1.931   .     S
Cu749  O761    1.992   .     S
Cu749  O774    1.985   .     S
Cu750  O775    1.985   .     S
Cu750  N760    2.041   .     S
Cu750  O777    1.932   .     S
Cu750  O779    1.931   .     S
Cu750  O772    1.992   .     S
H751   O762    1.012   .     S
H752   O764    1.010   .     S
H753   O766    1.011   .     S
H754   O768    1.013   .     S
H755   O769    0.982   .     S
H756   O770    0.982   .     S
H757   O771    0.983   .     S
H758   O773    0.983   .     S
C781   C784    1.480   .     S
C781   O813    1.304   .     A
C781   O827    1.313   .     A
C782   C784    1.421   .     A
C782   C793    1.483   .     S
C782   C903    1.399   1_455 S
C783   C799    1.414   .     A
C783   C800    1.414   .     A
C783   C792    1.482   .     S
C784   C798    1.415   .     A
C785   O821    1.375   .     S
C785   N812    1.379   .     A
C786   N811    1.379   .     A
C786   O822    1.375   .     S
C786   C475    1.416   1_565 S
C787   N812    1.378   .     A
C787   O823    1.374   .     S
C788   O825    1.373   .     S
C788   N811    1.378   .     A
C788   C473    1.415   1_565 S
C789   O832    1.223   .     D
C789   O814    1.394   .     S
C789   C798    1.482   .     S
C790   C799    1.481   .     S
C790   O815    1.223   .     D
C790   O816    1.394   .     S
C791   O818    1.399   .     S
C791   C800    1.480   .     S
C791   O817    1.222   .     D
C792   O824    1.309   .     A
C792   O826    1.309   .     A
C793   O819    1.222   .     D
C793   O820    1.398   .     S
C794   O828    1.300   .     A
C794   O831    1.299   .     A
C794   C796    1.410   .     S
C795   O829    1.300   .     A
C795   O830    1.299   .     A
C795   C797    1.410   .     S
C797   C1264   1.191   .     S
C798   C904    1.399   1_455 S
C799   C834    1.399   .     S
C800   C850    1.399   .     S
Cu801  O828    1.932   .     S
Cu801  Cu802   2.716   .     S
Cu801  N811    2.041   .     S
Cu801  O830    1.931   .     S
Cu801  O813    1.992   .     S
Cu801  O826    1.985   .     S
Cu802  O827    1.985   .     S
Cu802  N812    2.041   .     S
Cu802  O829    1.932   .     S
Cu802  O831    1.931   .     S
Cu802  O824    1.992   .     S
H803   O814    1.012   .     S
H804   O816    1.010   .     S
H805   O818    1.011   .     S
H806   O820    1.013   .     S
H807   O821    0.982   .     S
H808   O822    0.982   .     S
H809   O823    0.983   .     S
H810   O825    0.983   .     S
C833   C836    1.480   .     S
C833   O865    1.304   .     A
C833   O879    1.313   .     A
C834   C836    1.421   .     A
C834   C845    1.483   .     S
C835   C851    1.414   .     A
C835   C852    1.414   .     A
C835   C844    1.482   .     S
C836   C850    1.415   .     A
C837   O873    1.375   .     S
C837   N864    1.379   .     A
C838   N863    1.379   .     A
C838   O874    1.375   .     S
C838   C527    1.416   1_565 S
C839   N864    1.378   .     A
C839   O875    1.374   .     S
C840   O877    1.373   .     S
C840   N863    1.378   .     A
C840   C525    1.415   1_565 S
C841   O884    1.223   .     D
C841   O866    1.394   .     S
C841   C850    1.482   .     S
C842   C851    1.481   .     S
C842   O867    1.223   .     D
C842   O868    1.394   .     S
C843   O870    1.399   .     S
C843   C852    1.480   .     S
C843   O869    1.222   .     D
C844   O876    1.309   .     A
C844   O878    1.309   .     A
C845   O871    1.222   .     D
C845   O872    1.398   .     S
C846   O880    1.300   .     A
C846   O883    1.299   .     A
C846   C848    1.410   .     S
C847   O881    1.300   .     A
C847   O882    1.299   .     A
C847   C849    1.410   .     S
C849   C1316   1.191   .     S
C851   C886    1.399   .     S
C852   C902    1.399   .     S
Cu853  O880    1.932   .     S
Cu853  Cu854   2.716   .     S
Cu853  N863    2.041   .     S
Cu853  O882    1.931   .     S
Cu853  O865    1.992   .     S
Cu853  O878    1.985   .     S
Cu854  O879    1.985   .     S
Cu854  N864    2.041   .     S
Cu854  O881    1.932   .     S
Cu854  O883    1.931   .     S
Cu854  O876    1.992   .     S
H855   O866    1.012   .     S
H856   O868    1.010   .     S
H857   O870    1.011   .     S
H858   O872    1.013   .     S
H859   O873    0.982   .     S
H860   O874    0.982   .     S
H861   O875    0.983   .     S
H862   O877    0.983   .     S
C885   C888    1.480   .     S
C885   O917    1.304   .     A
C885   O931    1.313   .     A
C886   C888    1.421   .     A
C886   C897    1.483   .     S
C887   C903    1.414   .     A
C887   C904    1.414   .     A
C887   C896    1.482   .     S
C888   C902    1.415   .     A
C889   O925    1.375   .     S
C889   N916    1.379   .     A
C890   N915    1.379   .     A
C890   O926    1.375   .     S
C890   C579    1.416   1_565 S
C891   N916    1.378   .     A
C891   O927    1.374   .     S
C892   O929    1.373   .     S
C892   N915    1.378   .     A
C892   C577    1.415   1_565 S
C893   O936    1.223   .     D
C893   O918    1.394   .     S
C893   C902    1.482   .     S
C894   C903    1.481   .     S
C894   O919    1.223   .     D
C894   O920    1.394   .     S
C895   O922    1.399   .     S
C895   C904    1.480   .     S
C895   O921    1.222   .     D
C896   O928    1.309   .     A
C896   O930    1.309   .     A
C897   O923    1.222   .     D
C897   O924    1.398   .     S
C898   O932    1.300   .     A
C898   O935    1.299   .     A
C898   C900    1.410   .     S
C899   O933    1.300   .     A
C899   O934    1.299   .     A
C899   C901    1.410   .     S
C901   C1368   1.191   .     S
C903   C782    1.399   1_655 S
C904   C798    1.399   1_655 S
Cu905  O932    1.932   .     S
Cu905  Cu906   2.716   .     S
Cu905  N915    2.041   .     S
Cu905  O934    1.931   .     S
Cu905  O917    1.992   .     S
Cu905  O930    1.985   .     S
Cu906  O931    1.985   .     S
Cu906  N916    2.041   .     S
Cu906  O933    1.932   .     S
Cu906  O935    1.931   .     S
Cu906  O928    1.992   .     S
H907   O918    1.012   .     S
H908   O920    1.010   .     S
H909   O922    1.011   .     S
H910   O924    1.013   .     S
H911   O925    0.982   .     S
H912   O926    0.982   .     S
H913   O927    0.983   .     S
H914   O929    0.983   .     S
C937   C940    1.480   .     S
C937   O969    1.304   .     A
C937   O983    1.313   .     A
C938   C940    1.421   .     A
C938   C949    1.483   .     S
C938   C1059   1.399   1_455 S
C939   C955    1.414   .     A
C939   C956    1.414   .     A
C939   C948    1.482   .     S
C940   C954    1.415   .     A
C941   O977    1.375   .     S
C941   N968    1.379   .     A
C941   C1256   1.415   1_545 S
C942   N967    1.379   .     A
C942   O978    1.375   .     S
C942   C1099   1.416   .     S
C943   N968    1.378   .     A
C943   O979    1.374   .     S
C943   C1254   1.416   1_545 S
C944   O981    1.373   .     S
C944   N967    1.378   .     A
C944   C1097   1.415   .     S
C945   O988    1.223   .     D
C945   O970    1.394   .     S
C945   C954    1.482   .     S
C946   C955    1.481   .     S
C946   O971    1.223   .     D
C946   O972    1.394   .     S
C947   O974    1.399   .     S
C947   C956    1.480   .     S
C947   O973    1.222   .     D
C948   O980    1.309   .     A
C948   O982    1.309   .     A
C949   O975    1.222   .     D
C949   O976    1.398   .     S
C950   O984    1.300   .     A
C950   O987    1.299   .     A
C950   C952    1.410   .     S
C951   O985    1.300   .     A
C951   O986    1.299   .     A
C951   C953    1.410   .     S
C953   C16     1.191   1_556 S
C954   C1060   1.399   1_455 S
C955   C990    1.399   .     S
C956   C1006   1.399   .     S
Cu957  O984    1.932   .     S
Cu957  Cu958   2.716   .     S
Cu957  N967    2.041   .     S
Cu957  O986    1.931   .     S
Cu957  O969    1.992   .     S
Cu957  O982    1.985   .     S
Cu958  O983    1.985   .     S
Cu958  N968    2.041   .     S
Cu958  O985    1.932   .     S
Cu958  O987    1.931   .     S
Cu958  O980    1.992   .     S
H959   O970    1.012   .     S
H960   O972    1.010   .     S
H961   O974    1.011   .     S
H962   O976    1.013   .     S
H963   O977    0.982   .     S
H964   O978    0.982   .     S
H965   O979    0.983   .     S
H966   O981    0.983   .     S
C989   C992    1.480   .     S
C989   O1021   1.304   .     A
C989   O1035   1.313   .     A
C990   C992    1.421   .     A
C990   C1001   1.483   .     S
C991   C1007   1.414   .     A
C991   C1008   1.414   .     A
C991   C1000   1.482   .     S
C992   C1006   1.415   .     A
C993   O1029   1.375   .     S
C993   N1020   1.379   .     A
C993   C1308   1.415   1_545 S
C994   N1019   1.379   .     A
C994   O1030   1.375   .     S
C994   C1151   1.416   .     S
C995   N1020   1.378   .     A
C995   O1031   1.374   .     S
C995   C1306   1.416   1_545 S
C996   O1033   1.373   .     S
C996   N1019   1.378   .     A
C996   C1149   1.415   .     S
C997   O1040   1.223   .     D
C997   O1022   1.394   .     S
C997   C1006   1.482   .     S
C998   C1007   1.481   .     S
C998   O1023   1.223   .     D
C998   O1024   1.394   .     S
C999   O1026   1.399   .     S
C999   C1008   1.480   .     S
C999   O1025   1.222   .     D
C1000  O1032   1.309   .     A
C1000  O1034   1.309   .     A
C1001  O1027   1.222   .     D
C1001  O1028   1.398   .     S
C1002  O1036   1.300   .     A
C1002  O1039   1.299   .     A
C1002  C1004   1.410   .     S
C1003  O1037   1.300   .     A
C1003  O1038   1.299   .     A
C1003  C1005   1.410   .     S
C1005  C68     1.191   1_556 S
C1007  C1042   1.399   .     S
C1008  C1058   1.399   .     S
Cu1009 O1036   1.932   .     S
Cu1009 Cu1010  2.716   .     S
Cu1009 N1019   2.041   .     S
Cu1009 O1038   1.931   .     S
Cu1009 O1021   1.992   .     S
Cu1009 O1034   1.985   .     S
Cu1010 O1035   1.985   .     S
Cu1010 N1020   2.041   .     S
Cu1010 O1037   1.932   .     S
Cu1010 O1039   1.931   .     S
Cu1010 O1032   1.992   .     S
H1011  O1022   1.012   .     S
H1012  O1024   1.010   .     S
H1013  O1026   1.011   .     S
H1014  O1028   1.013   .     S
H1015  O1029   0.982   .     S
H1016  O1030   0.982   .     S
H1017  O1031   0.983   .     S
H1018  O1033   0.983   .     S
C1041  C1044   1.480   .     S
C1041  O1073   1.304   .     A
C1041  O1087   1.313   .     A
C1042  C1044   1.421   .     A
C1042  C1053   1.483   .     S
C1043  C1059   1.414   .     A
C1043  C1060   1.414   .     A
C1043  C1052   1.482   .     S
C1044  C1058   1.415   .     A
C1045  O1081   1.375   .     S
C1045  N1072   1.379   .     A
C1045  C1360   1.415   1_545 S
C1046  N1071   1.379   .     A
C1046  O1082   1.375   .     S
C1046  C1203   1.416   .     S
C1047  N1072   1.378   .     A
C1047  O1083   1.374   .     S
C1047  C1358   1.416   1_545 S
C1048  O1085   1.373   .     S
C1048  N1071   1.378   .     A
C1048  C1201   1.415   .     S
C1049  O1092   1.223   .     D
C1049  O1074   1.394   .     S
C1049  C1058   1.482   .     S
C1050  C1059   1.481   .     S
C1050  O1075   1.223   .     D
C1050  O1076   1.394   .     S
C1051  O1078   1.399   .     S
C1051  C1060   1.480   .     S
C1051  O1077   1.222   .     D
C1052  O1084   1.309   .     A
C1052  O1086   1.309   .     A
C1053  O1079   1.222   .     D
C1053  O1080   1.398   .     S
C1054  O1088   1.300   .     A
C1054  O1091   1.299   .     A
C1054  C1056   1.410   .     S
C1055  O1089   1.300   .     A
C1055  O1090   1.299   .     A
C1055  C1057   1.410   .     S
C1057  C120    1.191   1_556 S
C1059  C938    1.399   1_655 S
C1060  C954    1.399   1_655 S
Cu1061 O1088   1.932   .     S
Cu1061 Cu1062  2.716   .     S
Cu1061 N1071   2.041   .     S
Cu1061 O1090   1.931   .     S
Cu1061 O1073   1.992   .     S
Cu1061 O1086   1.985   .     S
Cu1062 O1087   1.985   .     S
Cu1062 N1072   2.041   .     S
Cu1062 O1089   1.932   .     S
Cu1062 O1091   1.931   .     S
Cu1062 O1084   1.992   .     S
H1063  O1074   1.012   .     S
H1064  O1076   1.010   .     S
H1065  O1078   1.011   .     S
H1066  O1080   1.013   .     S
H1067  O1081   0.982   .     S
H1068  O1082   0.982   .     S
H1069  O1083   0.983   .     S
H1070  O1085   0.983   .     S
C1093  C1096   1.480   .     S
C1093  O1125   1.304   .     A
C1093  O1139   1.313   .     A
C1094  C1096   1.421   .     A
C1094  C1105   1.483   .     S
C1094  C1215   1.399   1_455 S
C1095  C1111   1.414   .     A
C1095  C1112   1.414   .     A
C1095  C1104   1.482   .     S
C1096  C1110   1.415   .     A
C1097  O1133   1.375   .     S
C1097  N1124   1.379   .     A
C1098  N1123   1.379   .     A
C1098  O1134   1.375   .     S
C1098  C1255   1.416   .     S
C1099  N1124   1.378   .     A
C1099  O1135   1.374   .     S
C1100  O1137   1.373   .     S
C1100  N1123   1.378   .     A
C1100  C1253   1.415   .     S
C1101  O1144   1.223   .     D
C1101  O1126   1.394   .     S
C1101  C1110   1.482   .     S
C1102  C1111   1.481   .     S
C1102  O1127   1.223   .     D
C1102  O1128   1.394   .     S
C1103  O1130   1.399   .     S
C1103  C1112   1.480   .     S
C1103  O1129   1.222   .     D
C1104  O1136   1.309   .     A
C1104  O1138   1.309   .     A
C1105  O1131   1.222   .     D
C1105  O1132   1.398   .     S
C1106  O1140   1.300   .     A
C1106  O1143   1.299   .     A
C1106  C1108   1.410   .     S
C1107  O1141   1.300   .     A
C1107  O1142   1.299   .     A
C1107  C1109   1.410   .     S
C1109  C172    1.191   1_556 S
C1110  C1216   1.399   1_455 S
C1111  C1146   1.399   .     S
C1112  C1162   1.399   .     S
Cu1113 O1140   1.932   .     S
Cu1113 Cu1114  2.716   .     S
Cu1113 N1123   2.041   .     S
Cu1113 O1142   1.931   .     S
Cu1113 O1125   1.992   .     S
Cu1113 O1138   1.985   .     S
Cu1114 O1139   1.985   .     S
Cu1114 N1124   2.041   .     S
Cu1114 O1141   1.932   .     S
Cu1114 O1143   1.931   .     S
Cu1114 O1136   1.992   .     S
H1115  O1126   1.012   .     S
H1116  O1128   1.010   .     S
H1117  O1130   1.011   .     S
H1118  O1132   1.013   .     S
H1119  O1133   0.982   .     S
H1120  O1134   0.982   .     S
H1121  O1135   0.983   .     S
H1122  O1137   0.983   .     S
C1145  C1148   1.480   .     S
C1145  O1177   1.304   .     A
C1145  O1191   1.313   .     A
C1146  C1148   1.421   .     A
C1146  C1157   1.483   .     S
C1147  C1163   1.414   .     A
C1147  C1164   1.414   .     A
C1147  C1156   1.482   .     S
C1148  C1162   1.415   .     A
C1149  O1185   1.375   .     S
C1149  N1176   1.379   .     A
C1150  N1175   1.379   .     A
C1150  O1186   1.375   .     S
C1150  C1307   1.416   .     S
C1151  N1176   1.378   .     A
C1151  O1187   1.374   .     S
C1152  O1189   1.373   .     S
C1152  N1175   1.378   .     A
C1152  C1305   1.415   .     S
C1153  O1196   1.223   .     D
C1153  O1178   1.394   .     S
C1153  C1162   1.482   .     S
C1154  C1163   1.481   .     S
C1154  O1179   1.223   .     D
C1154  O1180   1.394   .     S
C1155  O1182   1.399   .     S
C1155  C1164   1.480   .     S
C1155  O1181   1.222   .     D
C1156  O1188   1.309   .     A
C1156  O1190   1.309   .     A
C1157  O1183   1.222   .     D
C1157  O1184   1.398   .     S
C1158  O1192   1.300   .     A
C1158  O1195   1.299   .     A
C1158  C1160   1.410   .     S
C1159  O1193   1.300   .     A
C1159  O1194   1.299   .     A
C1159  C1161   1.410   .     S
C1161  C224    1.191   1_556 S
C1163  C1198   1.399   .     S
C1164  C1214   1.399   .     S
Cu1165 O1192   1.932   .     S
Cu1165 Cu1166  2.716   .     S
Cu1165 N1175   2.041   .     S
Cu1165 O1194   1.931   .     S
Cu1165 O1177   1.992   .     S
Cu1165 O1190   1.985   .     S
Cu1166 O1191   1.985   .     S
Cu1166 N1176   2.041   .     S
Cu1166 O1193   1.932   .     S
Cu1166 O1195   1.931   .     S
Cu1166 O1188   1.992   .     S
H1167  O1178   1.012   .     S
H1168  O1180   1.010   .     S
H1169  O1182   1.011   .     S
H1170  O1184   1.013   .     S
H1171  O1185   0.982   .     S
H1172  O1186   0.982   .     S
H1173  O1187   0.983   .     S
H1174  O1189   0.983   .     S
C1197  C1200   1.480   .     S
C1197  O1229   1.304   .     A
C1197  O1243   1.313   .     A
C1198  C1200   1.421   .     A
C1198  C1209   1.483   .     S
C1199  C1215   1.414   .     A
C1199  C1216   1.414   .     A
C1199  C1208   1.482   .     S
C1200  C1214   1.415   .     A
C1201  O1237   1.375   .     S
C1201  N1228   1.379   .     A
C1202  N1227   1.379   .     A
C1202  O1238   1.375   .     S
C1202  C1359   1.416   .     S
C1203  N1228   1.378   .     A
C1203  O1239   1.374   .     S
C1204  O1241   1.373   .     S
C1204  N1227   1.378   .     A
C1204  C1357   1.415   .     S
C1205  O1248   1.223   .     D
C1205  O1230   1.394   .     S
C1205  C1214   1.482   .     S
C1206  C1215   1.481   .     S
C1206  O1231   1.223   .     D
C1206  O1232   1.394   .     S
C1207  O1234   1.399   .     S
C1207  C1216   1.480   .     S
C1207  O1233   1.222   .     D
C1208  O1240   1.309   .     A
C1208  O1242   1.309   .     A
C1209  O1235   1.222   .     D
C1209  O1236   1.398   .     S
C1210  O1244   1.300   .     A
C1210  O1247   1.299   .     A
C1210  C1212   1.410   .     S
C1211  O1245   1.300   .     A
C1211  O1246   1.299   .     A
C1211  C1213   1.410   .     S
C1213  C276    1.191   1_556 S
C1215  C1094   1.399   1_655 S
C1216  C1110   1.399   1_655 S
Cu1217 O1244   1.932   .     S
Cu1217 Cu1218  2.716   .     S
Cu1217 N1227   2.041   .     S
Cu1217 O1246   1.931   .     S
Cu1217 O1229   1.992   .     S
Cu1217 O1242   1.985   .     S
Cu1218 O1243   1.985   .     S
Cu1218 N1228   2.041   .     S
Cu1218 O1245   1.932   .     S
Cu1218 O1247   1.931   .     S
Cu1218 O1240   1.992   .     S
H1219  O1230   1.012   .     S
H1220  O1232   1.010   .     S
H1221  O1234   1.011   .     S
H1222  O1236   1.013   .     S
H1223  O1237   0.982   .     S
H1224  O1238   0.982   .     S
H1225  O1239   0.983   .     S
H1226  O1241   0.983   .     S
C1249  C1252   1.480   .     S
C1249  O1281   1.304   .     A
C1249  O1295   1.313   .     A
C1250  C1252   1.421   .     A
C1250  C1261   1.483   .     S
C1250  C1371   1.399   1_455 S
C1251  C1267   1.414   .     A
C1251  C1268   1.414   .     A
C1251  C1260   1.482   .     S
C1252  C1266   1.415   .     A
C1253  O1289   1.375   .     S
C1253  N1280   1.379   .     A
C1254  N1279   1.379   .     A
C1254  O1290   1.375   .     S
C1254  C943    1.416   1_565 S
C1255  N1280   1.378   .     A
C1255  O1291   1.374   .     S
C1256  O1293   1.373   .     S
C1256  N1279   1.378   .     A
C1256  C941    1.415   1_565 S
C1257  O1300   1.223   .     D
C1257  O1282   1.394   .     S
C1257  C1266   1.482   .     S
C1258  C1267   1.481   .     S
C1258  O1283   1.223   .     D
C1258  O1284   1.394   .     S
C1259  O1286   1.399   .     S
C1259  C1268   1.480   .     S
C1259  O1285   1.222   .     D
C1260  O1292   1.309   .     A
C1260  O1294   1.309   .     A
C1261  O1287   1.222   .     D
C1261  O1288   1.398   .     S
C1262  O1296   1.300   .     A
C1262  O1299   1.299   .     A
C1262  C1264   1.410   .     S
C1263  O1297   1.300   .     A
C1263  O1298   1.299   .     A
C1263  C1265   1.410   .     S
C1265  C328    1.191   1_556 S
C1266  C1372   1.399   1_455 S
C1267  C1302   1.399   .     S
C1268  C1318   1.399   .     S
Cu1269 O1296   1.932   .     S
Cu1269 Cu1270  2.716   .     S
Cu1269 N1279   2.041   .     S
Cu1269 O1298   1.931   .     S
Cu1269 O1281   1.992   .     S
Cu1269 O1294   1.985   .     S
Cu1270 O1295   1.985   .     S
Cu1270 N1280   2.041   .     S
Cu1270 O1297   1.932   .     S
Cu1270 O1299   1.931   .     S
Cu1270 O1292   1.992   .     S
H1271  O1282   1.012   .     S
H1272  O1284   1.010   .     S
H1273  O1286   1.011   .     S
H1274  O1288   1.013   .     S
H1275  O1289   0.982   .     S
H1276  O1290   0.982   .     S
H1277  O1291   0.983   .     S
H1278  O1293   0.983   .     S
C1301  C1304   1.480   .     S
C1301  O1333   1.304   .     A
C1301  O1347   1.313   .     A
C1302  C1304   1.421   .     A
C1302  C1313   1.483   .     S
C1303  C1319   1.414   .     A
C1303  C1320   1.414   .     A
C1303  C1312   1.482   .     S
C1304  C1318   1.415   .     A
C1305  O1341   1.375   .     S
C1305  N1332   1.379   .     A
C1306  N1331   1.379   .     A
C1306  O1342   1.375   .     S
C1306  C995    1.416   1_565 S
C1307  N1332   1.378   .     A
C1307  O1343   1.374   .     S
C1308  O1345   1.373   .     S
C1308  N1331   1.378   .     A
C1308  C993    1.415   1_565 S
C1309  O1352   1.223   .     D
C1309  O1334   1.394   .     S
C1309  C1318   1.482   .     S
C1310  C1319   1.481   .     S
C1310  O1335   1.223   .     D
C1310  O1336   1.394   .     S
C1311  O1338   1.399   .     S
C1311  C1320   1.480   .     S
C1311  O1337   1.222   .     D
C1312  O1344   1.309   .     A
C1312  O1346   1.309   .     A
C1313  O1339   1.222   .     D
C1313  O1340   1.398   .     S
C1314  O1348   1.300   .     A
C1314  O1351   1.299   .     A
C1314  C1316   1.410   .     S
C1315  O1349   1.300   .     A
C1315  O1350   1.299   .     A
C1315  C1317   1.410   .     S
C1317  C380    1.191   1_556 S
C1319  C1354   1.399   .     S
C1320  C1370   1.399   .     S
Cu1321 O1348   1.932   .     S
Cu1321 Cu1322  2.716   .     S
Cu1321 N1331   2.041   .     S
Cu1321 O1350   1.931   .     S
Cu1321 O1333   1.992   .     S
Cu1321 O1346   1.985   .     S
Cu1322 O1347   1.985   .     S
Cu1322 N1332   2.041   .     S
Cu1322 O1349   1.932   .     S
Cu1322 O1351   1.931   .     S
Cu1322 O1344   1.992   .     S
H1323  O1334   1.012   .     S
H1324  O1336   1.010   .     S
H1325  O1338   1.011   .     S
H1326  O1340   1.013   .     S
H1327  O1341   0.982   .     S
H1328  O1342   0.982   .     S
H1329  O1343   0.983   .     S
H1330  O1345   0.983   .     S
C1353  C1356   1.480   .     S
C1353  O1385   1.304   .     A
C1353  O1399   1.313   .     A
C1354  C1356   1.421   .     A
C1354  C1365   1.483   .     S
C1355  C1371   1.414   .     A
C1355  C1372   1.414   .     A
C1355  C1364   1.482   .     S
C1356  C1370   1.415   .     A
C1357  O1393   1.375   .     S
C1357  N1384   1.379   .     A
C1358  N1383   1.379   .     A
C1358  O1394   1.375   .     S
C1358  C1047   1.416   1_565 S
C1359  N1384   1.378   .     A
C1359  O1395   1.374   .     S
C1360  O1397   1.373   .     S
C1360  N1383   1.378   .     A
C1360  C1045   1.415   1_565 S
C1361  O1404   1.223   .     D
C1361  O1386   1.394   .     S
C1361  C1370   1.482   .     S
C1362  C1371   1.481   .     S
C1362  O1387   1.223   .     D
C1362  O1388   1.394   .     S
C1363  O1390   1.399   .     S
C1363  C1372   1.480   .     S
C1363  O1389   1.222   .     D
C1364  O1396   1.309   .     A
C1364  O1398   1.309   .     A
C1365  O1391   1.222   .     D
C1365  O1392   1.398   .     S
C1366  O1400   1.300   .     A
C1366  O1403   1.299   .     A
C1366  C1368   1.410   .     S
C1367  O1401   1.300   .     A
C1367  O1402   1.299   .     A
C1367  C1369   1.410   .     S
C1369  C432    1.191   1_556 S
C1371  C1250   1.399   1_655 S
C1372  C1266   1.399   1_655 S
Cu1373 O1400   1.932   .     S
Cu1373 Cu1374  2.716   .     S
Cu1373 N1383   2.041   .     S
Cu1373 O1402   1.931   .     S
Cu1373 O1385   1.992   .     S
Cu1373 O1398   1.985   .     S
Cu1374 O1399   1.985   .     S
Cu1374 N1384   2.041   .     S
Cu1374 O1401   1.932   .     S
Cu1374 O1403   1.931   .     S
Cu1374 O1396   1.992   .     S
H1375  O1386   1.012   .     S
H1376  O1388   1.010   .     S
H1377  O1390   1.011   .     S
H1378  O1392   1.013   .     S
H1379  O1393   0.982   .     S
H1380  O1394   0.982   .     S
H1381  O1395   0.983   .     S
H1382  O1397   0.983   .     S
