data_str_m2_o1_o18_pcu_sym.206
_audit_creation_date              2020-01-03
_audit_creation_method            'Materials Studio'
_symmetry_space_group_name_H-M    'P1'
_symmetry_Int_Tables_number       1
_symmetry_cell_setting            triclinic
loop_
_symmetry_equiv_pos_as_xyz
  x,y,z
_cell_length_a                    29.2025
_cell_length_b                    32.4023
_cell_length_c                    31.9223
_cell_angle_alpha                 89.9099
_cell_angle_beta                  71.0321
_cell_angle_gamma                 91.3166
loop_
_atom_site_label
_atom_site_type_symbol
_atom_site_fract_x
_atom_site_fract_y
_atom_site_fract_z
_atom_site_U_iso_or_equiv
_atom_site_adp_type
_atom_site_occupancy
C1     C     0.00018   0.08771   0.24849   0.00000  Uiso   1.00
C2     C     0.33318   0.24569   0.25136   0.00000  Uiso   1.00
C3     C     0.19534   0.20070   0.04343   0.00000  Uiso   1.00
C4     C     0.13947   0.20054   0.45558   0.00000  Uiso   1.00
C5     C     0.24415   0.19957   0.01867   0.00000  Uiso   1.00
C6     C     0.09059   0.19947   0.48044   0.00000  Uiso   1.00
C7     C     0.29431   0.02176   0.27688   0.00000  Uiso   1.00
C8     C     0.03902   0.31182   0.22254   0.00000  Uiso   1.00
C9     C     0.29331   0.31225   0.28001   0.00000  Uiso   1.00
C10    C     0.03967   0.02136   0.21894   0.00000  Uiso   1.00
C11    C     0.33317   0.29050   0.25252   0.00000  Uiso   1.00
C12    C     0.00014   0.04301   0.24699   0.00000  Uiso   1.00
C13    C     0.18224   0.13602   0.27104   0.00000  Uiso   1.00
C14    C     0.15096   0.19763   0.22952   0.00000  Uiso   1.00
C15    C     0.13349   0.13609   0.27048   0.00000  Uiso   1.00
C16    C     0.19984   0.19728   0.22963   0.00000  Uiso   1.00
C17    C     0.30493   0.16656   0.33547   0.00000  Uiso   1.00
C18    C     0.02838   0.16681   0.16452   0.00000  Uiso   1.00
C19    C     0.28757   0.16966   0.38372   0.00000  Uiso   1.00
C20    C     0.04572   0.16998   0.11618   0.00000  Uiso   1.00
C21    C     0.30377   0.17180   0.45268   0.00000  Uiso   1.00
C22    C     0.02931   0.17231   0.04731   0.00000  Uiso   1.00
C23    C     0.31936   0.16469   0.40759   0.00000  Uiso   1.00
C24    C     0.01340   0.16541   0.09258   0.00000  Uiso   1.00
C25    C     0.23910   0.17854   0.40617   0.00000  Uiso   1.00
C26    C     0.09473   0.17834   0.09328   0.00000  Uiso   1.00
C27    C     0.22353   0.18746   0.45172   0.00000  Uiso   1.00
C28    C     0.11064   0.18748   0.04760   0.00000  Uiso   1.00
C29    C     0.25761   0.18655   0.47446   0.00000  Uiso   1.00
C30    C     0.07640   0.18673   0.02501   0.00000  Uiso   1.00
C31    C     0.17455   0.19436   0.47609   0.00000  Uiso   1.00
C32    C     0.15997   0.19436   0.02303   0.00000  Uiso   1.00
Cu33   Cu    0.04689   0.16667   0.25000   0.00000  Uiso   1.00
Cu34   Cu    0.28645   0.16666   0.25000   0.00000  Uiso   1.00
H35    H     0.11999   0.17646   0.11131   0.00000  Uiso   1.00
H36    H     0.21412   0.17789   0.38768   0.00000  Uiso   1.00
H37    H     0.30930   0.15595   0.10890   0.00000  Uiso   1.00
H38    H     0.02281   0.15491   0.39161   0.00000  Uiso   1.00
H39    H     0.32717   0.16332   0.47039   0.00000  Uiso   1.00
H40    H     0.00528   0.16389   0.02991   0.00000  Uiso   1.00
H41    H     0.18612   0.20758   0.07823   0.00000  Uiso   1.00
H42    H     0.14898   0.20726   0.42062   0.00000  Uiso   1.00
H43    H     0.26537   0.03889   0.29945   0.00000  Uiso   1.00
H44    H     0.06802   0.29473   0.20012   0.00000  Uiso   1.00
H45    H     0.10826   0.11168   0.28737   0.00000  Uiso   1.00
H46    H     0.22503   0.22177   0.21289   0.00000  Uiso   1.00
N47    N     0.11736   0.16668   0.24999   0.00000  Uiso   1.00
N48    N     0.21597   0.16666   0.25001   0.00000  Uiso   1.00
O49    O     0.03958   0.10655   0.25000   0.00000  Uiso   1.00
O50    O     0.29375   0.22678   0.25000   0.00000  Uiso   1.00
O51    O     0.29372   0.10654   0.25000   0.00000  Uiso   1.00
O52    O     0.03961   0.22679   0.24999   0.00000  Uiso   1.00
O53    O     0.01852   0.16668   0.31491   0.00000  Uiso   1.00
O54    O     0.31481   0.16666   0.18508   0.00000  Uiso   1.00
O55    O     0.27267   0.16667   0.31492   0.00000  Uiso   1.00
O56    O     0.06067   0.16667   0.18508   0.00000  Uiso   1.00
O57    O     0.27846   0.21001   0.03817   0.00000  Uiso   1.00
C58    C     0.27884   0.25311   0.04427   0.00000  Uiso   1.00
H59    H     0.24533   0.26292   0.07030   0.00000  Uiso   1.00
H60    H     0.28385   0.27023   0.01274   0.00000  Uiso   1.00
H61    H     0.30986   0.26158   0.05564   0.00000  Uiso   1.00
O62    O     0.05686   0.20970   0.46069   0.00000  Uiso   1.00
C63    C     0.05852   0.25283   0.45403   0.00000  Uiso   1.00
H64    H     0.09264   0.26300   0.42804   0.00000  Uiso   1.00
H65    H     0.05409   0.26979   0.48538   0.00000  Uiso   1.00
H66    H     0.02804   0.26112   0.44234   0.00000  Uiso   1.00
C67    C     0.25113   0.29185   0.31351   0.00000  Uiso   1.00
O68    O     0.21083   0.30630   0.32180   0.00000  Uiso   1.00
O69    O     0.25743   0.25717   0.33683   0.00000  Uiso   1.00
H70    H     0.22586   0.24717   0.35933   0.00000  Uiso   1.00
C71    C     0.08072   0.04206   0.18426   0.00000  Uiso   1.00
O72    O     0.12114   0.02750   0.17383   0.00000  Uiso   1.00
O73    O     0.07302   0.07729   0.16238   0.00000  Uiso   1.00
H74    H     0.10373   0.08825   0.13929   0.00000  Uiso   1.00
C75    C     0.19419   0.10191   0.29564   0.00000  Uiso   1.00
O76    O     0.19139   0.06645   0.28349   0.00000  Uiso   1.00
O77    O     0.20387   0.10960   0.33497   0.00000  Uiso   1.00
H78    H     0.20891   0.08345   0.35019   0.00000  Uiso   1.00
C79    C     0.13865   0.23279   0.20656   0.00000  Uiso   1.00
O80    O     0.14163   0.26774   0.21998   0.00000  Uiso   1.00
O81    O     0.12831   0.22668   0.16736   0.00000  Uiso   1.00
H82    H     0.12490   0.25344   0.15230   0.00000  Uiso   1.00
C83    C     0.33351   0.08771   0.24849   0.00000  Uiso   1.00
C84    C     0.66651   0.24569   0.25136   0.00000  Uiso   1.00
C85    C     0.52868   0.20070   0.04343   0.00000  Uiso   1.00
C86    C     0.47280   0.20054   0.45558   0.00000  Uiso   1.00
C87    C     0.57749   0.19957   0.01867   0.00000  Uiso   1.00
C88    C     0.42393   0.19947   0.48044   0.00000  Uiso   1.00
C89    C     0.62764   0.02176   0.27688   0.00000  Uiso   1.00
C90    C     0.37235   0.31182   0.22254   0.00000  Uiso   1.00
C91    C     0.62664   0.31225   0.28001   0.00000  Uiso   1.00
C92    C     0.37300   0.02136   0.21894   0.00000  Uiso   1.00
C93    C     0.66650   0.29050   0.25252   0.00000  Uiso   1.00
C94    C     0.33348   0.04301   0.24699   0.00000  Uiso   1.00
C95    C     0.51557   0.13602   0.27104   0.00000  Uiso   1.00
C96    C     0.48429   0.19763   0.22952   0.00000  Uiso   1.00
C97    C     0.46683   0.13609   0.27048   0.00000  Uiso   1.00
C98    C     0.53317   0.19728   0.22963   0.00000  Uiso   1.00
C99    C     0.63826   0.16656   0.33547   0.00000  Uiso   1.00
C100   C     0.36171   0.16681   0.16452   0.00000  Uiso   1.00
C101   C     0.62090   0.16966   0.38372   0.00000  Uiso   1.00
C102   C     0.37906   0.16998   0.11618   0.00000  Uiso   1.00
C103   C     0.63710   0.17180   0.45268   0.00000  Uiso   1.00
C104   C     0.36264   0.17231   0.04731   0.00000  Uiso   1.00
C105   C     0.65270   0.16469   0.40759   0.00000  Uiso   1.00
C106   C     0.34673   0.16541   0.09258   0.00000  Uiso   1.00
C107   C     0.57243   0.17854   0.40617   0.00000  Uiso   1.00
C108   C     0.42807   0.17834   0.09328   0.00000  Uiso   1.00
C109   C     0.55686   0.18746   0.45172   0.00000  Uiso   1.00
C110   C     0.44397   0.18748   0.04760   0.00000  Uiso   1.00
C111   C     0.59094   0.18655   0.47446   0.00000  Uiso   1.00
C112   C     0.40974   0.18673   0.02501   0.00000  Uiso   1.00
C113   C     0.50789   0.19436   0.47609   0.00000  Uiso   1.00
C114   C     0.49330   0.19436   0.02303   0.00000  Uiso   1.00
Cu115  Cu    0.38022   0.16667   0.25000   0.00000  Uiso   1.00
Cu116  Cu    0.61978   0.16666   0.25000   0.00000  Uiso   1.00
H117   H     0.45332   0.17646   0.11131   0.00000  Uiso   1.00
H118   H     0.54745   0.17789   0.38768   0.00000  Uiso   1.00
H119   H     0.64264   0.15595   0.10890   0.00000  Uiso   1.00
H120   H     0.35614   0.15491   0.39161   0.00000  Uiso   1.00
H121   H     0.66051   0.16332   0.47039   0.00000  Uiso   1.00
H122   H     0.33861   0.16389   0.02991   0.00000  Uiso   1.00
H123   H     0.51945   0.20758   0.07823   0.00000  Uiso   1.00
H124   H     0.48231   0.20726   0.42062   0.00000  Uiso   1.00
H125   H     0.59871   0.03889   0.29945   0.00000  Uiso   1.00
H126   H     0.40135   0.29473   0.20012   0.00000  Uiso   1.00
H127   H     0.44160   0.11168   0.28737   0.00000  Uiso   1.00
H128   H     0.55837   0.22177   0.21289   0.00000  Uiso   1.00
N129   N     0.45069   0.16668   0.24999   0.00000  Uiso   1.00
N130   N     0.54931   0.16666   0.25001   0.00000  Uiso   1.00
O131   O     0.37291   0.10655   0.25000   0.00000  Uiso   1.00
O132   O     0.62709   0.22678   0.25000   0.00000  Uiso   1.00
O133   O     0.62706   0.10654   0.25000   0.00000  Uiso   1.00
O134   O     0.37294   0.22679   0.24999   0.00000  Uiso   1.00
O135   O     0.35186   0.16668   0.31491   0.00000  Uiso   1.00
O136   O     0.64814   0.16666   0.18508   0.00000  Uiso   1.00
O137   O     0.60600   0.16667   0.31492   0.00000  Uiso   1.00
O138   O     0.39400   0.16667   0.18508   0.00000  Uiso   1.00
O139   O     0.61179   0.21001   0.03817   0.00000  Uiso   1.00
C140   C     0.61218   0.25311   0.04427   0.00000  Uiso   1.00
H141   H     0.57866   0.26292   0.07030   0.00000  Uiso   1.00
H142   H     0.61718   0.27023   0.01274   0.00000  Uiso   1.00
H143   H     0.64320   0.26158   0.05564   0.00000  Uiso   1.00
O144   O     0.39019   0.20970   0.46069   0.00000  Uiso   1.00
C145   C     0.39185   0.25283   0.45403   0.00000  Uiso   1.00
H146   H     0.42597   0.26300   0.42804   0.00000  Uiso   1.00
H147   H     0.38742   0.26979   0.48538   0.00000  Uiso   1.00
H148   H     0.36138   0.26112   0.44234   0.00000  Uiso   1.00
C149   C     0.58447   0.29185   0.31351   0.00000  Uiso   1.00
O150   O     0.54416   0.30630   0.32180   0.00000  Uiso   1.00
O151   O     0.59076   0.25717   0.33683   0.00000  Uiso   1.00
H152   H     0.55919   0.24717   0.35933   0.00000  Uiso   1.00
C153   C     0.41405   0.04206   0.18426   0.00000  Uiso   1.00
O154   O     0.45447   0.02750   0.17383   0.00000  Uiso   1.00
O155   O     0.40636   0.07729   0.16238   0.00000  Uiso   1.00
H156   H     0.43707   0.08825   0.13929   0.00000  Uiso   1.00
C157   C     0.52752   0.10191   0.29564   0.00000  Uiso   1.00
O158   O     0.52472   0.06645   0.28349   0.00000  Uiso   1.00
O159   O     0.53720   0.10960   0.33497   0.00000  Uiso   1.00
H160   H     0.54224   0.08345   0.35019   0.00000  Uiso   1.00
C161   C     0.47198   0.23279   0.20656   0.00000  Uiso   1.00
O162   O     0.47497   0.26774   0.21998   0.00000  Uiso   1.00
O163   O     0.46165   0.22668   0.16736   0.00000  Uiso   1.00
H164   H     0.45824   0.25344   0.15230   0.00000  Uiso   1.00
C165   C     0.66685   0.08771   0.24849   0.00000  Uiso   1.00
C166   C     0.99985   0.24569   0.25136   0.00000  Uiso   1.00
C167   C     0.86201   0.20070   0.04343   0.00000  Uiso   1.00
C168   C     0.80614   0.20054   0.45558   0.00000  Uiso   1.00
C169   C     0.91082   0.19957   0.01867   0.00000  Uiso   1.00
C170   C     0.75726   0.19947   0.48044   0.00000  Uiso   1.00
C171   C     0.96098   0.02176   0.27688   0.00000  Uiso   1.00
C172   C     0.70569   0.31182   0.22254   0.00000  Uiso   1.00
C173   C     0.95998   0.31225   0.28001   0.00000  Uiso   1.00
C174   C     0.70634   0.02136   0.21894   0.00000  Uiso   1.00
C175   C     0.99984   0.29050   0.25252   0.00000  Uiso   1.00
C176   C     0.66681   0.04301   0.24699   0.00000  Uiso   1.00
C177   C     0.84891   0.13602   0.27104   0.00000  Uiso   1.00
C178   C     0.81763   0.19763   0.22952   0.00000  Uiso   1.00
C179   C     0.80016   0.13609   0.27048   0.00000  Uiso   1.00
C180   C     0.86650   0.19728   0.22963   0.00000  Uiso   1.00
C181   C     0.97160   0.16656   0.33547   0.00000  Uiso   1.00
C182   C     0.69504   0.16681   0.16452   0.00000  Uiso   1.00
C183   C     0.95424   0.16966   0.38372   0.00000  Uiso   1.00
C184   C     0.71239   0.16998   0.11618   0.00000  Uiso   1.00
C185   C     0.97044   0.17180   0.45268   0.00000  Uiso   1.00
C186   C     0.69597   0.17231   0.04731   0.00000  Uiso   1.00
C187   C     0.98603   0.16469   0.40759   0.00000  Uiso   1.00
C188   C     0.68006   0.16541   0.09258   0.00000  Uiso   1.00
C189   C     0.90577   0.17854   0.40617   0.00000  Uiso   1.00
C190   C     0.76140   0.17834   0.09328   0.00000  Uiso   1.00
C191   C     0.89019   0.18746   0.45172   0.00000  Uiso   1.00
C192   C     0.77730   0.18748   0.04760   0.00000  Uiso   1.00
C193   C     0.92428   0.18655   0.47446   0.00000  Uiso   1.00
C194   C     0.74307   0.18673   0.02501   0.00000  Uiso   1.00
C195   C     0.84122   0.19436   0.47609   0.00000  Uiso   1.00
C196   C     0.82663   0.19436   0.02303   0.00000  Uiso   1.00
Cu197  Cu    0.71355   0.16667   0.25000   0.00000  Uiso   1.00
Cu198  Cu    0.95311   0.16666   0.25000   0.00000  Uiso   1.00
H199   H     0.78666   0.17646   0.11131   0.00000  Uiso   1.00
H200   H     0.88078   0.17789   0.38768   0.00000  Uiso   1.00
H201   H     0.97597   0.15595   0.10890   0.00000  Uiso   1.00
H202   H     0.68947   0.15491   0.39161   0.00000  Uiso   1.00
H203   H     0.99384   0.16332   0.47039   0.00000  Uiso   1.00
H204   H     0.67194   0.16389   0.02991   0.00000  Uiso   1.00
H205   H     0.85279   0.20758   0.07823   0.00000  Uiso   1.00
H206   H     0.81565   0.20726   0.42062   0.00000  Uiso   1.00
H207   H     0.93204   0.03889   0.29945   0.00000  Uiso   1.00
H208   H     0.73468   0.29473   0.20012   0.00000  Uiso   1.00
H209   H     0.77493   0.11168   0.28737   0.00000  Uiso   1.00
H210   H     0.89170   0.22177   0.21289   0.00000  Uiso   1.00
N211   N     0.78403   0.16668   0.24999   0.00000  Uiso   1.00
N212   N     0.88264   0.16666   0.25001   0.00000  Uiso   1.00
O213   O     0.70625   0.10655   0.25000   0.00000  Uiso   1.00
O214   O     0.96042   0.22678   0.25000   0.00000  Uiso   1.00
O215   O     0.96039   0.10654   0.25000   0.00000  Uiso   1.00
O216   O     0.70628   0.22679   0.24999   0.00000  Uiso   1.00
O217   O     0.68519   0.16668   0.31491   0.00000  Uiso   1.00
O218   O     0.98148   0.16666   0.18508   0.00000  Uiso   1.00
O219   O     0.93933   0.16667   0.31492   0.00000  Uiso   1.00
O220   O     0.72733   0.16667   0.18508   0.00000  Uiso   1.00
O221   O     0.94513   0.21001   0.03817   0.00000  Uiso   1.00
C222   C     0.94551   0.25311   0.04427   0.00000  Uiso   1.00
H223   H     0.91199   0.26292   0.07030   0.00000  Uiso   1.00
H224   H     0.95051   0.27023   0.01274   0.00000  Uiso   1.00
H225   H     0.97653   0.26158   0.05564   0.00000  Uiso   1.00
O226   O     0.72353   0.20970   0.46069   0.00000  Uiso   1.00
C227   C     0.72519   0.25283   0.45403   0.00000  Uiso   1.00
H228   H     0.75930   0.26300   0.42804   0.00000  Uiso   1.00
H229   H     0.72075   0.26979   0.48538   0.00000  Uiso   1.00
H230   H     0.69471   0.26112   0.44234   0.00000  Uiso   1.00
C231   C     0.91780   0.29185   0.31351   0.00000  Uiso   1.00
O232   O     0.87750   0.30630   0.32180   0.00000  Uiso   1.00
O233   O     0.92409   0.25717   0.33683   0.00000  Uiso   1.00
H234   H     0.89253   0.24717   0.35933   0.00000  Uiso   1.00
C235   C     0.74738   0.04206   0.18426   0.00000  Uiso   1.00
O236   O     0.78780   0.02750   0.17383   0.00000  Uiso   1.00
O237   O     0.73969   0.07729   0.16238   0.00000  Uiso   1.00
H238   H     0.77040   0.08825   0.13929   0.00000  Uiso   1.00
C239   C     0.86085   0.10191   0.29564   0.00000  Uiso   1.00
O240   O     0.85805   0.06645   0.28349   0.00000  Uiso   1.00
O241   O     0.87053   0.10960   0.33497   0.00000  Uiso   1.00
H242   H     0.87557   0.08345   0.35019   0.00000  Uiso   1.00
C243   C     0.80531   0.23279   0.20656   0.00000  Uiso   1.00
O244   O     0.80830   0.26774   0.21998   0.00000  Uiso   1.00
O245   O     0.79498   0.22668   0.16736   0.00000  Uiso   1.00
H246   H     0.79157   0.25344   0.15230   0.00000  Uiso   1.00
C247   C     0.00018   0.42104   0.24849   0.00000  Uiso   1.00
C248   C     0.33318   0.57902   0.25136   0.00000  Uiso   1.00
C249   C     0.19534   0.53404   0.04343   0.00000  Uiso   1.00
C250   C     0.13947   0.53388   0.45558   0.00000  Uiso   1.00
C251   C     0.24415   0.53290   0.01867   0.00000  Uiso   1.00
C252   C     0.09059   0.53280   0.48044   0.00000  Uiso   1.00
C253   C     0.29431   0.35510   0.27688   0.00000  Uiso   1.00
C254   C     0.03902   0.64515   0.22254   0.00000  Uiso   1.00
C255   C     0.29331   0.64558   0.28001   0.00000  Uiso   1.00
C256   C     0.03967   0.35470   0.21894   0.00000  Uiso   1.00
C257   C     0.33317   0.62384   0.25252   0.00000  Uiso   1.00
C258   C     0.00014   0.37634   0.24699   0.00000  Uiso   1.00
C259   C     0.18224   0.46935   0.27104   0.00000  Uiso   1.00
C260   C     0.15096   0.53097   0.22952   0.00000  Uiso   1.00
C261   C     0.13349   0.46943   0.27048   0.00000  Uiso   1.00
C262   C     0.19984   0.53062   0.22963   0.00000  Uiso   1.00
C263   C     0.30493   0.49990   0.33547   0.00000  Uiso   1.00
C264   C     0.02838   0.50015   0.16452   0.00000  Uiso   1.00
C265   C     0.28757   0.50299   0.38372   0.00000  Uiso   1.00
C266   C     0.04572   0.50331   0.11618   0.00000  Uiso   1.00
C267   C     0.30377   0.50513   0.45268   0.00000  Uiso   1.00
C268   C     0.02931   0.50564   0.04731   0.00000  Uiso   1.00
C269   C     0.31936   0.49802   0.40759   0.00000  Uiso   1.00
C270   C     0.01340   0.49874   0.09258   0.00000  Uiso   1.00
C271   C     0.23910   0.51187   0.40617   0.00000  Uiso   1.00
C272   C     0.09473   0.51167   0.09328   0.00000  Uiso   1.00
C273   C     0.22353   0.52079   0.45172   0.00000  Uiso   1.00
C274   C     0.11064   0.52081   0.04760   0.00000  Uiso   1.00
C275   C     0.25761   0.51988   0.47446   0.00000  Uiso   1.00
C276   C     0.07640   0.52006   0.02501   0.00000  Uiso   1.00
C277   C     0.17455   0.52769   0.47609   0.00000  Uiso   1.00
C278   C     0.15997   0.52770   0.02303   0.00000  Uiso   1.00
Cu279  Cu    0.04689   0.50001   0.25000   0.00000  Uiso   1.00
Cu280  Cu    0.28645   0.49999   0.25000   0.00000  Uiso   1.00
H281   H     0.11999   0.50979   0.11131   0.00000  Uiso   1.00
H282   H     0.21412   0.51122   0.38768   0.00000  Uiso   1.00
H283   H     0.30930   0.48928   0.10890   0.00000  Uiso   1.00
H284   H     0.02281   0.48824   0.39161   0.00000  Uiso   1.00
H285   H     0.32717   0.49666   0.47039   0.00000  Uiso   1.00
H286   H     0.00528   0.49722   0.02991   0.00000  Uiso   1.00
H287   H     0.18612   0.54091   0.07823   0.00000  Uiso   1.00
H288   H     0.14898   0.54060   0.42062   0.00000  Uiso   1.00
H289   H     0.26537   0.37222   0.29945   0.00000  Uiso   1.00
H290   H     0.06802   0.62806   0.20012   0.00000  Uiso   1.00
H291   H     0.10826   0.44502   0.28737   0.00000  Uiso   1.00
H292   H     0.22503   0.55510   0.21289   0.00000  Uiso   1.00
N293   N     0.11736   0.50001   0.24999   0.00000  Uiso   1.00
N294   N     0.21597   0.49999   0.25001   0.00000  Uiso   1.00
O295   O     0.03958   0.43989   0.25000   0.00000  Uiso   1.00
O296   O     0.29375   0.56011   0.25000   0.00000  Uiso   1.00
O297   O     0.29372   0.43988   0.25000   0.00000  Uiso   1.00
O298   O     0.03961   0.56012   0.24999   0.00000  Uiso   1.00
O299   O     0.01852   0.50001   0.31491   0.00000  Uiso   1.00
O300   O     0.31481   0.49999   0.18508   0.00000  Uiso   1.00
O301   O     0.27267   0.50000   0.31492   0.00000  Uiso   1.00
O302   O     0.06067   0.50000   0.18508   0.00000  Uiso   1.00
O303   O     0.27846   0.54335   0.03817   0.00000  Uiso   1.00
C304   C     0.27884   0.58644   0.04427   0.00000  Uiso   1.00
H305   H     0.24533   0.59626   0.07030   0.00000  Uiso   1.00
H306   H     0.28385   0.60357   0.01274   0.00000  Uiso   1.00
H307   H     0.30986   0.59492   0.05564   0.00000  Uiso   1.00
O308   O     0.05686   0.54303   0.46069   0.00000  Uiso   1.00
C309   C     0.05852   0.58616   0.45403   0.00000  Uiso   1.00
H310   H     0.09264   0.59633   0.42804   0.00000  Uiso   1.00
H311   H     0.05409   0.60312   0.48538   0.00000  Uiso   1.00
H312   H     0.02804   0.59446   0.44234   0.00000  Uiso   1.00
C313   C     0.25113   0.62518   0.31351   0.00000  Uiso   1.00
O314   O     0.21083   0.63963   0.32180   0.00000  Uiso   1.00
O315   O     0.25743   0.59051   0.33683   0.00000  Uiso   1.00
H316   H     0.22586   0.58050   0.35933   0.00000  Uiso   1.00
C317   C     0.08072   0.37539   0.18426   0.00000  Uiso   1.00
O318   O     0.12114   0.36083   0.17383   0.00000  Uiso   1.00
O319   O     0.07302   0.41063   0.16238   0.00000  Uiso   1.00
H320   H     0.10373   0.42158   0.13929   0.00000  Uiso   1.00
C321   C     0.19419   0.43524   0.29564   0.00000  Uiso   1.00
O322   O     0.19139   0.39979   0.28349   0.00000  Uiso   1.00
O323   O     0.20387   0.44293   0.33497   0.00000  Uiso   1.00
H324   H     0.20891   0.41678   0.35019   0.00000  Uiso   1.00
C325   C     0.13865   0.56612   0.20656   0.00000  Uiso   1.00
O326   O     0.14163   0.60108   0.21998   0.00000  Uiso   1.00
O327   O     0.12831   0.56002   0.16736   0.00000  Uiso   1.00
H328   H     0.12490   0.58677   0.15230   0.00000  Uiso   1.00
C329   C     0.33351   0.42104   0.24849   0.00000  Uiso   1.00
C330   C     0.66651   0.57902   0.25136   0.00000  Uiso   1.00
C331   C     0.52868   0.53404   0.04343   0.00000  Uiso   1.00
C332   C     0.47280   0.53388   0.45558   0.00000  Uiso   1.00
C333   C     0.57749   0.53290   0.01867   0.00000  Uiso   1.00
C334   C     0.42393   0.53280   0.48044   0.00000  Uiso   1.00
C335   C     0.62764   0.35510   0.27688   0.00000  Uiso   1.00
C336   C     0.37235   0.64515   0.22254   0.00000  Uiso   1.00
C337   C     0.62664   0.64558   0.28001   0.00000  Uiso   1.00
C338   C     0.37300   0.35470   0.21894   0.00000  Uiso   1.00
C339   C     0.66650   0.62384   0.25252   0.00000  Uiso   1.00
C340   C     0.33348   0.37634   0.24699   0.00000  Uiso   1.00
C341   C     0.51557   0.46935   0.27104   0.00000  Uiso   1.00
C342   C     0.48429   0.53097   0.22952   0.00000  Uiso   1.00
C343   C     0.46683   0.46943   0.27048   0.00000  Uiso   1.00
C344   C     0.53317   0.53062   0.22963   0.00000  Uiso   1.00
C345   C     0.63826   0.49990   0.33547   0.00000  Uiso   1.00
C346   C     0.36171   0.50015   0.16452   0.00000  Uiso   1.00
C347   C     0.62090   0.50299   0.38372   0.00000  Uiso   1.00
C348   C     0.37906   0.50331   0.11618   0.00000  Uiso   1.00
C349   C     0.63710   0.50513   0.45268   0.00000  Uiso   1.00
C350   C     0.36264   0.50564   0.04731   0.00000  Uiso   1.00
C351   C     0.65270   0.49802   0.40759   0.00000  Uiso   1.00
C352   C     0.34673   0.49874   0.09258   0.00000  Uiso   1.00
C353   C     0.57243   0.51187   0.40617   0.00000  Uiso   1.00
C354   C     0.42807   0.51167   0.09328   0.00000  Uiso   1.00
C355   C     0.55686   0.52079   0.45172   0.00000  Uiso   1.00
C356   C     0.44397   0.52081   0.04760   0.00000  Uiso   1.00
C357   C     0.59094   0.51988   0.47446   0.00000  Uiso   1.00
C358   C     0.40974   0.52006   0.02501   0.00000  Uiso   1.00
C359   C     0.50789   0.52769   0.47609   0.00000  Uiso   1.00
C360   C     0.49330   0.52770   0.02303   0.00000  Uiso   1.00
Cu361  Cu    0.38022   0.50001   0.25000   0.00000  Uiso   1.00
Cu362  Cu    0.61978   0.49999   0.25000   0.00000  Uiso   1.00
H363   H     0.45332   0.50979   0.11131   0.00000  Uiso   1.00
H364   H     0.54745   0.51122   0.38768   0.00000  Uiso   1.00
H365   H     0.64264   0.48928   0.10890   0.00000  Uiso   1.00
H366   H     0.35614   0.48824   0.39161   0.00000  Uiso   1.00
H367   H     0.66051   0.49666   0.47039   0.00000  Uiso   1.00
H368   H     0.33861   0.49722   0.02991   0.00000  Uiso   1.00
H369   H     0.51945   0.54091   0.07823   0.00000  Uiso   1.00
H370   H     0.48231   0.54060   0.42062   0.00000  Uiso   1.00
H371   H     0.59871   0.37222   0.29945   0.00000  Uiso   1.00
H372   H     0.40135   0.62806   0.20012   0.00000  Uiso   1.00
H373   H     0.44160   0.44502   0.28737   0.00000  Uiso   1.00
H374   H     0.55837   0.55510   0.21289   0.00000  Uiso   1.00
N375   N     0.45069   0.50001   0.24999   0.00000  Uiso   1.00
N376   N     0.54931   0.49999   0.25001   0.00000  Uiso   1.00
O377   O     0.37291   0.43989   0.25000   0.00000  Uiso   1.00
O378   O     0.62709   0.56011   0.25000   0.00000  Uiso   1.00
O379   O     0.62706   0.43988   0.25000   0.00000  Uiso   1.00
O380   O     0.37294   0.56012   0.24999   0.00000  Uiso   1.00
O381   O     0.35186   0.50001   0.31491   0.00000  Uiso   1.00
O382   O     0.64814   0.49999   0.18508   0.00000  Uiso   1.00
O383   O     0.60600   0.50000   0.31492   0.00000  Uiso   1.00
O384   O     0.39400   0.50000   0.18508   0.00000  Uiso   1.00
O385   O     0.61179   0.54335   0.03817   0.00000  Uiso   1.00
C386   C     0.61218   0.58644   0.04427   0.00000  Uiso   1.00
H387   H     0.57866   0.59626   0.07030   0.00000  Uiso   1.00
H388   H     0.61718   0.60357   0.01274   0.00000  Uiso   1.00
H389   H     0.64320   0.59492   0.05564   0.00000  Uiso   1.00
O390   O     0.39019   0.54303   0.46069   0.00000  Uiso   1.00
C391   C     0.39185   0.58616   0.45403   0.00000  Uiso   1.00
H392   H     0.42597   0.59633   0.42804   0.00000  Uiso   1.00
H393   H     0.38742   0.60312   0.48538   0.00000  Uiso   1.00
H394   H     0.36138   0.59446   0.44234   0.00000  Uiso   1.00
C395   C     0.58447   0.62518   0.31351   0.00000  Uiso   1.00
O396   O     0.54416   0.63963   0.32180   0.00000  Uiso   1.00
O397   O     0.59076   0.59051   0.33683   0.00000  Uiso   1.00
H398   H     0.55919   0.58050   0.35933   0.00000  Uiso   1.00
C399   C     0.41405   0.37539   0.18426   0.00000  Uiso   1.00
O400   O     0.45447   0.36083   0.17383   0.00000  Uiso   1.00
O401   O     0.40636   0.41063   0.16238   0.00000  Uiso   1.00
H402   H     0.43707   0.42158   0.13929   0.00000  Uiso   1.00
C403   C     0.52752   0.43524   0.29564   0.00000  Uiso   1.00
O404   O     0.52472   0.39979   0.28349   0.00000  Uiso   1.00
O405   O     0.53720   0.44293   0.33497   0.00000  Uiso   1.00
H406   H     0.54224   0.41678   0.35019   0.00000  Uiso   1.00
C407   C     0.47198   0.56612   0.20656   0.00000  Uiso   1.00
O408   O     0.47497   0.60108   0.21998   0.00000  Uiso   1.00
O409   O     0.46165   0.56002   0.16736   0.00000  Uiso   1.00
H410   H     0.45824   0.58677   0.15230   0.00000  Uiso   1.00
C411   C     0.66685   0.42104   0.24849   0.00000  Uiso   1.00
C412   C     0.99985   0.57902   0.25136   0.00000  Uiso   1.00
C413   C     0.86201   0.53404   0.04343   0.00000  Uiso   1.00
C414   C     0.80614   0.53388   0.45558   0.00000  Uiso   1.00
C415   C     0.91082   0.53290   0.01867   0.00000  Uiso   1.00
C416   C     0.75726   0.53280   0.48044   0.00000  Uiso   1.00
C417   C     0.96098   0.35510   0.27688   0.00000  Uiso   1.00
C418   C     0.70569   0.64515   0.22254   0.00000  Uiso   1.00
C419   C     0.95998   0.64558   0.28001   0.00000  Uiso   1.00
C420   C     0.70634   0.35470   0.21894   0.00000  Uiso   1.00
C421   C     0.99984   0.62384   0.25252   0.00000  Uiso   1.00
C422   C     0.66681   0.37634   0.24699   0.00000  Uiso   1.00
C423   C     0.84891   0.46935   0.27104   0.00000  Uiso   1.00
C424   C     0.81763   0.53097   0.22952   0.00000  Uiso   1.00
C425   C     0.80016   0.46943   0.27048   0.00000  Uiso   1.00
C426   C     0.86650   0.53062   0.22963   0.00000  Uiso   1.00
C427   C     0.97160   0.49990   0.33547   0.00000  Uiso   1.00
C428   C     0.69504   0.50015   0.16452   0.00000  Uiso   1.00
C429   C     0.95424   0.50299   0.38372   0.00000  Uiso   1.00
C430   C     0.71239   0.50331   0.11618   0.00000  Uiso   1.00
C431   C     0.97044   0.50513   0.45268   0.00000  Uiso   1.00
C432   C     0.69597   0.50564   0.04731   0.00000  Uiso   1.00
C433   C     0.98603   0.49802   0.40759   0.00000  Uiso   1.00
C434   C     0.68006   0.49874   0.09258   0.00000  Uiso   1.00
C435   C     0.90577   0.51187   0.40617   0.00000  Uiso   1.00
C436   C     0.76140   0.51167   0.09328   0.00000  Uiso   1.00
C437   C     0.89019   0.52079   0.45172   0.00000  Uiso   1.00
C438   C     0.77730   0.52081   0.04760   0.00000  Uiso   1.00
C439   C     0.92428   0.51988   0.47446   0.00000  Uiso   1.00
C440   C     0.74307   0.52006   0.02501   0.00000  Uiso   1.00
C441   C     0.84122   0.52769   0.47609   0.00000  Uiso   1.00
C442   C     0.82663   0.52770   0.02303   0.00000  Uiso   1.00
Cu443  Cu    0.71355   0.50001   0.25000   0.00000  Uiso   1.00
Cu444  Cu    0.95311   0.49999   0.25000   0.00000  Uiso   1.00
H445   H     0.78666   0.50979   0.11131   0.00000  Uiso   1.00
H446   H     0.88078   0.51122   0.38768   0.00000  Uiso   1.00
H447   H     0.97597   0.48928   0.10890   0.00000  Uiso   1.00
H448   H     0.68947   0.48824   0.39161   0.00000  Uiso   1.00
H449   H     0.99384   0.49666   0.47039   0.00000  Uiso   1.00
H450   H     0.67194   0.49722   0.02991   0.00000  Uiso   1.00
H451   H     0.85279   0.54091   0.07823   0.00000  Uiso   1.00
H452   H     0.81565   0.54060   0.42062   0.00000  Uiso   1.00
H453   H     0.93204   0.37222   0.29945   0.00000  Uiso   1.00
H454   H     0.73468   0.62806   0.20012   0.00000  Uiso   1.00
H455   H     0.77493   0.44502   0.28737   0.00000  Uiso   1.00
H456   H     0.89170   0.55510   0.21289   0.00000  Uiso   1.00
N457   N     0.78403   0.50001   0.24999   0.00000  Uiso   1.00
N458   N     0.88264   0.49999   0.25001   0.00000  Uiso   1.00
O459   O     0.70625   0.43989   0.25000   0.00000  Uiso   1.00
O460   O     0.96042   0.56011   0.25000   0.00000  Uiso   1.00
O461   O     0.96039   0.43988   0.25000   0.00000  Uiso   1.00
O462   O     0.70628   0.56012   0.24999   0.00000  Uiso   1.00
O463   O     0.68519   0.50001   0.31491   0.00000  Uiso   1.00
O464   O     0.98148   0.49999   0.18508   0.00000  Uiso   1.00
O465   O     0.93933   0.50000   0.31492   0.00000  Uiso   1.00
O466   O     0.72733   0.50000   0.18508   0.00000  Uiso   1.00
O467   O     0.94513   0.54335   0.03817   0.00000  Uiso   1.00
C468   C     0.94551   0.58644   0.04427   0.00000  Uiso   1.00
H469   H     0.91199   0.59626   0.07030   0.00000  Uiso   1.00
H470   H     0.95051   0.60357   0.01274   0.00000  Uiso   1.00
H471   H     0.97653   0.59492   0.05564   0.00000  Uiso   1.00
O472   O     0.72353   0.54303   0.46069   0.00000  Uiso   1.00
C473   C     0.72519   0.58616   0.45403   0.00000  Uiso   1.00
H474   H     0.75930   0.59633   0.42804   0.00000  Uiso   1.00
H475   H     0.72075   0.60312   0.48538   0.00000  Uiso   1.00
H476   H     0.69471   0.59446   0.44234   0.00000  Uiso   1.00
C477   C     0.91780   0.62518   0.31351   0.00000  Uiso   1.00
O478   O     0.87750   0.63963   0.32180   0.00000  Uiso   1.00
O479   O     0.92409   0.59051   0.33683   0.00000  Uiso   1.00
H480   H     0.89253   0.58050   0.35933   0.00000  Uiso   1.00
C481   C     0.74738   0.37539   0.18426   0.00000  Uiso   1.00
O482   O     0.78780   0.36083   0.17383   0.00000  Uiso   1.00
O483   O     0.73969   0.41063   0.16238   0.00000  Uiso   1.00
H484   H     0.77040   0.42158   0.13929   0.00000  Uiso   1.00
C485   C     0.86085   0.43524   0.29564   0.00000  Uiso   1.00
O486   O     0.85805   0.39979   0.28349   0.00000  Uiso   1.00
O487   O     0.87053   0.44293   0.33497   0.00000  Uiso   1.00
H488   H     0.87557   0.41678   0.35019   0.00000  Uiso   1.00
C489   C     0.80531   0.56612   0.20656   0.00000  Uiso   1.00
O490   O     0.80830   0.60108   0.21998   0.00000  Uiso   1.00
O491   O     0.79498   0.56002   0.16736   0.00000  Uiso   1.00
H492   H     0.79157   0.58677   0.15230   0.00000  Uiso   1.00
C493   C     0.00018   0.75438   0.24849   0.00000  Uiso   1.00
C494   C     0.33318   0.91236   0.25136   0.00000  Uiso   1.00
C495   C     0.19534   0.86737   0.04343   0.00000  Uiso   1.00
C496   C     0.13947   0.86721   0.45558   0.00000  Uiso   1.00
C497   C     0.24415   0.86623   0.01867   0.00000  Uiso   1.00
C498   C     0.09059   0.86614   0.48044   0.00000  Uiso   1.00
C499   C     0.29431   0.68843   0.27688   0.00000  Uiso   1.00
C500   C     0.03902   0.97849   0.22254   0.00000  Uiso   1.00
C501   C     0.29331   0.97891   0.28001   0.00000  Uiso   1.00
C502   C     0.03967   0.68803   0.21894   0.00000  Uiso   1.00
C503   C     0.33317   0.95717   0.25252   0.00000  Uiso   1.00
C504   C     0.00014   0.70968   0.24699   0.00000  Uiso   1.00
C505   C     0.18224   0.80269   0.27104   0.00000  Uiso   1.00
C506   C     0.15096   0.86430   0.22952   0.00000  Uiso   1.00
C507   C     0.13349   0.80276   0.27048   0.00000  Uiso   1.00
C508   C     0.19984   0.86395   0.22963   0.00000  Uiso   1.00
C509   C     0.30493   0.83323   0.33547   0.00000  Uiso   1.00
C510   C     0.02838   0.83348   0.16452   0.00000  Uiso   1.00
C511   C     0.28757   0.83632   0.38372   0.00000  Uiso   1.00
C512   C     0.04572   0.83665   0.11618   0.00000  Uiso   1.00
C513   C     0.30377   0.83846   0.45268   0.00000  Uiso   1.00
C514   C     0.02931   0.83897   0.04731   0.00000  Uiso   1.00
C515   C     0.31936   0.83135   0.40759   0.00000  Uiso   1.00
C516   C     0.01340   0.83208   0.09258   0.00000  Uiso   1.00
C517   C     0.23910   0.84520   0.40617   0.00000  Uiso   1.00
C518   C     0.09473   0.84501   0.09328   0.00000  Uiso   1.00
C519   C     0.22353   0.85412   0.45172   0.00000  Uiso   1.00
C520   C     0.11064   0.85415   0.04760   0.00000  Uiso   1.00
C521   C     0.25761   0.85322   0.47446   0.00000  Uiso   1.00
C522   C     0.07640   0.85339   0.02501   0.00000  Uiso   1.00
C523   C     0.17455   0.86103   0.47609   0.00000  Uiso   1.00
C524   C     0.15997   0.86103   0.02303   0.00000  Uiso   1.00
Cu525  Cu    0.04689   0.83334   0.25000   0.00000  Uiso   1.00
Cu526  Cu    0.28645   0.83333   0.25000   0.00000  Uiso   1.00
H527   H     0.11999   0.84312   0.11131   0.00000  Uiso   1.00
H528   H     0.21412   0.84456   0.38768   0.00000  Uiso   1.00
H529   H     0.30930   0.82261   0.10890   0.00000  Uiso   1.00
H530   H     0.02281   0.82157   0.39161   0.00000  Uiso   1.00
H531   H     0.32717   0.82999   0.47039   0.00000  Uiso   1.00
H532   H     0.00528   0.83056   0.02991   0.00000  Uiso   1.00
H533   H     0.18612   0.87425   0.07823   0.00000  Uiso   1.00
H534   H     0.14898   0.87393   0.42062   0.00000  Uiso   1.00
H535   H     0.26537   0.70556   0.29945   0.00000  Uiso   1.00
H536   H     0.06802   0.96140   0.20012   0.00000  Uiso   1.00
H537   H     0.10826   0.77835   0.28737   0.00000  Uiso   1.00
H538   H     0.22503   0.88844   0.21289   0.00000  Uiso   1.00
N539   N     0.11736   0.83334   0.24999   0.00000  Uiso   1.00
N540   N     0.21597   0.83332   0.25001   0.00000  Uiso   1.00
O541   O     0.03958   0.77322   0.25000   0.00000  Uiso   1.00
O542   O     0.29375   0.89345   0.25000   0.00000  Uiso   1.00
O543   O     0.29372   0.77321   0.25000   0.00000  Uiso   1.00
O544   O     0.03961   0.89346   0.24999   0.00000  Uiso   1.00
O545   O     0.01852   0.83334   0.31491   0.00000  Uiso   1.00
O546   O     0.31481   0.83332   0.18508   0.00000  Uiso   1.00
O547   O     0.27267   0.83333   0.31492   0.00000  Uiso   1.00
O548   O     0.06067   0.83333   0.18508   0.00000  Uiso   1.00
O549   O     0.27846   0.87668   0.03817   0.00000  Uiso   1.00
C550   C     0.27884   0.91978   0.04427   0.00000  Uiso   1.00
H551   H     0.24533   0.92959   0.07030   0.00000  Uiso   1.00
H552   H     0.28385   0.93690   0.01274   0.00000  Uiso   1.00
H553   H     0.30986   0.92825   0.05564   0.00000  Uiso   1.00
O554   O     0.05686   0.87637   0.46069   0.00000  Uiso   1.00
C555   C     0.05852   0.91950   0.45403   0.00000  Uiso   1.00
H556   H     0.09264   0.92966   0.42804   0.00000  Uiso   1.00
H557   H     0.05409   0.93645   0.48538   0.00000  Uiso   1.00
H558   H     0.02804   0.92779   0.44234   0.00000  Uiso   1.00
C559   C     0.25113   0.95852   0.31351   0.00000  Uiso   1.00
O560   O     0.21083   0.97296   0.32180   0.00000  Uiso   1.00
O561   O     0.25743   0.92384   0.33683   0.00000  Uiso   1.00
H562   H     0.22586   0.91384   0.35933   0.00000  Uiso   1.00
C563   C     0.08072   0.70872   0.18426   0.00000  Uiso   1.00
O564   O     0.12114   0.69416   0.17383   0.00000  Uiso   1.00
O565   O     0.07302   0.74396   0.16238   0.00000  Uiso   1.00
H566   H     0.10373   0.75491   0.13929   0.00000  Uiso   1.00
C567   C     0.19419   0.76857   0.29564   0.00000  Uiso   1.00
O568   O     0.19139   0.73312   0.28349   0.00000  Uiso   1.00
O569   O     0.20387   0.77627   0.33497   0.00000  Uiso   1.00
H570   H     0.20891   0.75011   0.35019   0.00000  Uiso   1.00
C571   C     0.13865   0.89946   0.20656   0.00000  Uiso   1.00
O572   O     0.14163   0.93441   0.21998   0.00000  Uiso   1.00
O573   O     0.12831   0.89335   0.16736   0.00000  Uiso   1.00
H574   H     0.12490   0.92010   0.15230   0.00000  Uiso   1.00
C575   C     0.33351   0.75438   0.24849   0.00000  Uiso   1.00
C576   C     0.66651   0.91236   0.25136   0.00000  Uiso   1.00
C577   C     0.52868   0.86737   0.04343   0.00000  Uiso   1.00
C578   C     0.47280   0.86721   0.45558   0.00000  Uiso   1.00
C579   C     0.57749   0.86623   0.01867   0.00000  Uiso   1.00
C580   C     0.42393   0.86614   0.48044   0.00000  Uiso   1.00
C581   C     0.62764   0.68843   0.27688   0.00000  Uiso   1.00
C582   C     0.37235   0.97849   0.22254   0.00000  Uiso   1.00
C583   C     0.62664   0.97891   0.28001   0.00000  Uiso   1.00
C584   C     0.37300   0.68803   0.21894   0.00000  Uiso   1.00
C585   C     0.66650   0.95717   0.25252   0.00000  Uiso   1.00
C586   C     0.33348   0.70968   0.24699   0.00000  Uiso   1.00
C587   C     0.51557   0.80269   0.27104   0.00000  Uiso   1.00
C588   C     0.48429   0.86430   0.22952   0.00000  Uiso   1.00
C589   C     0.46683   0.80276   0.27048   0.00000  Uiso   1.00
C590   C     0.53317   0.86395   0.22963   0.00000  Uiso   1.00
C591   C     0.63826   0.83323   0.33547   0.00000  Uiso   1.00
C592   C     0.36171   0.83348   0.16452   0.00000  Uiso   1.00
C593   C     0.62090   0.83632   0.38372   0.00000  Uiso   1.00
C594   C     0.37906   0.83665   0.11618   0.00000  Uiso   1.00
C595   C     0.63710   0.83846   0.45268   0.00000  Uiso   1.00
C596   C     0.36264   0.83897   0.04731   0.00000  Uiso   1.00
C597   C     0.65270   0.83135   0.40759   0.00000  Uiso   1.00
C598   C     0.34673   0.83208   0.09258   0.00000  Uiso   1.00
C599   C     0.57243   0.84520   0.40617   0.00000  Uiso   1.00
C600   C     0.42807   0.84501   0.09328   0.00000  Uiso   1.00
C601   C     0.55686   0.85412   0.45172   0.00000  Uiso   1.00
C602   C     0.44397   0.85415   0.04760   0.00000  Uiso   1.00
C603   C     0.59094   0.85322   0.47446   0.00000  Uiso   1.00
C604   C     0.40974   0.85339   0.02501   0.00000  Uiso   1.00
C605   C     0.50789   0.86103   0.47609   0.00000  Uiso   1.00
C606   C     0.49330   0.86103   0.02303   0.00000  Uiso   1.00
Cu607  Cu    0.38022   0.83334   0.25000   0.00000  Uiso   1.00
Cu608  Cu    0.61978   0.83333   0.25000   0.00000  Uiso   1.00
H609   H     0.45332   0.84312   0.11131   0.00000  Uiso   1.00
H610   H     0.54745   0.84456   0.38768   0.00000  Uiso   1.00
H611   H     0.64264   0.82261   0.10890   0.00000  Uiso   1.00
H612   H     0.35614   0.82157   0.39161   0.00000  Uiso   1.00
H613   H     0.66051   0.82999   0.47039   0.00000  Uiso   1.00
H614   H     0.33861   0.83056   0.02991   0.00000  Uiso   1.00
H615   H     0.51945   0.87425   0.07823   0.00000  Uiso   1.00
H616   H     0.48231   0.87393   0.42062   0.00000  Uiso   1.00
H617   H     0.59871   0.70556   0.29945   0.00000  Uiso   1.00
H618   H     0.40135   0.96140   0.20012   0.00000  Uiso   1.00
H619   H     0.44160   0.77835   0.28737   0.00000  Uiso   1.00
H620   H     0.55837   0.88844   0.21289   0.00000  Uiso   1.00
N621   N     0.45069   0.83334   0.24999   0.00000  Uiso   1.00
N622   N     0.54931   0.83332   0.25001   0.00000  Uiso   1.00
O623   O     0.37291   0.77322   0.25000   0.00000  Uiso   1.00
O624   O     0.62709   0.89345   0.25000   0.00000  Uiso   1.00
O625   O     0.62706   0.77321   0.25000   0.00000  Uiso   1.00
O626   O     0.37294   0.89346   0.24999   0.00000  Uiso   1.00
O627   O     0.35186   0.83334   0.31491   0.00000  Uiso   1.00
O628   O     0.64814   0.83332   0.18508   0.00000  Uiso   1.00
O629   O     0.60600   0.83333   0.31492   0.00000  Uiso   1.00
O630   O     0.39400   0.83333   0.18508   0.00000  Uiso   1.00
O631   O     0.61179   0.87668   0.03817   0.00000  Uiso   1.00
C632   C     0.61218   0.91978   0.04427   0.00000  Uiso   1.00
H633   H     0.57866   0.92959   0.07030   0.00000  Uiso   1.00
H634   H     0.61718   0.93690   0.01274   0.00000  Uiso   1.00
H635   H     0.64320   0.92825   0.05564   0.00000  Uiso   1.00
O636   O     0.39019   0.87637   0.46069   0.00000  Uiso   1.00
C637   C     0.39185   0.91950   0.45403   0.00000  Uiso   1.00
H638   H     0.42597   0.92966   0.42804   0.00000  Uiso   1.00
H639   H     0.38742   0.93645   0.48538   0.00000  Uiso   1.00
H640   H     0.36138   0.92779   0.44234   0.00000  Uiso   1.00
C641   C     0.58447   0.95852   0.31351   0.00000  Uiso   1.00
O642   O     0.54416   0.97296   0.32180   0.00000  Uiso   1.00
O643   O     0.59076   0.92384   0.33683   0.00000  Uiso   1.00
H644   H     0.55919   0.91384   0.35933   0.00000  Uiso   1.00
C645   C     0.41405   0.70872   0.18426   0.00000  Uiso   1.00
O646   O     0.45447   0.69416   0.17383   0.00000  Uiso   1.00
O647   O     0.40636   0.74396   0.16238   0.00000  Uiso   1.00
H648   H     0.43707   0.75491   0.13929   0.00000  Uiso   1.00
C649   C     0.52752   0.76857   0.29564   0.00000  Uiso   1.00
O650   O     0.52472   0.73312   0.28349   0.00000  Uiso   1.00
O651   O     0.53720   0.77627   0.33497   0.00000  Uiso   1.00
H652   H     0.54224   0.75011   0.35019   0.00000  Uiso   1.00
C653   C     0.47198   0.89946   0.20656   0.00000  Uiso   1.00
O654   O     0.47497   0.93441   0.21998   0.00000  Uiso   1.00
O655   O     0.46165   0.89335   0.16736   0.00000  Uiso   1.00
H656   H     0.45824   0.92010   0.15230   0.00000  Uiso   1.00
C657   C     0.66685   0.75438   0.24849   0.00000  Uiso   1.00
C658   C     0.99985   0.91236   0.25136   0.00000  Uiso   1.00
C659   C     0.86201   0.86737   0.04343   0.00000  Uiso   1.00
C660   C     0.80614   0.86721   0.45558   0.00000  Uiso   1.00
C661   C     0.91082   0.86623   0.01867   0.00000  Uiso   1.00
C662   C     0.75726   0.86614   0.48044   0.00000  Uiso   1.00
C663   C     0.96098   0.68843   0.27688   0.00000  Uiso   1.00
C664   C     0.70569   0.97849   0.22254   0.00000  Uiso   1.00
C665   C     0.95998   0.97891   0.28001   0.00000  Uiso   1.00
C666   C     0.70634   0.68803   0.21894   0.00000  Uiso   1.00
C667   C     0.99984   0.95717   0.25252   0.00000  Uiso   1.00
C668   C     0.66681   0.70968   0.24699   0.00000  Uiso   1.00
C669   C     0.84891   0.80269   0.27104   0.00000  Uiso   1.00
C670   C     0.81763   0.86430   0.22952   0.00000  Uiso   1.00
C671   C     0.80016   0.80276   0.27048   0.00000  Uiso   1.00
C672   C     0.86650   0.86395   0.22963   0.00000  Uiso   1.00
C673   C     0.97160   0.83323   0.33547   0.00000  Uiso   1.00
C674   C     0.69504   0.83348   0.16452   0.00000  Uiso   1.00
C675   C     0.95424   0.83632   0.38372   0.00000  Uiso   1.00
C676   C     0.71239   0.83665   0.11618   0.00000  Uiso   1.00
C677   C     0.97044   0.83846   0.45268   0.00000  Uiso   1.00
C678   C     0.69597   0.83897   0.04731   0.00000  Uiso   1.00
C679   C     0.98603   0.83135   0.40759   0.00000  Uiso   1.00
C680   C     0.68006   0.83208   0.09258   0.00000  Uiso   1.00
C681   C     0.90577   0.84520   0.40617   0.00000  Uiso   1.00
C682   C     0.76140   0.84501   0.09328   0.00000  Uiso   1.00
C683   C     0.89019   0.85412   0.45172   0.00000  Uiso   1.00
C684   C     0.77730   0.85415   0.04760   0.00000  Uiso   1.00
C685   C     0.92428   0.85322   0.47446   0.00000  Uiso   1.00
C686   C     0.74307   0.85339   0.02501   0.00000  Uiso   1.00
C687   C     0.84122   0.86103   0.47609   0.00000  Uiso   1.00
C688   C     0.82663   0.86103   0.02303   0.00000  Uiso   1.00
Cu689  Cu    0.71355   0.83334   0.25000   0.00000  Uiso   1.00
Cu690  Cu    0.95311   0.83333   0.25000   0.00000  Uiso   1.00
H691   H     0.78666   0.84312   0.11131   0.00000  Uiso   1.00
H692   H     0.88078   0.84456   0.38768   0.00000  Uiso   1.00
H693   H     0.97597   0.82261   0.10890   0.00000  Uiso   1.00
H694   H     0.68947   0.82157   0.39161   0.00000  Uiso   1.00
H695   H     0.99384   0.82999   0.47039   0.00000  Uiso   1.00
H696   H     0.67194   0.83056   0.02991   0.00000  Uiso   1.00
H697   H     0.85279   0.87425   0.07823   0.00000  Uiso   1.00
H698   H     0.81565   0.87393   0.42062   0.00000  Uiso   1.00
H699   H     0.93204   0.70556   0.29945   0.00000  Uiso   1.00
H700   H     0.73468   0.96140   0.20012   0.00000  Uiso   1.00
H701   H     0.77493   0.77835   0.28737   0.00000  Uiso   1.00
H702   H     0.89170   0.88844   0.21289   0.00000  Uiso   1.00
N703   N     0.78403   0.83334   0.24999   0.00000  Uiso   1.00
N704   N     0.88264   0.83332   0.25001   0.00000  Uiso   1.00
O705   O     0.70625   0.77322   0.25000   0.00000  Uiso   1.00
O706   O     0.96042   0.89345   0.25000   0.00000  Uiso   1.00
O707   O     0.96039   0.77321   0.25000   0.00000  Uiso   1.00
O708   O     0.70628   0.89346   0.24999   0.00000  Uiso   1.00
O709   O     0.68519   0.83334   0.31491   0.00000  Uiso   1.00
O710   O     0.98148   0.83332   0.18508   0.00000  Uiso   1.00
O711   O     0.93933   0.83333   0.31492   0.00000  Uiso   1.00
O712   O     0.72733   0.83333   0.18508   0.00000  Uiso   1.00
O713   O     0.94513   0.87668   0.03817   0.00000  Uiso   1.00
C714   C     0.94551   0.91978   0.04427   0.00000  Uiso   1.00
H715   H     0.91199   0.92959   0.07030   0.00000  Uiso   1.00
H716   H     0.95051   0.93690   0.01274   0.00000  Uiso   1.00
H717   H     0.97653   0.92825   0.05564   0.00000  Uiso   1.00
O718   O     0.72353   0.87637   0.46069   0.00000  Uiso   1.00
C719   C     0.72519   0.91950   0.45403   0.00000  Uiso   1.00
H720   H     0.75930   0.92966   0.42804   0.00000  Uiso   1.00
H721   H     0.72075   0.93645   0.48538   0.00000  Uiso   1.00
H722   H     0.69471   0.92779   0.44234   0.00000  Uiso   1.00
C723   C     0.91780   0.95852   0.31351   0.00000  Uiso   1.00
O724   O     0.87750   0.97296   0.32180   0.00000  Uiso   1.00
O725   O     0.92409   0.92384   0.33683   0.00000  Uiso   1.00
H726   H     0.89253   0.91384   0.35933   0.00000  Uiso   1.00
C727   C     0.74738   0.70872   0.18426   0.00000  Uiso   1.00
O728   O     0.78780   0.69416   0.17383   0.00000  Uiso   1.00
O729   O     0.73969   0.74396   0.16238   0.00000  Uiso   1.00
H730   H     0.77040   0.75491   0.13929   0.00000  Uiso   1.00
C731   C     0.86085   0.76857   0.29564   0.00000  Uiso   1.00
O732   O     0.85805   0.73312   0.28349   0.00000  Uiso   1.00
O733   O     0.87053   0.77627   0.33497   0.00000  Uiso   1.00
H734   H     0.87557   0.75011   0.35019   0.00000  Uiso   1.00
C735   C     0.80531   0.89946   0.20656   0.00000  Uiso   1.00
O736   O     0.80830   0.93441   0.21998   0.00000  Uiso   1.00
O737   O     0.79498   0.89335   0.16736   0.00000  Uiso   1.00
H738   H     0.79157   0.92010   0.15230   0.00000  Uiso   1.00
C739   C     0.00018   0.08771   0.74849   0.00000  Uiso   1.00
C740   C     0.33318   0.24569   0.75136   0.00000  Uiso   1.00
C741   C     0.19534   0.20070   0.54343   0.00000  Uiso   1.00
C742   C     0.13947   0.20054   0.95558   0.00000  Uiso   1.00
C743   C     0.24415   0.19957   0.51867   0.00000  Uiso   1.00
C744   C     0.09059   0.19947   0.98044   0.00000  Uiso   1.00
C745   C     0.29431   0.02176   0.77688   0.00000  Uiso   1.00
C746   C     0.03902   0.31182   0.72254   0.00000  Uiso   1.00
C747   C     0.29331   0.31225   0.78001   0.00000  Uiso   1.00
C748   C     0.03967   0.02136   0.71894   0.00000  Uiso   1.00
C749   C     0.33317   0.29050   0.75252   0.00000  Uiso   1.00
C750   C     0.00014   0.04301   0.74699   0.00000  Uiso   1.00
C751   C     0.18224   0.13602   0.77104   0.00000  Uiso   1.00
C752   C     0.15096   0.19763   0.72952   0.00000  Uiso   1.00
C753   C     0.13349   0.13609   0.77048   0.00000  Uiso   1.00
C754   C     0.19984   0.19728   0.72963   0.00000  Uiso   1.00
C755   C     0.30493   0.16656   0.83547   0.00000  Uiso   1.00
C756   C     0.02838   0.16681   0.66452   0.00000  Uiso   1.00
C757   C     0.28757   0.16966   0.88372   0.00000  Uiso   1.00
C758   C     0.04572   0.16998   0.61618   0.00000  Uiso   1.00
C759   C     0.30377   0.17180   0.95268   0.00000  Uiso   1.00
C760   C     0.02931   0.17231   0.54731   0.00000  Uiso   1.00
C761   C     0.31936   0.16469   0.90759   0.00000  Uiso   1.00
C762   C     0.01340   0.16541   0.59258   0.00000  Uiso   1.00
C763   C     0.23910   0.17854   0.90617   0.00000  Uiso   1.00
C764   C     0.09473   0.17834   0.59328   0.00000  Uiso   1.00
C765   C     0.22353   0.18746   0.95172   0.00000  Uiso   1.00
C766   C     0.11064   0.18748   0.54760   0.00000  Uiso   1.00
C767   C     0.25761   0.18655   0.97446   0.00000  Uiso   1.00
C768   C     0.07640   0.18673   0.52501   0.00000  Uiso   1.00
C769   C     0.17455   0.19436   0.97609   0.00000  Uiso   1.00
C770   C     0.15997   0.19436   0.52303   0.00000  Uiso   1.00
Cu771  Cu    0.04689   0.16667   0.75000   0.00000  Uiso   1.00
Cu772  Cu    0.28645   0.16666   0.75000   0.00000  Uiso   1.00
H773   H     0.11999   0.17646   0.61131   0.00000  Uiso   1.00
H774   H     0.21412   0.17789   0.88768   0.00000  Uiso   1.00
H775   H     0.30930   0.15595   0.60890   0.00000  Uiso   1.00
H776   H     0.02281   0.15491   0.89161   0.00000  Uiso   1.00
H777   H     0.32717   0.16332   0.97039   0.00000  Uiso   1.00
H778   H     0.00528   0.16389   0.52991   0.00000  Uiso   1.00
H779   H     0.18612   0.20758   0.57823   0.00000  Uiso   1.00
H780   H     0.14898   0.20726   0.92062   0.00000  Uiso   1.00
H781   H     0.26537   0.03889   0.79945   0.00000  Uiso   1.00
H782   H     0.06802   0.29473   0.70012   0.00000  Uiso   1.00
H783   H     0.10826   0.11168   0.78737   0.00000  Uiso   1.00
H784   H     0.22503   0.22177   0.71289   0.00000  Uiso   1.00
N785   N     0.11736   0.16668   0.74999   0.00000  Uiso   1.00
N786   N     0.21597   0.16666   0.75001   0.00000  Uiso   1.00
O787   O     0.03958   0.10655   0.75000   0.00000  Uiso   1.00
O788   O     0.29375   0.22678   0.75000   0.00000  Uiso   1.00
O789   O     0.29372   0.10654   0.75000   0.00000  Uiso   1.00
O790   O     0.03961   0.22679   0.74999   0.00000  Uiso   1.00
O791   O     0.01852   0.16668   0.81491   0.00000  Uiso   1.00
O792   O     0.31481   0.16666   0.68508   0.00000  Uiso   1.00
O793   O     0.27267   0.16667   0.81492   0.00000  Uiso   1.00
O794   O     0.06067   0.16667   0.68508   0.00000  Uiso   1.00
O795   O     0.27846   0.21001   0.53817   0.00000  Uiso   1.00
C796   C     0.27884   0.25311   0.54427   0.00000  Uiso   1.00
H797   H     0.24533   0.26292   0.57030   0.00000  Uiso   1.00
H798   H     0.28385   0.27023   0.51274   0.00000  Uiso   1.00
H799   H     0.30986   0.26158   0.55564   0.00000  Uiso   1.00
O800   O     0.05686   0.20970   0.96069   0.00000  Uiso   1.00
C801   C     0.05852   0.25283   0.95403   0.00000  Uiso   1.00
H802   H     0.09264   0.26300   0.92804   0.00000  Uiso   1.00
H803   H     0.05409   0.26979   0.98538   0.00000  Uiso   1.00
H804   H     0.02804   0.26112   0.94234   0.00000  Uiso   1.00
C805   C     0.25113   0.29185   0.81351   0.00000  Uiso   1.00
O806   O     0.21083   0.30630   0.82180   0.00000  Uiso   1.00
O807   O     0.25743   0.25717   0.83683   0.00000  Uiso   1.00
H808   H     0.22586   0.24717   0.85933   0.00000  Uiso   1.00
C809   C     0.08072   0.04206   0.68426   0.00000  Uiso   1.00
O810   O     0.12114   0.02750   0.67383   0.00000  Uiso   1.00
O811   O     0.07302   0.07729   0.66238   0.00000  Uiso   1.00
H812   H     0.10373   0.08825   0.63929   0.00000  Uiso   1.00
C813   C     0.19419   0.10191   0.79564   0.00000  Uiso   1.00
O814   O     0.19139   0.06645   0.78349   0.00000  Uiso   1.00
O815   O     0.20387   0.10960   0.83497   0.00000  Uiso   1.00
H816   H     0.20891   0.08345   0.85019   0.00000  Uiso   1.00
C817   C     0.13865   0.23279   0.70656   0.00000  Uiso   1.00
O818   O     0.14163   0.26774   0.71998   0.00000  Uiso   1.00
O819   O     0.12831   0.22668   0.66736   0.00000  Uiso   1.00
H820   H     0.12490   0.25344   0.65230   0.00000  Uiso   1.00
C821   C     0.33351   0.08771   0.74849   0.00000  Uiso   1.00
C822   C     0.66651   0.24569   0.75136   0.00000  Uiso   1.00
C823   C     0.52868   0.20070   0.54343   0.00000  Uiso   1.00
C824   C     0.47280   0.20054   0.95558   0.00000  Uiso   1.00
C825   C     0.57749   0.19957   0.51867   0.00000  Uiso   1.00
C826   C     0.42393   0.19947   0.98044   0.00000  Uiso   1.00
C827   C     0.62764   0.02176   0.77688   0.00000  Uiso   1.00
C828   C     0.37235   0.31182   0.72254   0.00000  Uiso   1.00
C829   C     0.62664   0.31225   0.78001   0.00000  Uiso   1.00
C830   C     0.37300   0.02136   0.71894   0.00000  Uiso   1.00
C831   C     0.66650   0.29050   0.75252   0.00000  Uiso   1.00
C832   C     0.33348   0.04301   0.74699   0.00000  Uiso   1.00
C833   C     0.51557   0.13602   0.77104   0.00000  Uiso   1.00
C834   C     0.48429   0.19763   0.72952   0.00000  Uiso   1.00
C835   C     0.46683   0.13609   0.77048   0.00000  Uiso   1.00
C836   C     0.53317   0.19728   0.72963   0.00000  Uiso   1.00
C837   C     0.63826   0.16656   0.83547   0.00000  Uiso   1.00
C838   C     0.36171   0.16681   0.66452   0.00000  Uiso   1.00
C839   C     0.62090   0.16966   0.88372   0.00000  Uiso   1.00
C840   C     0.37906   0.16998   0.61618   0.00000  Uiso   1.00
C841   C     0.63710   0.17180   0.95268   0.00000  Uiso   1.00
C842   C     0.36264   0.17231   0.54731   0.00000  Uiso   1.00
C843   C     0.65270   0.16469   0.90759   0.00000  Uiso   1.00
C844   C     0.34673   0.16541   0.59258   0.00000  Uiso   1.00
C845   C     0.57243   0.17854   0.90617   0.00000  Uiso   1.00
C846   C     0.42807   0.17834   0.59328   0.00000  Uiso   1.00
C847   C     0.55686   0.18746   0.95172   0.00000  Uiso   1.00
C848   C     0.44397   0.18748   0.54760   0.00000  Uiso   1.00
C849   C     0.59094   0.18655   0.97446   0.00000  Uiso   1.00
C850   C     0.40974   0.18673   0.52501   0.00000  Uiso   1.00
C851   C     0.50789   0.19436   0.97609   0.00000  Uiso   1.00
C852   C     0.49330   0.19436   0.52303   0.00000  Uiso   1.00
Cu853  Cu    0.38022   0.16667   0.75000   0.00000  Uiso   1.00
Cu854  Cu    0.61978   0.16666   0.75000   0.00000  Uiso   1.00
H855   H     0.45332   0.17646   0.61131   0.00000  Uiso   1.00
H856   H     0.54745   0.17789   0.88768   0.00000  Uiso   1.00
H857   H     0.64264   0.15595   0.60890   0.00000  Uiso   1.00
H858   H     0.35614   0.15491   0.89161   0.00000  Uiso   1.00
H859   H     0.66051   0.16332   0.97039   0.00000  Uiso   1.00
H860   H     0.33861   0.16389   0.52991   0.00000  Uiso   1.00
H861   H     0.51945   0.20758   0.57823   0.00000  Uiso   1.00
H862   H     0.48231   0.20726   0.92062   0.00000  Uiso   1.00
H863   H     0.59871   0.03889   0.79945   0.00000  Uiso   1.00
H864   H     0.40135   0.29473   0.70012   0.00000  Uiso   1.00
H865   H     0.44160   0.11168   0.78737   0.00000  Uiso   1.00
H866   H     0.55837   0.22177   0.71289   0.00000  Uiso   1.00
N867   N     0.45069   0.16668   0.74999   0.00000  Uiso   1.00
N868   N     0.54931   0.16666   0.75001   0.00000  Uiso   1.00
O869   O     0.37291   0.10655   0.75000   0.00000  Uiso   1.00
O870   O     0.62709   0.22678   0.75000   0.00000  Uiso   1.00
O871   O     0.62706   0.10654   0.75000   0.00000  Uiso   1.00
O872   O     0.37294   0.22679   0.74999   0.00000  Uiso   1.00
O873   O     0.35186   0.16668   0.81491   0.00000  Uiso   1.00
O874   O     0.64814   0.16666   0.68508   0.00000  Uiso   1.00
O875   O     0.60600   0.16667   0.81492   0.00000  Uiso   1.00
O876   O     0.39400   0.16667   0.68508   0.00000  Uiso   1.00
O877   O     0.61179   0.21001   0.53817   0.00000  Uiso   1.00
C878   C     0.61218   0.25311   0.54427   0.00000  Uiso   1.00
H879   H     0.57866   0.26292   0.57030   0.00000  Uiso   1.00
H880   H     0.61718   0.27023   0.51274   0.00000  Uiso   1.00
H881   H     0.64320   0.26158   0.55564   0.00000  Uiso   1.00
O882   O     0.39019   0.20970   0.96069   0.00000  Uiso   1.00
C883   C     0.39185   0.25283   0.95403   0.00000  Uiso   1.00
H884   H     0.42597   0.26300   0.92804   0.00000  Uiso   1.00
H885   H     0.38742   0.26979   0.98538   0.00000  Uiso   1.00
H886   H     0.36138   0.26112   0.94234   0.00000  Uiso   1.00
C887   C     0.58447   0.29185   0.81351   0.00000  Uiso   1.00
O888   O     0.54416   0.30630   0.82180   0.00000  Uiso   1.00
O889   O     0.59076   0.25717   0.83683   0.00000  Uiso   1.00
H890   H     0.55919   0.24717   0.85933   0.00000  Uiso   1.00
C891   C     0.41405   0.04206   0.68426   0.00000  Uiso   1.00
O892   O     0.45447   0.02750   0.67383   0.00000  Uiso   1.00
O893   O     0.40636   0.07729   0.66238   0.00000  Uiso   1.00
H894   H     0.43707   0.08825   0.63929   0.00000  Uiso   1.00
C895   C     0.52752   0.10191   0.79564   0.00000  Uiso   1.00
O896   O     0.52472   0.06645   0.78349   0.00000  Uiso   1.00
O897   O     0.53720   0.10960   0.83497   0.00000  Uiso   1.00
H898   H     0.54224   0.08345   0.85019   0.00000  Uiso   1.00
C899   C     0.47198   0.23279   0.70656   0.00000  Uiso   1.00
O900   O     0.47497   0.26774   0.71998   0.00000  Uiso   1.00
O901   O     0.46165   0.22668   0.66736   0.00000  Uiso   1.00
H902   H     0.45824   0.25344   0.65230   0.00000  Uiso   1.00
C903   C     0.66685   0.08771   0.74849   0.00000  Uiso   1.00
C904   C     0.99985   0.24569   0.75136   0.00000  Uiso   1.00
C905   C     0.86201   0.20070   0.54343   0.00000  Uiso   1.00
C906   C     0.80614   0.20054   0.95558   0.00000  Uiso   1.00
C907   C     0.91082   0.19957   0.51867   0.00000  Uiso   1.00
C908   C     0.75726   0.19947   0.98044   0.00000  Uiso   1.00
C909   C     0.96098   0.02176   0.77688   0.00000  Uiso   1.00
C910   C     0.70569   0.31182   0.72254   0.00000  Uiso   1.00
C911   C     0.95998   0.31225   0.78001   0.00000  Uiso   1.00
C912   C     0.70634   0.02136   0.71894   0.00000  Uiso   1.00
C913   C     0.99984   0.29050   0.75252   0.00000  Uiso   1.00
C914   C     0.66681   0.04301   0.74699   0.00000  Uiso   1.00
C915   C     0.84891   0.13602   0.77104   0.00000  Uiso   1.00
C916   C     0.81763   0.19763   0.72952   0.00000  Uiso   1.00
C917   C     0.80016   0.13609   0.77048   0.00000  Uiso   1.00
C918   C     0.86650   0.19728   0.72963   0.00000  Uiso   1.00
C919   C     0.97160   0.16656   0.83547   0.00000  Uiso   1.00
C920   C     0.69504   0.16681   0.66452   0.00000  Uiso   1.00
C921   C     0.95424   0.16966   0.88372   0.00000  Uiso   1.00
C922   C     0.71239   0.16998   0.61618   0.00000  Uiso   1.00
C923   C     0.97044   0.17180   0.95268   0.00000  Uiso   1.00
C924   C     0.69597   0.17231   0.54731   0.00000  Uiso   1.00
C925   C     0.98603   0.16469   0.90759   0.00000  Uiso   1.00
C926   C     0.68006   0.16541   0.59258   0.00000  Uiso   1.00
C927   C     0.90577   0.17854   0.90617   0.00000  Uiso   1.00
C928   C     0.76140   0.17834   0.59328   0.00000  Uiso   1.00
C929   C     0.89019   0.18746   0.95172   0.00000  Uiso   1.00
C930   C     0.77730   0.18748   0.54760   0.00000  Uiso   1.00
C931   C     0.92428   0.18655   0.97446   0.00000  Uiso   1.00
C932   C     0.74307   0.18673   0.52501   0.00000  Uiso   1.00
C933   C     0.84122   0.19436   0.97609   0.00000  Uiso   1.00
C934   C     0.82663   0.19436   0.52303   0.00000  Uiso   1.00
Cu935  Cu    0.71355   0.16667   0.75000   0.00000  Uiso   1.00
Cu936  Cu    0.95311   0.16666   0.75000   0.00000  Uiso   1.00
H937   H     0.78666   0.17646   0.61131   0.00000  Uiso   1.00
H938   H     0.88078   0.17789   0.88768   0.00000  Uiso   1.00
H939   H     0.97597   0.15595   0.60890   0.00000  Uiso   1.00
H940   H     0.68947   0.15491   0.89161   0.00000  Uiso   1.00
H941   H     0.99384   0.16332   0.97039   0.00000  Uiso   1.00
H942   H     0.67194   0.16389   0.52991   0.00000  Uiso   1.00
H943   H     0.85279   0.20758   0.57823   0.00000  Uiso   1.00
H944   H     0.81565   0.20726   0.92062   0.00000  Uiso   1.00
H945   H     0.93204   0.03889   0.79945   0.00000  Uiso   1.00
H946   H     0.73468   0.29473   0.70012   0.00000  Uiso   1.00
H947   H     0.77493   0.11168   0.78737   0.00000  Uiso   1.00
H948   H     0.89170   0.22177   0.71289   0.00000  Uiso   1.00
N949   N     0.78403   0.16668   0.74999   0.00000  Uiso   1.00
N950   N     0.88264   0.16666   0.75001   0.00000  Uiso   1.00
O951   O     0.70625   0.10655   0.75000   0.00000  Uiso   1.00
O952   O     0.96042   0.22678   0.75000   0.00000  Uiso   1.00
O953   O     0.96039   0.10654   0.75000   0.00000  Uiso   1.00
O954   O     0.70628   0.22679   0.74999   0.00000  Uiso   1.00
O955   O     0.68519   0.16668   0.81491   0.00000  Uiso   1.00
O956   O     0.98148   0.16666   0.68508   0.00000  Uiso   1.00
O957   O     0.93933   0.16667   0.81492   0.00000  Uiso   1.00
O958   O     0.72733   0.16667   0.68508   0.00000  Uiso   1.00
O959   O     0.94513   0.21001   0.53817   0.00000  Uiso   1.00
C960   C     0.94551   0.25311   0.54427   0.00000  Uiso   1.00
H961   H     0.91199   0.26292   0.57030   0.00000  Uiso   1.00
H962   H     0.95051   0.27023   0.51274   0.00000  Uiso   1.00
H963   H     0.97653   0.26158   0.55564   0.00000  Uiso   1.00
O964   O     0.72353   0.20970   0.96069   0.00000  Uiso   1.00
C965   C     0.72519   0.25283   0.95403   0.00000  Uiso   1.00
H966   H     0.75930   0.26300   0.92804   0.00000  Uiso   1.00
H967   H     0.72075   0.26979   0.98538   0.00000  Uiso   1.00
H968   H     0.69471   0.26112   0.94234   0.00000  Uiso   1.00
C969   C     0.91780   0.29185   0.81351   0.00000  Uiso   1.00
O970   O     0.87750   0.30630   0.82180   0.00000  Uiso   1.00
O971   O     0.92409   0.25717   0.83683   0.00000  Uiso   1.00
H972   H     0.89253   0.24717   0.85933   0.00000  Uiso   1.00
C973   C     0.74738   0.04206   0.68426   0.00000  Uiso   1.00
O974   O     0.78780   0.02750   0.67383   0.00000  Uiso   1.00
O975   O     0.73969   0.07729   0.66238   0.00000  Uiso   1.00
H976   H     0.77040   0.08825   0.63929   0.00000  Uiso   1.00
C977   C     0.86085   0.10191   0.79564   0.00000  Uiso   1.00
O978   O     0.85805   0.06645   0.78349   0.00000  Uiso   1.00
O979   O     0.87053   0.10960   0.83497   0.00000  Uiso   1.00
H980   H     0.87557   0.08345   0.85019   0.00000  Uiso   1.00
C981   C     0.80531   0.23279   0.70656   0.00000  Uiso   1.00
O982   O     0.80830   0.26774   0.71998   0.00000  Uiso   1.00
O983   O     0.79498   0.22668   0.66736   0.00000  Uiso   1.00
H984   H     0.79157   0.25344   0.65230   0.00000  Uiso   1.00
C985   C     0.00018   0.42104   0.74849   0.00000  Uiso   1.00
C986   C     0.33318   0.57902   0.75136   0.00000  Uiso   1.00
C987   C     0.19534   0.53404   0.54343   0.00000  Uiso   1.00
C988   C     0.13947   0.53388   0.95558   0.00000  Uiso   1.00
C989   C     0.24415   0.53290   0.51867   0.00000  Uiso   1.00
C990   C     0.09059   0.53280   0.98044   0.00000  Uiso   1.00
C991   C     0.29431   0.35510   0.77688   0.00000  Uiso   1.00
C992   C     0.03902   0.64515   0.72254   0.00000  Uiso   1.00
C993   C     0.29331   0.64558   0.78001   0.00000  Uiso   1.00
C994   C     0.03967   0.35470   0.71894   0.00000  Uiso   1.00
C995   C     0.33317   0.62384   0.75252   0.00000  Uiso   1.00
C996   C     0.00014   0.37634   0.74699   0.00000  Uiso   1.00
C997   C     0.18224   0.46935   0.77104   0.00000  Uiso   1.00
C998   C     0.15096   0.53097   0.72952   0.00000  Uiso   1.00
C999   C     0.13349   0.46943   0.77048   0.00000  Uiso   1.00
C1000  C     0.19984   0.53062   0.72963   0.00000  Uiso   1.00
C1001  C     0.30493   0.49990   0.83547   0.00000  Uiso   1.00
C1002  C     0.02838   0.50015   0.66452   0.00000  Uiso   1.00
C1003  C     0.28757   0.50299   0.88372   0.00000  Uiso   1.00
C1004  C     0.04572   0.50331   0.61618   0.00000  Uiso   1.00
C1005  C     0.30377   0.50513   0.95268   0.00000  Uiso   1.00
C1006  C     0.02931   0.50564   0.54731   0.00000  Uiso   1.00
C1007  C     0.31936   0.49802   0.90759   0.00000  Uiso   1.00
C1008  C     0.01340   0.49874   0.59258   0.00000  Uiso   1.00
C1009  C     0.23910   0.51187   0.90617   0.00000  Uiso   1.00
C1010  C     0.09473   0.51167   0.59328   0.00000  Uiso   1.00
C1011  C     0.22353   0.52079   0.95172   0.00000  Uiso   1.00
C1012  C     0.11064   0.52081   0.54760   0.00000  Uiso   1.00
C1013  C     0.25761   0.51988   0.97446   0.00000  Uiso   1.00
C1014  C     0.07640   0.52006   0.52501   0.00000  Uiso   1.00
C1015  C     0.17455   0.52769   0.97609   0.00000  Uiso   1.00
C1016  C     0.15997   0.52770   0.52303   0.00000  Uiso   1.00
Cu1017 Cu    0.04689   0.50001   0.75000   0.00000  Uiso   1.00
Cu1018 Cu    0.28645   0.49999   0.75000   0.00000  Uiso   1.00
H1019  H     0.11999   0.50979   0.61131   0.00000  Uiso   1.00
H1020  H     0.21412   0.51122   0.88768   0.00000  Uiso   1.00
H1021  H     0.30930   0.48928   0.60890   0.00000  Uiso   1.00
H1022  H     0.02281   0.48824   0.89161   0.00000  Uiso   1.00
H1023  H     0.32717   0.49666   0.97039   0.00000  Uiso   1.00
H1024  H     0.00528   0.49722   0.52991   0.00000  Uiso   1.00
H1025  H     0.18612   0.54091   0.57823   0.00000  Uiso   1.00
H1026  H     0.14898   0.54060   0.92062   0.00000  Uiso   1.00
H1027  H     0.26537   0.37222   0.79945   0.00000  Uiso   1.00
H1028  H     0.06802   0.62806   0.70012   0.00000  Uiso   1.00
H1029  H     0.10826   0.44502   0.78737   0.00000  Uiso   1.00
H1030  H     0.22503   0.55510   0.71289   0.00000  Uiso   1.00
N1031  N     0.11736   0.50001   0.74999   0.00000  Uiso   1.00
N1032  N     0.21597   0.49999   0.75001   0.00000  Uiso   1.00
O1033  O     0.03958   0.43989   0.75000   0.00000  Uiso   1.00
O1034  O     0.29375   0.56011   0.75000   0.00000  Uiso   1.00
O1035  O     0.29372   0.43988   0.75000   0.00000  Uiso   1.00
O1036  O     0.03961   0.56012   0.74999   0.00000  Uiso   1.00
O1037  O     0.01852   0.50001   0.81491   0.00000  Uiso   1.00
O1038  O     0.31481   0.49999   0.68508   0.00000  Uiso   1.00
O1039  O     0.27267   0.50000   0.81492   0.00000  Uiso   1.00
O1040  O     0.06067   0.50000   0.68508   0.00000  Uiso   1.00
O1041  O     0.27846   0.54335   0.53817   0.00000  Uiso   1.00
C1042  C     0.27884   0.58644   0.54427   0.00000  Uiso   1.00
H1043  H     0.24533   0.59626   0.57030   0.00000  Uiso   1.00
H1044  H     0.28385   0.60357   0.51274   0.00000  Uiso   1.00
H1045  H     0.30986   0.59492   0.55564   0.00000  Uiso   1.00
O1046  O     0.05686   0.54303   0.96069   0.00000  Uiso   1.00
C1047  C     0.05852   0.58616   0.95403   0.00000  Uiso   1.00
H1048  H     0.09264   0.59633   0.92804   0.00000  Uiso   1.00
H1049  H     0.05409   0.60312   0.98538   0.00000  Uiso   1.00
H1050  H     0.02804   0.59446   0.94234   0.00000  Uiso   1.00
C1051  C     0.25113   0.62518   0.81351   0.00000  Uiso   1.00
O1052  O     0.21083   0.63963   0.82180   0.00000  Uiso   1.00
O1053  O     0.25743   0.59051   0.83683   0.00000  Uiso   1.00
H1054  H     0.22586   0.58050   0.85933   0.00000  Uiso   1.00
C1055  C     0.08072   0.37539   0.68426   0.00000  Uiso   1.00
O1056  O     0.12114   0.36083   0.67383   0.00000  Uiso   1.00
O1057  O     0.07302   0.41063   0.66238   0.00000  Uiso   1.00
H1058  H     0.10373   0.42158   0.63929   0.00000  Uiso   1.00
C1059  C     0.19419   0.43524   0.79564   0.00000  Uiso   1.00
O1060  O     0.19139   0.39979   0.78349   0.00000  Uiso   1.00
O1061  O     0.20387   0.44293   0.83497   0.00000  Uiso   1.00
H1062  H     0.20891   0.41678   0.85019   0.00000  Uiso   1.00
C1063  C     0.13865   0.56612   0.70656   0.00000  Uiso   1.00
O1064  O     0.14163   0.60108   0.71998   0.00000  Uiso   1.00
O1065  O     0.12831   0.56002   0.66736   0.00000  Uiso   1.00
H1066  H     0.12490   0.58677   0.65230   0.00000  Uiso   1.00
C1067  C     0.33351   0.42104   0.74849   0.00000  Uiso   1.00
C1068  C     0.66651   0.57902   0.75136   0.00000  Uiso   1.00
C1069  C     0.52868   0.53404   0.54343   0.00000  Uiso   1.00
C1070  C     0.47280   0.53388   0.95558   0.00000  Uiso   1.00
C1071  C     0.57749   0.53290   0.51867   0.00000  Uiso   1.00
C1072  C     0.42393   0.53280   0.98044   0.00000  Uiso   1.00
C1073  C     0.62764   0.35510   0.77688   0.00000  Uiso   1.00
C1074  C     0.37235   0.64515   0.72254   0.00000  Uiso   1.00
C1075  C     0.62664   0.64558   0.78001   0.00000  Uiso   1.00
C1076  C     0.37300   0.35470   0.71894   0.00000  Uiso   1.00
C1077  C     0.66650   0.62384   0.75252   0.00000  Uiso   1.00
C1078  C     0.33348   0.37634   0.74699   0.00000  Uiso   1.00
C1079  C     0.51557   0.46935   0.77104   0.00000  Uiso   1.00
C1080  C     0.48429   0.53097   0.72952   0.00000  Uiso   1.00
C1081  C     0.46683   0.46943   0.77048   0.00000  Uiso   1.00
C1082  C     0.53317   0.53062   0.72963   0.00000  Uiso   1.00
C1083  C     0.63826   0.49990   0.83547   0.00000  Uiso   1.00
C1084  C     0.36171   0.50015   0.66452   0.00000  Uiso   1.00
C1085  C     0.62090   0.50299   0.88372   0.00000  Uiso   1.00
C1086  C     0.37906   0.50331   0.61618   0.00000  Uiso   1.00
C1087  C     0.63710   0.50513   0.95268   0.00000  Uiso   1.00
C1088  C     0.36264   0.50564   0.54731   0.00000  Uiso   1.00
C1089  C     0.65270   0.49802   0.90759   0.00000  Uiso   1.00
C1090  C     0.34673   0.49874   0.59258   0.00000  Uiso   1.00
C1091  C     0.57243   0.51187   0.90617   0.00000  Uiso   1.00
C1092  C     0.42807   0.51167   0.59328   0.00000  Uiso   1.00
C1093  C     0.55686   0.52079   0.95172   0.00000  Uiso   1.00
C1094  C     0.44397   0.52081   0.54760   0.00000  Uiso   1.00
C1095  C     0.59094   0.51988   0.97446   0.00000  Uiso   1.00
C1096  C     0.40974   0.52006   0.52501   0.00000  Uiso   1.00
C1097  C     0.50789   0.52769   0.97609   0.00000  Uiso   1.00
C1098  C     0.49330   0.52770   0.52303   0.00000  Uiso   1.00
Cu1099 Cu    0.38022   0.50001   0.75000   0.00000  Uiso   1.00
Cu1100 Cu    0.61978   0.49999   0.75000   0.00000  Uiso   1.00
H1101  H     0.45332   0.50979   0.61131   0.00000  Uiso   1.00
H1102  H     0.54745   0.51122   0.88768   0.00000  Uiso   1.00
H1103  H     0.64264   0.48928   0.60890   0.00000  Uiso   1.00
H1104  H     0.35614   0.48824   0.89161   0.00000  Uiso   1.00
H1105  H     0.66051   0.49666   0.97039   0.00000  Uiso   1.00
H1106  H     0.33861   0.49722   0.52991   0.00000  Uiso   1.00
H1107  H     0.51945   0.54091   0.57823   0.00000  Uiso   1.00
H1108  H     0.48231   0.54060   0.92062   0.00000  Uiso   1.00
H1109  H     0.59871   0.37222   0.79945   0.00000  Uiso   1.00
H1110  H     0.40135   0.62806   0.70012   0.00000  Uiso   1.00
H1111  H     0.44160   0.44502   0.78737   0.00000  Uiso   1.00
H1112  H     0.55837   0.55510   0.71289   0.00000  Uiso   1.00
N1113  N     0.45069   0.50001   0.74999   0.00000  Uiso   1.00
N1114  N     0.54931   0.49999   0.75001   0.00000  Uiso   1.00
O1115  O     0.37291   0.43989   0.75000   0.00000  Uiso   1.00
O1116  O     0.62709   0.56011   0.75000   0.00000  Uiso   1.00
O1117  O     0.62706   0.43988   0.75000   0.00000  Uiso   1.00
O1118  O     0.37294   0.56012   0.74999   0.00000  Uiso   1.00
O1119  O     0.35186   0.50001   0.81491   0.00000  Uiso   1.00
O1120  O     0.64814   0.49999   0.68508   0.00000  Uiso   1.00
O1121  O     0.60600   0.50000   0.81492   0.00000  Uiso   1.00
O1122  O     0.39400   0.50000   0.68508   0.00000  Uiso   1.00
O1123  O     0.61179   0.54335   0.53817   0.00000  Uiso   1.00
C1124  C     0.61218   0.58644   0.54427   0.00000  Uiso   1.00
H1125  H     0.57866   0.59626   0.57030   0.00000  Uiso   1.00
H1126  H     0.61718   0.60357   0.51274   0.00000  Uiso   1.00
H1127  H     0.64320   0.59492   0.55564   0.00000  Uiso   1.00
O1128  O     0.39019   0.54303   0.96069   0.00000  Uiso   1.00
C1129  C     0.39185   0.58616   0.95403   0.00000  Uiso   1.00
H1130  H     0.42597   0.59633   0.92804   0.00000  Uiso   1.00
H1131  H     0.38742   0.60312   0.98538   0.00000  Uiso   1.00
H1132  H     0.36138   0.59446   0.94234   0.00000  Uiso   1.00
C1133  C     0.58447   0.62518   0.81351   0.00000  Uiso   1.00
O1134  O     0.54416   0.63963   0.82180   0.00000  Uiso   1.00
O1135  O     0.59076   0.59051   0.83683   0.00000  Uiso   1.00
H1136  H     0.55919   0.58050   0.85933   0.00000  Uiso   1.00
C1137  C     0.41405   0.37539   0.68426   0.00000  Uiso   1.00
O1138  O     0.45447   0.36083   0.67383   0.00000  Uiso   1.00
O1139  O     0.40636   0.41063   0.66238   0.00000  Uiso   1.00
H1140  H     0.43707   0.42158   0.63929   0.00000  Uiso   1.00
C1141  C     0.52752   0.43524   0.79564   0.00000  Uiso   1.00
O1142  O     0.52472   0.39979   0.78349   0.00000  Uiso   1.00
O1143  O     0.53720   0.44293   0.83497   0.00000  Uiso   1.00
H1144  H     0.54224   0.41678   0.85019   0.00000  Uiso   1.00
C1145  C     0.47198   0.56612   0.70656   0.00000  Uiso   1.00
O1146  O     0.47497   0.60108   0.71998   0.00000  Uiso   1.00
O1147  O     0.46165   0.56002   0.66736   0.00000  Uiso   1.00
H1148  H     0.45824   0.58677   0.65230   0.00000  Uiso   1.00
C1149  C     0.66685   0.42104   0.74849   0.00000  Uiso   1.00
C1150  C     0.99985   0.57902   0.75136   0.00000  Uiso   1.00
C1151  C     0.86201   0.53404   0.54343   0.00000  Uiso   1.00
C1152  C     0.80614   0.53388   0.95558   0.00000  Uiso   1.00
C1153  C     0.91082   0.53290   0.51867   0.00000  Uiso   1.00
C1154  C     0.75726   0.53280   0.98044   0.00000  Uiso   1.00
C1155  C     0.96098   0.35510   0.77688   0.00000  Uiso   1.00
C1156  C     0.70569   0.64515   0.72254   0.00000  Uiso   1.00
C1157  C     0.95998   0.64558   0.78001   0.00000  Uiso   1.00
C1158  C     0.70634   0.35470   0.71894   0.00000  Uiso   1.00
C1159  C     0.99984   0.62384   0.75252   0.00000  Uiso   1.00
C1160  C     0.66681   0.37634   0.74699   0.00000  Uiso   1.00
C1161  C     0.84891   0.46935   0.77104   0.00000  Uiso   1.00
C1162  C     0.81763   0.53097   0.72952   0.00000  Uiso   1.00
C1163  C     0.80016   0.46943   0.77048   0.00000  Uiso   1.00
C1164  C     0.86650   0.53062   0.72963   0.00000  Uiso   1.00
C1165  C     0.97160   0.49990   0.83547   0.00000  Uiso   1.00
C1166  C     0.69504   0.50015   0.66452   0.00000  Uiso   1.00
C1167  C     0.95424   0.50299   0.88372   0.00000  Uiso   1.00
C1168  C     0.71239   0.50331   0.61618   0.00000  Uiso   1.00
C1169  C     0.97044   0.50513   0.95268   0.00000  Uiso   1.00
C1170  C     0.69597   0.50564   0.54731   0.00000  Uiso   1.00
C1171  C     0.98603   0.49802   0.90759   0.00000  Uiso   1.00
C1172  C     0.68006   0.49874   0.59258   0.00000  Uiso   1.00
C1173  C     0.90577   0.51187   0.90617   0.00000  Uiso   1.00
C1174  C     0.76140   0.51167   0.59328   0.00000  Uiso   1.00
C1175  C     0.89019   0.52079   0.95172   0.00000  Uiso   1.00
C1176  C     0.77730   0.52081   0.54760   0.00000  Uiso   1.00
C1177  C     0.92428   0.51988   0.97446   0.00000  Uiso   1.00
C1178  C     0.74307   0.52006   0.52501   0.00000  Uiso   1.00
C1179  C     0.84122   0.52769   0.97609   0.00000  Uiso   1.00
C1180  C     0.82663   0.52770   0.52303   0.00000  Uiso   1.00
Cu1181 Cu    0.71355   0.50001   0.75000   0.00000  Uiso   1.00
Cu1182 Cu    0.95311   0.49999   0.75000   0.00000  Uiso   1.00
H1183  H     0.78666   0.50979   0.61131   0.00000  Uiso   1.00
H1184  H     0.88078   0.51122   0.88768   0.00000  Uiso   1.00
H1185  H     0.97597   0.48928   0.60890   0.00000  Uiso   1.00
H1186  H     0.68947   0.48824   0.89161   0.00000  Uiso   1.00
H1187  H     0.99384   0.49666   0.97039   0.00000  Uiso   1.00
H1188  H     0.67194   0.49722   0.52991   0.00000  Uiso   1.00
H1189  H     0.85279   0.54091   0.57823   0.00000  Uiso   1.00
H1190  H     0.81565   0.54060   0.92062   0.00000  Uiso   1.00
H1191  H     0.93204   0.37222   0.79945   0.00000  Uiso   1.00
H1192  H     0.73468   0.62806   0.70012   0.00000  Uiso   1.00
H1193  H     0.77493   0.44502   0.78737   0.00000  Uiso   1.00
H1194  H     0.89170   0.55510   0.71289   0.00000  Uiso   1.00
N1195  N     0.78403   0.50001   0.74999   0.00000  Uiso   1.00
N1196  N     0.88264   0.49999   0.75001   0.00000  Uiso   1.00
O1197  O     0.70625   0.43989   0.75000   0.00000  Uiso   1.00
O1198  O     0.96042   0.56011   0.75000   0.00000  Uiso   1.00
O1199  O     0.96039   0.43988   0.75000   0.00000  Uiso   1.00
O1200  O     0.70628   0.56012   0.74999   0.00000  Uiso   1.00
O1201  O     0.68519   0.50001   0.81491   0.00000  Uiso   1.00
O1202  O     0.98148   0.49999   0.68508   0.00000  Uiso   1.00
O1203  O     0.93933   0.50000   0.81492   0.00000  Uiso   1.00
O1204  O     0.72733   0.50000   0.68508   0.00000  Uiso   1.00
O1205  O     0.94513   0.54335   0.53817   0.00000  Uiso   1.00
C1206  C     0.94551   0.58644   0.54427   0.00000  Uiso   1.00
H1207  H     0.91199   0.59626   0.57030   0.00000  Uiso   1.00
H1208  H     0.95051   0.60357   0.51274   0.00000  Uiso   1.00
H1209  H     0.97653   0.59492   0.55564   0.00000  Uiso   1.00
O1210  O     0.72353   0.54303   0.96069   0.00000  Uiso   1.00
C1211  C     0.72519   0.58616   0.95403   0.00000  Uiso   1.00
H1212  H     0.75930   0.59633   0.92804   0.00000  Uiso   1.00
H1213  H     0.72075   0.60312   0.98538   0.00000  Uiso   1.00
H1214  H     0.69471   0.59446   0.94234   0.00000  Uiso   1.00
C1215  C     0.91780   0.62518   0.81351   0.00000  Uiso   1.00
O1216  O     0.87750   0.63963   0.82180   0.00000  Uiso   1.00
O1217  O     0.92409   0.59051   0.83683   0.00000  Uiso   1.00
H1218  H     0.89253   0.58050   0.85933   0.00000  Uiso   1.00
C1219  C     0.74738   0.37539   0.68426   0.00000  Uiso   1.00
O1220  O     0.78780   0.36083   0.67383   0.00000  Uiso   1.00
O1221  O     0.73969   0.41063   0.66238   0.00000  Uiso   1.00
H1222  H     0.77040   0.42158   0.63929   0.00000  Uiso   1.00
C1223  C     0.86085   0.43524   0.79564   0.00000  Uiso   1.00
O1224  O     0.85805   0.39979   0.78349   0.00000  Uiso   1.00
O1225  O     0.87053   0.44293   0.83497   0.00000  Uiso   1.00
H1226  H     0.87557   0.41678   0.85019   0.00000  Uiso   1.00
C1227  C     0.80531   0.56612   0.70656   0.00000  Uiso   1.00
O1228  O     0.80830   0.60108   0.71998   0.00000  Uiso   1.00
O1229  O     0.79498   0.56002   0.66736   0.00000  Uiso   1.00
H1230  H     0.79157   0.58677   0.65230   0.00000  Uiso   1.00
C1231  C     0.00018   0.75438   0.74849   0.00000  Uiso   1.00
C1232  C     0.33318   0.91236   0.75136   0.00000  Uiso   1.00
C1233  C     0.19534   0.86737   0.54343   0.00000  Uiso   1.00
C1234  C     0.13947   0.86721   0.95558   0.00000  Uiso   1.00
C1235  C     0.24415   0.86623   0.51867   0.00000  Uiso   1.00
C1236  C     0.09059   0.86614   0.98044   0.00000  Uiso   1.00
C1237  C     0.29431   0.68843   0.77688   0.00000  Uiso   1.00
C1238  C     0.03902   0.97849   0.72254   0.00000  Uiso   1.00
C1239  C     0.29331   0.97891   0.78001   0.00000  Uiso   1.00
C1240  C     0.03967   0.68803   0.71894   0.00000  Uiso   1.00
C1241  C     0.33317   0.95717   0.75252   0.00000  Uiso   1.00
C1242  C     0.00014   0.70968   0.74699   0.00000  Uiso   1.00
C1243  C     0.18224   0.80269   0.77104   0.00000  Uiso   1.00
C1244  C     0.15096   0.86430   0.72952   0.00000  Uiso   1.00
C1245  C     0.13349   0.80276   0.77048   0.00000  Uiso   1.00
C1246  C     0.19984   0.86395   0.72963   0.00000  Uiso   1.00
C1247  C     0.30493   0.83323   0.83547   0.00000  Uiso   1.00
C1248  C     0.02838   0.83348   0.66452   0.00000  Uiso   1.00
C1249  C     0.28757   0.83632   0.88372   0.00000  Uiso   1.00
C1250  C     0.04572   0.83665   0.61618   0.00000  Uiso   1.00
C1251  C     0.30377   0.83846   0.95268   0.00000  Uiso   1.00
C1252  C     0.02931   0.83897   0.54731   0.00000  Uiso   1.00
C1253  C     0.31936   0.83135   0.90759   0.00000  Uiso   1.00
C1254  C     0.01340   0.83208   0.59258   0.00000  Uiso   1.00
C1255  C     0.23910   0.84520   0.90617   0.00000  Uiso   1.00
C1256  C     0.09473   0.84501   0.59328   0.00000  Uiso   1.00
C1257  C     0.22353   0.85412   0.95172   0.00000  Uiso   1.00
C1258  C     0.11064   0.85415   0.54760   0.00000  Uiso   1.00
C1259  C     0.25761   0.85322   0.97446   0.00000  Uiso   1.00
C1260  C     0.07640   0.85339   0.52501   0.00000  Uiso   1.00
C1261  C     0.17455   0.86103   0.97609   0.00000  Uiso   1.00
C1262  C     0.15997   0.86103   0.52303   0.00000  Uiso   1.00
Cu1263 Cu    0.04689   0.83334   0.75000   0.00000  Uiso   1.00
Cu1264 Cu    0.28645   0.83333   0.75000   0.00000  Uiso   1.00
H1265  H     0.11999   0.84312   0.61131   0.00000  Uiso   1.00
H1266  H     0.21412   0.84456   0.88768   0.00000  Uiso   1.00
H1267  H     0.30930   0.82261   0.60890   0.00000  Uiso   1.00
H1268  H     0.02281   0.82157   0.89161   0.00000  Uiso   1.00
H1269  H     0.32717   0.82999   0.97039   0.00000  Uiso   1.00
H1270  H     0.00528   0.83056   0.52991   0.00000  Uiso   1.00
H1271  H     0.18612   0.87425   0.57823   0.00000  Uiso   1.00
H1272  H     0.14898   0.87393   0.92062   0.00000  Uiso   1.00
H1273  H     0.26537   0.70556   0.79945   0.00000  Uiso   1.00
H1274  H     0.06802   0.96140   0.70012   0.00000  Uiso   1.00
H1275  H     0.10826   0.77835   0.78737   0.00000  Uiso   1.00
H1276  H     0.22503   0.88844   0.71289   0.00000  Uiso   1.00
N1277  N     0.11736   0.83334   0.74999   0.00000  Uiso   1.00
N1278  N     0.21597   0.83332   0.75001   0.00000  Uiso   1.00
O1279  O     0.03958   0.77322   0.75000   0.00000  Uiso   1.00
O1280  O     0.29375   0.89345   0.75000   0.00000  Uiso   1.00
O1281  O     0.29372   0.77321   0.75000   0.00000  Uiso   1.00
O1282  O     0.03961   0.89346   0.74999   0.00000  Uiso   1.00
O1283  O     0.01852   0.83334   0.81491   0.00000  Uiso   1.00
O1284  O     0.31481   0.83332   0.68508   0.00000  Uiso   1.00
O1285  O     0.27267   0.83333   0.81492   0.00000  Uiso   1.00
O1286  O     0.06067   0.83333   0.68508   0.00000  Uiso   1.00
O1287  O     0.27846   0.87668   0.53817   0.00000  Uiso   1.00
C1288  C     0.27884   0.91978   0.54427   0.00000  Uiso   1.00
H1289  H     0.24533   0.92959   0.57030   0.00000  Uiso   1.00
H1290  H     0.28385   0.93690   0.51274   0.00000  Uiso   1.00
H1291  H     0.30986   0.92825   0.55564   0.00000  Uiso   1.00
O1292  O     0.05686   0.87637   0.96069   0.00000  Uiso   1.00
C1293  C     0.05852   0.91950   0.95403   0.00000  Uiso   1.00
H1294  H     0.09264   0.92966   0.92804   0.00000  Uiso   1.00
H1295  H     0.05409   0.93645   0.98538   0.00000  Uiso   1.00
H1296  H     0.02804   0.92779   0.94234   0.00000  Uiso   1.00
C1297  C     0.25113   0.95852   0.81351   0.00000  Uiso   1.00
O1298  O     0.21083   0.97296   0.82180   0.00000  Uiso   1.00
O1299  O     0.25743   0.92384   0.83683   0.00000  Uiso   1.00
H1300  H     0.22586   0.91384   0.85933   0.00000  Uiso   1.00
C1301  C     0.08072   0.70872   0.68426   0.00000  Uiso   1.00
O1302  O     0.12114   0.69416   0.67383   0.00000  Uiso   1.00
O1303  O     0.07302   0.74396   0.66238   0.00000  Uiso   1.00
H1304  H     0.10373   0.75491   0.63929   0.00000  Uiso   1.00
C1305  C     0.19419   0.76857   0.79564   0.00000  Uiso   1.00
O1306  O     0.19139   0.73312   0.78349   0.00000  Uiso   1.00
O1307  O     0.20387   0.77627   0.83497   0.00000  Uiso   1.00
H1308  H     0.20891   0.75011   0.85019   0.00000  Uiso   1.00
C1309  C     0.13865   0.89946   0.70656   0.00000  Uiso   1.00
O1310  O     0.14163   0.93441   0.71998   0.00000  Uiso   1.00
O1311  O     0.12831   0.89335   0.66736   0.00000  Uiso   1.00
H1312  H     0.12490   0.92010   0.65230   0.00000  Uiso   1.00
C1313  C     0.33351   0.75438   0.74849   0.00000  Uiso   1.00
C1314  C     0.66651   0.91236   0.75136   0.00000  Uiso   1.00
C1315  C     0.52868   0.86737   0.54343   0.00000  Uiso   1.00
C1316  C     0.47280   0.86721   0.95558   0.00000  Uiso   1.00
C1317  C     0.57749   0.86623   0.51867   0.00000  Uiso   1.00
C1318  C     0.42393   0.86614   0.98044   0.00000  Uiso   1.00
C1319  C     0.62764   0.68843   0.77688   0.00000  Uiso   1.00
C1320  C     0.37235   0.97849   0.72254   0.00000  Uiso   1.00
C1321  C     0.62664   0.97891   0.78001   0.00000  Uiso   1.00
C1322  C     0.37300   0.68803   0.71894   0.00000  Uiso   1.00
C1323  C     0.66650   0.95717   0.75252   0.00000  Uiso   1.00
C1324  C     0.33348   0.70968   0.74699   0.00000  Uiso   1.00
C1325  C     0.51557   0.80269   0.77104   0.00000  Uiso   1.00
C1326  C     0.48429   0.86430   0.72952   0.00000  Uiso   1.00
C1327  C     0.46683   0.80276   0.77048   0.00000  Uiso   1.00
C1328  C     0.53317   0.86395   0.72963   0.00000  Uiso   1.00
C1329  C     0.63826   0.83323   0.83547   0.00000  Uiso   1.00
C1330  C     0.36171   0.83348   0.66452   0.00000  Uiso   1.00
C1331  C     0.62090   0.83632   0.88372   0.00000  Uiso   1.00
C1332  C     0.37906   0.83665   0.61618   0.00000  Uiso   1.00
C1333  C     0.63710   0.83846   0.95268   0.00000  Uiso   1.00
C1334  C     0.36264   0.83897   0.54731   0.00000  Uiso   1.00
C1335  C     0.65270   0.83135   0.90759   0.00000  Uiso   1.00
C1336  C     0.34673   0.83208   0.59258   0.00000  Uiso   1.00
C1337  C     0.57243   0.84520   0.90617   0.00000  Uiso   1.00
C1338  C     0.42807   0.84501   0.59328   0.00000  Uiso   1.00
C1339  C     0.55686   0.85412   0.95172   0.00000  Uiso   1.00
C1340  C     0.44397   0.85415   0.54760   0.00000  Uiso   1.00
C1341  C     0.59094   0.85322   0.97446   0.00000  Uiso   1.00
C1342  C     0.40974   0.85339   0.52501   0.00000  Uiso   1.00
C1343  C     0.50789   0.86103   0.97609   0.00000  Uiso   1.00
C1344  C     0.49330   0.86103   0.52303   0.00000  Uiso   1.00
Cu1345 Cu    0.38022   0.83334   0.75000   0.00000  Uiso   1.00
Cu1346 Cu    0.61978   0.83333   0.75000   0.00000  Uiso   1.00
H1347  H     0.45332   0.84312   0.61131   0.00000  Uiso   1.00
H1348  H     0.54745   0.84456   0.88768   0.00000  Uiso   1.00
H1349  H     0.64264   0.82261   0.60890   0.00000  Uiso   1.00
H1350  H     0.35614   0.82157   0.89161   0.00000  Uiso   1.00
H1351  H     0.66051   0.82999   0.97039   0.00000  Uiso   1.00
H1352  H     0.33861   0.83056   0.52991   0.00000  Uiso   1.00
H1353  H     0.51945   0.87425   0.57823   0.00000  Uiso   1.00
H1354  H     0.48231   0.87393   0.92062   0.00000  Uiso   1.00
H1355  H     0.59871   0.70556   0.79945   0.00000  Uiso   1.00
H1356  H     0.40135   0.96140   0.70012   0.00000  Uiso   1.00
H1357  H     0.44160   0.77835   0.78737   0.00000  Uiso   1.00
H1358  H     0.55837   0.88844   0.71289   0.00000  Uiso   1.00
N1359  N     0.45069   0.83334   0.74999   0.00000  Uiso   1.00
N1360  N     0.54931   0.83332   0.75001   0.00000  Uiso   1.00
O1361  O     0.37291   0.77322   0.75000   0.00000  Uiso   1.00
O1362  O     0.62709   0.89345   0.75000   0.00000  Uiso   1.00
O1363  O     0.62706   0.77321   0.75000   0.00000  Uiso   1.00
O1364  O     0.37294   0.89346   0.74999   0.00000  Uiso   1.00
O1365  O     0.35186   0.83334   0.81491   0.00000  Uiso   1.00
O1366  O     0.64814   0.83332   0.68508   0.00000  Uiso   1.00
O1367  O     0.60600   0.83333   0.81492   0.00000  Uiso   1.00
O1368  O     0.39400   0.83333   0.68508   0.00000  Uiso   1.00
O1369  O     0.61179   0.87668   0.53817   0.00000  Uiso   1.00
C1370  C     0.61218   0.91978   0.54427   0.00000  Uiso   1.00
H1371  H     0.57866   0.92959   0.57030   0.00000  Uiso   1.00
H1372  H     0.61718   0.93690   0.51274   0.00000  Uiso   1.00
H1373  H     0.64320   0.92825   0.55564   0.00000  Uiso   1.00
O1374  O     0.39019   0.87637   0.96069   0.00000  Uiso   1.00
C1375  C     0.39185   0.91950   0.95403   0.00000  Uiso   1.00
H1376  H     0.42597   0.92966   0.92804   0.00000  Uiso   1.00
H1377  H     0.38742   0.93645   0.98538   0.00000  Uiso   1.00
H1378  H     0.36138   0.92779   0.94234   0.00000  Uiso   1.00
C1379  C     0.58447   0.95852   0.81351   0.00000  Uiso   1.00
O1380  O     0.54416   0.97296   0.82180   0.00000  Uiso   1.00
O1381  O     0.59076   0.92384   0.83683   0.00000  Uiso   1.00
H1382  H     0.55919   0.91384   0.85933   0.00000  Uiso   1.00
C1383  C     0.41405   0.70872   0.68426   0.00000  Uiso   1.00
O1384  O     0.45447   0.69416   0.67383   0.00000  Uiso   1.00
O1385  O     0.40636   0.74396   0.66238   0.00000  Uiso   1.00
H1386  H     0.43707   0.75491   0.63929   0.00000  Uiso   1.00
C1387  C     0.52752   0.76857   0.79564   0.00000  Uiso   1.00
O1388  O     0.52472   0.73312   0.78349   0.00000  Uiso   1.00
O1389  O     0.53720   0.77627   0.83497   0.00000  Uiso   1.00
H1390  H     0.54224   0.75011   0.85019   0.00000  Uiso   1.00
C1391  C     0.47198   0.89946   0.70656   0.00000  Uiso   1.00
O1392  O     0.47497   0.93441   0.71998   0.00000  Uiso   1.00
O1393  O     0.46165   0.89335   0.66736   0.00000  Uiso   1.00
H1394  H     0.45824   0.92010   0.65230   0.00000  Uiso   1.00
C1395  C     0.66685   0.75438   0.74849   0.00000  Uiso   1.00
C1396  C     0.99985   0.91236   0.75136   0.00000  Uiso   1.00
C1397  C     0.86201   0.86737   0.54343   0.00000  Uiso   1.00
C1398  C     0.80614   0.86721   0.95558   0.00000  Uiso   1.00
C1399  C     0.91082   0.86623   0.51867   0.00000  Uiso   1.00
C1400  C     0.75726   0.86614   0.98044   0.00000  Uiso   1.00
C1401  C     0.96098   0.68843   0.77688   0.00000  Uiso   1.00
C1402  C     0.70569   0.97849   0.72254   0.00000  Uiso   1.00
C1403  C     0.95998   0.97891   0.78001   0.00000  Uiso   1.00
C1404  C     0.70634   0.68803   0.71894   0.00000  Uiso   1.00
C1405  C     0.99984   0.95717   0.75252   0.00000  Uiso   1.00
C1406  C     0.66681   0.70968   0.74699   0.00000  Uiso   1.00
C1407  C     0.84891   0.80269   0.77104   0.00000  Uiso   1.00
C1408  C     0.81763   0.86430   0.72952   0.00000  Uiso   1.00
C1409  C     0.80016   0.80276   0.77048   0.00000  Uiso   1.00
C1410  C     0.86650   0.86395   0.72963   0.00000  Uiso   1.00
C1411  C     0.97160   0.83323   0.83547   0.00000  Uiso   1.00
C1412  C     0.69504   0.83348   0.66452   0.00000  Uiso   1.00
C1413  C     0.95424   0.83632   0.88372   0.00000  Uiso   1.00
C1414  C     0.71239   0.83665   0.61618   0.00000  Uiso   1.00
C1415  C     0.97044   0.83846   0.95268   0.00000  Uiso   1.00
C1416  C     0.69597   0.83897   0.54731   0.00000  Uiso   1.00
C1417  C     0.98603   0.83135   0.90759   0.00000  Uiso   1.00
C1418  C     0.68006   0.83208   0.59258   0.00000  Uiso   1.00
C1419  C     0.90577   0.84520   0.90617   0.00000  Uiso   1.00
C1420  C     0.76140   0.84501   0.59328   0.00000  Uiso   1.00
C1421  C     0.89019   0.85412   0.95172   0.00000  Uiso   1.00
C1422  C     0.77730   0.85415   0.54760   0.00000  Uiso   1.00
C1423  C     0.92428   0.85322   0.97446   0.00000  Uiso   1.00
C1424  C     0.74307   0.85339   0.52501   0.00000  Uiso   1.00
C1425  C     0.84122   0.86103   0.97609   0.00000  Uiso   1.00
C1426  C     0.82663   0.86103   0.52303   0.00000  Uiso   1.00
Cu1427 Cu    0.71355   0.83334   0.75000   0.00000  Uiso   1.00
Cu1428 Cu    0.95311   0.83333   0.75000   0.00000  Uiso   1.00
H1429  H     0.78666   0.84312   0.61131   0.00000  Uiso   1.00
H1430  H     0.88078   0.84456   0.88768   0.00000  Uiso   1.00
H1431  H     0.97597   0.82261   0.60890   0.00000  Uiso   1.00
H1432  H     0.68947   0.82157   0.89161   0.00000  Uiso   1.00
H1433  H     0.99384   0.82999   0.97039   0.00000  Uiso   1.00
H1434  H     0.67194   0.83056   0.52991   0.00000  Uiso   1.00
H1435  H     0.85279   0.87425   0.57823   0.00000  Uiso   1.00
H1436  H     0.81565   0.87393   0.92062   0.00000  Uiso   1.00
H1437  H     0.93204   0.70556   0.79945   0.00000  Uiso   1.00
H1438  H     0.73468   0.96140   0.70012   0.00000  Uiso   1.00
H1439  H     0.77493   0.77835   0.78737   0.00000  Uiso   1.00
H1440  H     0.89170   0.88844   0.71289   0.00000  Uiso   1.00
N1441  N     0.78403   0.83334   0.74999   0.00000  Uiso   1.00
N1442  N     0.88264   0.83332   0.75001   0.00000  Uiso   1.00
O1443  O     0.70625   0.77322   0.75000   0.00000  Uiso   1.00
O1444  O     0.96042   0.89345   0.75000   0.00000  Uiso   1.00
O1445  O     0.96039   0.77321   0.75000   0.00000  Uiso   1.00
O1446  O     0.70628   0.89346   0.74999   0.00000  Uiso   1.00
O1447  O     0.68519   0.83334   0.81491   0.00000  Uiso   1.00
O1448  O     0.98148   0.83332   0.68508   0.00000  Uiso   1.00
O1449  O     0.93933   0.83333   0.81492   0.00000  Uiso   1.00
O1450  O     0.72733   0.83333   0.68508   0.00000  Uiso   1.00
O1451  O     0.94513   0.87668   0.53817   0.00000  Uiso   1.00
C1452  C     0.94551   0.91978   0.54427   0.00000  Uiso   1.00
H1453  H     0.91199   0.92959   0.57030   0.00000  Uiso   1.00
H1454  H     0.95051   0.93690   0.51274   0.00000  Uiso   1.00
H1455  H     0.97653   0.92825   0.55564   0.00000  Uiso   1.00
O1456  O     0.72353   0.87637   0.96069   0.00000  Uiso   1.00
C1457  C     0.72519   0.91950   0.95403   0.00000  Uiso   1.00
H1458  H     0.75930   0.92966   0.92804   0.00000  Uiso   1.00
H1459  H     0.72075   0.93645   0.98538   0.00000  Uiso   1.00
H1460  H     0.69471   0.92779   0.94234   0.00000  Uiso   1.00
C1461  C     0.91780   0.95852   0.81351   0.00000  Uiso   1.00
O1462  O     0.87750   0.97296   0.82180   0.00000  Uiso   1.00
O1463  O     0.92409   0.92384   0.83683   0.00000  Uiso   1.00
H1464  H     0.89253   0.91384   0.85933   0.00000  Uiso   1.00
C1465  C     0.74738   0.70872   0.68426   0.00000  Uiso   1.00
O1466  O     0.78780   0.69416   0.67383   0.00000  Uiso   1.00
O1467  O     0.73969   0.74396   0.66238   0.00000  Uiso   1.00
H1468  H     0.77040   0.75491   0.63929   0.00000  Uiso   1.00
C1469  C     0.86085   0.76857   0.79564   0.00000  Uiso   1.00
O1470  O     0.85805   0.73312   0.78349   0.00000  Uiso   1.00
O1471  O     0.87053   0.77627   0.83497   0.00000  Uiso   1.00
H1472  H     0.87557   0.75011   0.85019   0.00000  Uiso   1.00
C1473  C     0.80531   0.89946   0.70656   0.00000  Uiso   1.00
O1474  O     0.80830   0.93441   0.71998   0.00000  Uiso   1.00
O1475  O     0.79498   0.89335   0.66736   0.00000  Uiso   1.00
H1476  H     0.79157   0.92010   0.65230   0.00000  Uiso   1.00
loop_
_geom_bond_atom_site_label_1
_geom_bond_atom_site_label_2
_geom_bond_distance
_geom_bond_site_symmetry_2
_ccdc_geom_bond_type
C1     O49     1.305   .     A
C1     C12     1.449   .     S
C1     O215    1.312   1_455 S
C2     O50     1.305   .     A
C2     C11     1.453   .     S
C2     O134    1.313   .     S
C3     C32     1.401   .     A
C3     H41     1.079   .     S
C3     C5      1.388   .     A
C4     H42     1.079   .     S
C4     C6      1.389   .     A
C4     C31     1.401   .     A
C5     O57     1.377   .     S
C5     C767    1.405   1_554 S
C6     O62     1.377   .     S
C6     C768    1.405   .     S
C7     H43     1.081   .     S
C7     C501    1.391   1_545 S
C7     C94     1.395   .     S
C8     H44     1.079   .     S
C8     C256    1.393   .     S
C8     C175    1.397   1_455 S
C9     C67     1.484   .     S
C9     C11     1.413   .     A
C9     C253    1.391   .     S
C10    C71     1.487   .     S
C10    C12     1.412   .     A
C10    C500    1.393   1_545 S
C11    C90     1.397   .     S
C12    C171    1.395   1_455 S
C13    C75     1.467   .     S
C13    C15     1.429   .     A
C13    N48     1.389   .     A
C14    C16     1.429   .     A
C14    C79     1.467   .     S
C14    N47     1.390   .     A
C15    N47     1.361   .     A
C15    H45     1.083   .     S
C16    N48     1.360   .     A
C16    H46     1.083   .     S
C17    O55     1.311   .     A
C17    C19     1.461   .     S
C17    O135    1.313   .     S
C18    O56     1.312   .     A
C18    C20     1.462   .     S
C18    O218    1.312   1_455 S
C19    C23     1.391   .     A
C19    C25     1.400   .     A
C20    C24     1.392   .     A
C20    C26     1.399   .     A
C21    C23     1.383   .     A
C21    C29     1.397   .     A
C21    H39     1.059   .     S
C22    H40     1.058   .     S
C22    C24     1.383   .     A
C22    C30     1.396   .     A
C23    H120    1.084   .     S
C24    H201    1.083   1_455 S
C25    C27     1.408   .     A
C25    H36     1.077   .     S
C26    C28     1.408   .     A
C26    H35     1.075   .     S
C27    C29     1.410   .     A
C27    C31     1.412   .     A
C28    C32     1.411   .     A
C28    C30     1.410   .     A
C29    C743    1.405   .     S
C30    C744    1.405   1_554 S
C31    C770    1.418   .     S
C32    C769    1.418   1_554 S
Cu33   O52     1.964   .     S
Cu33   O53     1.966   .     S
Cu33   N47     2.058   .     S
Cu33   O56     1.979   .     S
Cu33   O49     1.955   .     S
Cu33   Cu198   2.738   1_455 S
Cu34   O51     1.964   .     S
Cu34   O55     1.979   .     S
Cu34   O50     1.955   .     S
Cu34   O54     1.966   .     S
Cu34   N48     2.058   .     S
Cu34   Cu115   2.738   .     S
H37    C106    1.083   .     S
H38    C187    1.084   1_455 S
O51    C83     1.312   .     S
O52    C166    1.313   1_455 S
O53    C181    1.313   1_455 S
O54    C100    1.312   .     S
O57    C58     1.411   .     S
C58    H60     1.114   .     S
C58    H61     1.109   .     S
C58    H59     1.112   .     S
O62    C63     1.411   .     S
C63    H65     1.114   .     S
C63    H66     1.109   .     S
C63    H64     1.112   .     S
C67    O68     1.224   .     D
C67    O69     1.395   .     S
O69    H70     1.013   .     S
C71    O73     1.398   .     S
C71    O72     1.224   .     D
O73    H74     1.014   .     S
C75    O77     1.395   .     S
C75    O76     1.223   .     D
O77    H78     1.013   .     S
C79    O81     1.393   .     S
C79    O80     1.223   .     D
O81    H82     1.013   .     S
C83    O131    1.305   .     A
C83    C94     1.449   .     S
C84    O132    1.305   .     A
C84    C93     1.453   .     S
C84    O216    1.313   .     S
C85    C114    1.401   .     A
C85    H123    1.079   .     S
C85    C87     1.388   .     A
C86    H124    1.079   .     S
C86    C88     1.389   .     A
C86    C113    1.401   .     A
C87    O139    1.377   .     S
C87    C849    1.405   1_554 S
C88    O144    1.377   .     S
C88    C850    1.405   .     S
C89    H125    1.081   .     S
C89    C583    1.391   1_545 S
C89    C176    1.395   .     S
C90    H126    1.079   .     S
C90    C338    1.393   .     S
C91    C149    1.484   .     S
C91    C93     1.413   .     A
C91    C335    1.391   .     S
C92    C153    1.487   .     S
C92    C94     1.412   .     A
C92    C582    1.393   1_545 S
C93    C172    1.397   .     S
C95    C157    1.467   .     S
C95    C97     1.429   .     A
C95    N130    1.389   .     A
C96    C98     1.429   .     A
C96    C161    1.467   .     S
C96    N129    1.390   .     A
C97    N129    1.361   .     A
C97    H127    1.083   .     S
C98    N130    1.360   .     A
C98    H128    1.083   .     S
C99    O137    1.311   .     A
C99    C101    1.461   .     S
C99    O217    1.313   .     S
C100   O138    1.312   .     A
C100   C102    1.462   .     S
C101   C105    1.391   .     A
C101   C107    1.400   .     A
C102   C106    1.392   .     A
C102   C108    1.399   .     A
C103   C105    1.383   .     A
C103   C111    1.397   .     A
C103   H121    1.059   .     S
C104   H122    1.058   .     S
C104   C106    1.383   .     A
C104   C112    1.396   .     A
C105   H202    1.084   .     S
C107   C109    1.408   .     A
C107   H118    1.077   .     S
C108   C110    1.408   .     A
C108   H117    1.075   .     S
C109   C111    1.410   .     A
C109   C113    1.412   .     A
C110   C114    1.411   .     A
C110   C112    1.410   .     A
C111   C825    1.405   .     S
C112   C826    1.405   1_554 S
C113   C852    1.418   .     S
C114   C851    1.418   1_554 S
Cu115  O134    1.964   .     S
Cu115  O135    1.966   .     S
Cu115  N129    2.058   .     S
Cu115  O138    1.979   .     S
Cu115  O131    1.955   .     S
Cu116  O133    1.964   .     S
Cu116  O137    1.979   .     S
Cu116  O132    1.955   .     S
Cu116  O136    1.966   .     S
Cu116  N130    2.058   .     S
Cu116  Cu197   2.738   .     S
H119   C188    1.083   .     S
O133   C165    1.312   .     S
O136   C182    1.312   .     S
O139   C140    1.411   .     S
C140   H142    1.114   .     S
C140   H143    1.109   .     S
C140   H141    1.112   .     S
O144   C145    1.411   .     S
C145   H147    1.114   .     S
C145   H148    1.109   .     S
C145   H146    1.112   .     S
C149   O150    1.224   .     D
C149   O151    1.395   .     S
O151   H152    1.013   .     S
C153   O155    1.398   .     S
C153   O154    1.224   .     D
O155   H156    1.014   .     S
C157   O159    1.395   .     S
C157   O158    1.223   .     D
O159   H160    1.013   .     S
C161   O163    1.393   .     S
C161   O162    1.223   .     D
O163   H164    1.013   .     S
C165   O213    1.305   .     A
C165   C176    1.449   .     S
C166   O214    1.305   .     A
C166   C175    1.453   .     S
C166   O52     1.313   1_655 S
C167   C196    1.401   .     A
C167   H205    1.079   .     S
C167   C169    1.388   .     A
C168   H206    1.079   .     S
C168   C170    1.389   .     A
C168   C195    1.401   .     A
C169   O221    1.377   .     S
C169   C931    1.405   1_554 S
C170   O226    1.377   .     S
C170   C932    1.405   .     S
C171   H207    1.081   .     S
C171   C665    1.391   1_545 S
C171   C12     1.395   1_655 S
C172   H208    1.079   .     S
C172   C420    1.393   .     S
C173   C231    1.484   .     S
C173   C175    1.413   .     A
C173   C417    1.391   .     S
C174   C235    1.487   .     S
C174   C176    1.412   .     A
C174   C664    1.393   1_545 S
C175   C8      1.397   1_655 S
C177   C239    1.467   .     S
C177   C179    1.429   .     A
C177   N212    1.389   .     A
C178   C180    1.429   .     A
C178   C243    1.467   .     S
C178   N211    1.390   .     A
C179   N211    1.361   .     A
C179   H209    1.083   .     S
C180   N212    1.360   .     A
C180   H210    1.083   .     S
C181   O219    1.311   .     A
C181   C183    1.461   .     S
C181   O53     1.313   1_655 S
C182   O220    1.312   .     A
C182   C184    1.462   .     S
C183   C187    1.391   .     A
C183   C189    1.400   .     A
C184   C188    1.392   .     A
C184   C190    1.399   .     A
C185   C187    1.383   .     A
C185   C193    1.397   .     A
C185   H203    1.059   .     S
C186   H204    1.058   .     S
C186   C188    1.383   .     A
C186   C194    1.396   .     A
C187   H38     1.084   1_655 S
C189   C191    1.408   .     A
C189   H200    1.077   .     S
C190   C192    1.408   .     A
C190   H199    1.075   .     S
C191   C193    1.410   .     A
C191   C195    1.412   .     A
C192   C196    1.411   .     A
C192   C194    1.410   .     A
C193   C907    1.405   .     S
C194   C908    1.405   1_554 S
C195   C934    1.418   .     S
C196   C933    1.418   1_554 S
Cu197  O216    1.964   .     S
Cu197  O217    1.966   .     S
Cu197  N211    2.058   .     S
Cu197  O220    1.979   .     S
Cu197  O213    1.955   .     S
Cu198  O215    1.964   .     S
Cu198  O219    1.979   .     S
Cu198  O214    1.955   .     S
Cu198  O218    1.966   .     S
Cu198  N212    2.058   .     S
Cu198  Cu33    2.738   1_655 S
H201   C24     1.083   1_655 S
O215   C1      1.312   1_655 S
O218   C18     1.312   1_655 S
O221   C222    1.411   .     S
C222   H224    1.114   .     S
C222   H225    1.109   .     S
C222   H223    1.112   .     S
O226   C227    1.411   .     S
C227   H229    1.114   .     S
C227   H230    1.109   .     S
C227   H228    1.112   .     S
C231   O232    1.224   .     D
C231   O233    1.395   .     S
O233   H234    1.013   .     S
C235   O237    1.398   .     S
C235   O236    1.224   .     D
O237   H238    1.014   .     S
C239   O241    1.395   .     S
C239   O240    1.223   .     D
O241   H242    1.013   .     S
C243   O245    1.393   .     S
C243   O244    1.223   .     D
O245   H246    1.013   .     S
C247   O295    1.305   .     A
C247   C258    1.449   .     S
C247   O461    1.312   1_455 S
C248   O296    1.305   .     A
C248   C257    1.453   .     S
C248   O380    1.313   .     S
C249   C278    1.401   .     A
C249   H287    1.079   .     S
C249   C251    1.388   .     A
C250   H288    1.079   .     S
C250   C252    1.389   .     A
C250   C277    1.401   .     A
C251   O303    1.377   .     S
C251   C1013   1.405   1_554 S
C252   O308    1.377   .     S
C252   C1014   1.405   .     S
C253   H289    1.081   .     S
C253   C340    1.395   .     S
C254   H290    1.079   .     S
C254   C502    1.393   .     S
C254   C421    1.397   1_455 S
C255   C313    1.484   .     S
C255   C257    1.413   .     A
C255   C499    1.391   .     S
C256   C317    1.487   .     S
C256   C258    1.412   .     A
C257   C336    1.397   .     S
C258   C417    1.395   1_455 S
C259   C321    1.467   .     S
C259   C261    1.429   .     A
C259   N294    1.389   .     A
C260   C262    1.429   .     A
C260   C325    1.467   .     S
C260   N293    1.390   .     A
C261   N293    1.361   .     A
C261   H291    1.083   .     S
C262   N294    1.360   .     A
C262   H292    1.083   .     S
C263   O301    1.311   .     A
C263   C265    1.461   .     S
C263   O381    1.313   .     S
C264   O302    1.312   .     A
C264   C266    1.462   .     S
C264   O464    1.312   1_455 S
C265   C269    1.391   .     A
C265   C271    1.400   .     A
C266   C270    1.392   .     A
C266   C272    1.399   .     A
C267   C269    1.383   .     A
C267   C275    1.397   .     A
C267   H285    1.059   .     S
C268   H286    1.058   .     S
C268   C270    1.383   .     A
C268   C276    1.396   .     A
C269   H366    1.084   .     S
C270   H447    1.083   1_455 S
C271   C273    1.408   .     A
C271   H282    1.077   .     S
C272   C274    1.408   .     A
C272   H281    1.075   .     S
C273   C275    1.410   .     A
C273   C277    1.412   .     A
C274   C278    1.411   .     A
C274   C276    1.410   .     A
C275   C989    1.405   .     S
C276   C990    1.405   1_554 S
C277   C1016   1.418   .     S
C278   C1015   1.418   1_554 S
Cu279  O298    1.964   .     S
Cu279  O299    1.966   .     S
Cu279  N293    2.058   .     S
Cu279  O302    1.979   .     S
Cu279  O295    1.955   .     S
Cu279  Cu444   2.738   1_455 S
Cu280  O297    1.964   .     S
Cu280  O301    1.979   .     S
Cu280  O296    1.955   .     S
Cu280  O300    1.966   .     S
Cu280  N294    2.058   .     S
Cu280  Cu361   2.738   .     S
H283   C352    1.083   .     S
H284   C433    1.084   1_455 S
O297   C329    1.312   .     S
O298   C412    1.313   1_455 S
O299   C427    1.313   1_455 S
O300   C346    1.312   .     S
O303   C304    1.411   .     S
C304   H306    1.114   .     S
C304   H307    1.109   .     S
C304   H305    1.112   .     S
O308   C309    1.411   .     S
C309   H311    1.114   .     S
C309   H312    1.109   .     S
C309   H310    1.112   .     S
C313   O314    1.224   .     D
C313   O315    1.395   .     S
O315   H316    1.013   .     S
C317   O319    1.398   .     S
C317   O318    1.224   .     D
O319   H320    1.014   .     S
C321   O323    1.395   .     S
C321   O322    1.223   .     D
O323   H324    1.013   .     S
C325   O327    1.393   .     S
C325   O326    1.223   .     D
O327   H328    1.013   .     S
C329   O377    1.305   .     A
C329   C340    1.449   .     S
C330   O378    1.305   .     A
C330   C339    1.453   .     S
C330   O462    1.313   .     S
C331   C360    1.401   .     A
C331   H369    1.079   .     S
C331   C333    1.388   .     A
C332   H370    1.079   .     S
C332   C334    1.389   .     A
C332   C359    1.401   .     A
C333   O385    1.377   .     S
C333   C1095   1.405   1_554 S
C334   O390    1.377   .     S
C334   C1096   1.405   .     S
C335   H371    1.081   .     S
C335   C422    1.395   .     S
C336   H372    1.079   .     S
C336   C584    1.393   .     S
C337   C395    1.484   .     S
C337   C339    1.413   .     A
C337   C581    1.391   .     S
C338   C399    1.487   .     S
C338   C340    1.412   .     A
C339   C418    1.397   .     S
C341   C403    1.467   .     S
C341   C343    1.429   .     A
C341   N376    1.389   .     A
C342   C344    1.429   .     A
C342   C407    1.467   .     S
C342   N375    1.390   .     A
C343   N375    1.361   .     A
C343   H373    1.083   .     S
C344   N376    1.360   .     A
C344   H374    1.083   .     S
C345   O383    1.311   .     A
C345   C347    1.461   .     S
C345   O463    1.313   .     S
C346   O384    1.312   .     A
C346   C348    1.462   .     S
C347   C351    1.391   .     A
C347   C353    1.400   .     A
C348   C352    1.392   .     A
C348   C354    1.399   .     A
C349   C351    1.383   .     A
C349   C357    1.397   .     A
C349   H367    1.059   .     S
C350   H368    1.058   .     S
C350   C352    1.383   .     A
C350   C358    1.396   .     A
C351   H448    1.084   .     S
C353   C355    1.408   .     A
C353   H364    1.077   .     S
C354   C356    1.408   .     A
C354   H363    1.075   .     S
C355   C357    1.410   .     A
C355   C359    1.412   .     A
C356   C360    1.411   .     A
C356   C358    1.410   .     A
C357   C1071   1.405   .     S
C358   C1072   1.405   1_554 S
C359   C1098   1.418   .     S
C360   C1097   1.418   1_554 S
Cu361  O380    1.964   .     S
Cu361  O381    1.966   .     S
Cu361  N375    2.058   .     S
Cu361  O384    1.979   .     S
Cu361  O377    1.955   .     S
Cu362  O379    1.964   .     S
Cu362  O383    1.979   .     S
Cu362  O378    1.955   .     S
Cu362  O382    1.966   .     S
Cu362  N376    2.058   .     S
Cu362  Cu443   2.738   .     S
H365   C434    1.083   .     S
O379   C411    1.312   .     S
O382   C428    1.312   .     S
O385   C386    1.411   .     S
C386   H388    1.114   .     S
C386   H389    1.109   .     S
C386   H387    1.112   .     S
O390   C391    1.411   .     S
C391   H393    1.114   .     S
C391   H394    1.109   .     S
C391   H392    1.112   .     S
C395   O396    1.224   .     D
C395   O397    1.395   .     S
O397   H398    1.013   .     S
C399   O401    1.398   .     S
C399   O400    1.224   .     D
O401   H402    1.014   .     S
C403   O405    1.395   .     S
C403   O404    1.223   .     D
O405   H406    1.013   .     S
C407   O409    1.393   .     S
C407   O408    1.223   .     D
O409   H410    1.013   .     S
C411   O459    1.305   .     A
C411   C422    1.449   .     S
C412   O460    1.305   .     A
C412   C421    1.453   .     S
C412   O298    1.313   1_655 S
C413   C442    1.401   .     A
C413   H451    1.079   .     S
C413   C415    1.388   .     A
C414   H452    1.079   .     S
C414   C416    1.389   .     A
C414   C441    1.401   .     A
C415   O467    1.377   .     S
C415   C1177   1.405   1_554 S
C416   O472    1.377   .     S
C416   C1178   1.405   .     S
C417   H453    1.081   .     S
C417   C258    1.395   1_655 S
C418   H454    1.079   .     S
C418   C666    1.393   .     S
C419   C477    1.484   .     S
C419   C421    1.413   .     A
C419   C663    1.391   .     S
C420   C481    1.487   .     S
C420   C422    1.412   .     A
C421   C254    1.397   1_655 S
C423   C485    1.467   .     S
C423   C425    1.429   .     A
C423   N458    1.389   .     A
C424   C426    1.429   .     A
C424   C489    1.467   .     S
C424   N457    1.390   .     A
C425   N457    1.361   .     A
C425   H455    1.083   .     S
C426   N458    1.360   .     A
C426   H456    1.083   .     S
C427   O465    1.311   .     A
C427   C429    1.461   .     S
C427   O299    1.313   1_655 S
C428   O466    1.312   .     A
C428   C430    1.462   .     S
C429   C433    1.391   .     A
C429   C435    1.400   .     A
C430   C434    1.392   .     A
C430   C436    1.399   .     A
C431   C433    1.383   .     A
C431   C439    1.397   .     A
C431   H449    1.059   .     S
C432   H450    1.058   .     S
C432   C434    1.383   .     A
C432   C440    1.396   .     A
C433   H284    1.084   1_655 S
C435   C437    1.408   .     A
C435   H446    1.077   .     S
C436   C438    1.408   .     A
C436   H445    1.075   .     S
C437   C439    1.410   .     A
C437   C441    1.412   .     A
C438   C442    1.411   .     A
C438   C440    1.410   .     A
C439   C1153   1.405   .     S
C440   C1154   1.405   1_554 S
C441   C1180   1.418   .     S
C442   C1179   1.418   1_554 S
Cu443  O462    1.964   .     S
Cu443  O463    1.966   .     S
Cu443  N457    2.058   .     S
Cu443  O466    1.979   .     S
Cu443  O459    1.955   .     S
Cu444  O461    1.964   .     S
Cu444  O465    1.979   .     S
Cu444  O460    1.955   .     S
Cu444  O464    1.966   .     S
Cu444  N458    2.058   .     S
Cu444  Cu279   2.738   1_655 S
H447   C270    1.083   1_655 S
O461   C247    1.312   1_655 S
O464   C264    1.312   1_655 S
O467   C468    1.411   .     S
C468   H470    1.114   .     S
C468   H471    1.109   .     S
C468   H469    1.112   .     S
O472   C473    1.411   .     S
C473   H475    1.114   .     S
C473   H476    1.109   .     S
C473   H474    1.112   .     S
C477   O478    1.224   .     D
C477   O479    1.395   .     S
O479   H480    1.013   .     S
C481   O483    1.398   .     S
C481   O482    1.224   .     D
O483   H484    1.014   .     S
C485   O487    1.395   .     S
C485   O486    1.223   .     D
O487   H488    1.013   .     S
C489   O491    1.393   .     S
C489   O490    1.223   .     D
O491   H492    1.013   .     S
C493   O541    1.305   .     A
C493   C504    1.449   .     S
C493   O707    1.312   1_455 S
C494   O542    1.305   .     A
C494   C503    1.453   .     S
C494   O626    1.313   .     S
C495   C524    1.401   .     A
C495   H533    1.079   .     S
C495   C497    1.388   .     A
C496   H534    1.079   .     S
C496   C498    1.389   .     A
C496   C523    1.401   .     A
C497   O549    1.377   .     S
C497   C1259   1.405   1_554 S
C498   O554    1.377   .     S
C498   C1260   1.405   .     S
C499   H535    1.081   .     S
C499   C586    1.395   .     S
C500   H536    1.079   .     S
C500   C10     1.393   1_565 S
C500   C667    1.397   1_455 S
C501   C559    1.484   .     S
C501   C503    1.413   .     A
C501   C7      1.391   1_565 S
C502   C563    1.487   .     S
C502   C504    1.412   .     A
C503   C582    1.397   .     S
C504   C663    1.395   1_455 S
C505   C567    1.467   .     S
C505   C507    1.429   .     A
C505   N540    1.389   .     A
C506   C508    1.429   .     A
C506   C571    1.467   .     S
C506   N539    1.390   .     A
C507   N539    1.361   .     A
C507   H537    1.083   .     S
C508   N540    1.360   .     A
C508   H538    1.083   .     S
C509   O547    1.311   .     A
C509   C511    1.461   .     S
C509   O627    1.313   .     S
C510   O548    1.312   .     A
C510   C512    1.462   .     S
C510   O710    1.312   1_455 S
C511   C515    1.391   .     A
C511   C517    1.400   .     A
C512   C516    1.392   .     A
C512   C518    1.399   .     A
C513   C515    1.383   .     A
C513   C521    1.397   .     A
C513   H531    1.059   .     S
C514   H532    1.058   .     S
C514   C516    1.383   .     A
C514   C522    1.396   .     A
C515   H612    1.084   .     S
C516   H693    1.083   1_455 S
C517   C519    1.408   .     A
C517   H528    1.077   .     S
C518   C520    1.408   .     A
C518   H527    1.075   .     S
C519   C521    1.410   .     A
C519   C523    1.412   .     A
C520   C524    1.411   .     A
C520   C522    1.410   .     A
C521   C1235   1.405   .     S
C522   C1236   1.405   1_554 S
C523   C1262   1.418   .     S
C524   C1261   1.418   1_554 S
Cu525  O544    1.964   .     S
Cu525  O545    1.966   .     S
Cu525  N539    2.058   .     S
Cu525  O548    1.979   .     S
Cu525  O541    1.955   .     S
Cu525  Cu690   2.738   1_455 S
Cu526  O543    1.964   .     S
Cu526  O547    1.979   .     S
Cu526  O542    1.955   .     S
Cu526  O546    1.966   .     S
Cu526  N540    2.058   .     S
Cu526  Cu607   2.738   .     S
H529   C598    1.083   .     S
H530   C679    1.084   1_455 S
O543   C575    1.312   .     S
O544   C658    1.313   1_455 S
O545   C673    1.313   1_455 S
O546   C592    1.312   .     S
O549   C550    1.411   .     S
C550   H552    1.114   .     S
C550   H553    1.109   .     S
C550   H551    1.112   .     S
O554   C555    1.411   .     S
C555   H557    1.114   .     S
C555   H558    1.109   .     S
C555   H556    1.112   .     S
C559   O560    1.224   .     D
C559   O561    1.395   .     S
O561   H562    1.013   .     S
C563   O565    1.398   .     S
C563   O564    1.224   .     D
O565   H566    1.014   .     S
C567   O569    1.395   .     S
C567   O568    1.223   .     D
O569   H570    1.013   .     S
C571   O573    1.393   .     S
C571   O572    1.223   .     D
O573   H574    1.013   .     S
C575   O623    1.305   .     A
C575   C586    1.449   .     S
C576   O624    1.305   .     A
C576   C585    1.453   .     S
C576   O708    1.313   .     S
C577   C606    1.401   .     A
C577   H615    1.079   .     S
C577   C579    1.388   .     A
C578   H616    1.079   .     S
C578   C580    1.389   .     A
C578   C605    1.401   .     A
C579   O631    1.377   .     S
C579   C1341   1.405   1_554 S
C580   O636    1.377   .     S
C580   C1342   1.405   .     S
C581   H617    1.081   .     S
C581   C668    1.395   .     S
C582   H618    1.079   .     S
C582   C92     1.393   1_565 S
C583   C641    1.484   .     S
C583   C585    1.413   .     A
C583   C89     1.391   1_565 S
C584   C645    1.487   .     S
C584   C586    1.412   .     A
C585   C664    1.397   .     S
C587   C649    1.467   .     S
C587   C589    1.429   .     A
C587   N622    1.389   .     A
C588   C590    1.429   .     A
C588   C653    1.467   .     S
C588   N621    1.390   .     A
C589   N621    1.361   .     A
C589   H619    1.083   .     S
C590   N622    1.360   .     A
C590   H620    1.083   .     S
C591   O629    1.311   .     A
C591   C593    1.461   .     S
C591   O709    1.313   .     S
C592   O630    1.312   .     A
C592   C594    1.462   .     S
C593   C597    1.391   .     A
C593   C599    1.400   .     A
C594   C598    1.392   .     A
C594   C600    1.399   .     A
C595   C597    1.383   .     A
C595   C603    1.397   .     A
C595   H613    1.059   .     S
C596   H614    1.058   .     S
C596   C598    1.383   .     A
C596   C604    1.396   .     A
C597   H694    1.084   .     S
C599   C601    1.408   .     A
C599   H610    1.077   .     S
C600   C602    1.408   .     A
C600   H609    1.075   .     S
C601   C603    1.410   .     A
C601   C605    1.412   .     A
C602   C606    1.411   .     A
C602   C604    1.410   .     A
C603   C1317   1.405   .     S
C604   C1318   1.405   1_554 S
C605   C1344   1.418   .     S
C606   C1343   1.418   1_554 S
Cu607  O626    1.964   .     S
Cu607  O627    1.966   .     S
Cu607  N621    2.058   .     S
Cu607  O630    1.979   .     S
Cu607  O623    1.955   .     S
Cu608  O625    1.964   .     S
Cu608  O629    1.979   .     S
Cu608  O624    1.955   .     S
Cu608  O628    1.966   .     S
Cu608  N622    2.058   .     S
Cu608  Cu689   2.738   .     S
H611   C680    1.083   .     S
O625   C657    1.312   .     S
O628   C674    1.312   .     S
O631   C632    1.411   .     S
C632   H634    1.114   .     S
C632   H635    1.109   .     S
C632   H633    1.112   .     S
O636   C637    1.411   .     S
C637   H639    1.114   .     S
C637   H640    1.109   .     S
C637   H638    1.112   .     S
C641   O642    1.224   .     D
C641   O643    1.395   .     S
O643   H644    1.013   .     S
C645   O647    1.398   .     S
C645   O646    1.224   .     D
O647   H648    1.014   .     S
C649   O651    1.395   .     S
C649   O650    1.223   .     D
O651   H652    1.013   .     S
C653   O655    1.393   .     S
C653   O654    1.223   .     D
O655   H656    1.013   .     S
C657   O705    1.305   .     A
C657   C668    1.449   .     S
C658   O706    1.305   .     A
C658   C667    1.453   .     S
C658   O544    1.313   1_655 S
C659   C688    1.401   .     A
C659   H697    1.079   .     S
C659   C661    1.388   .     A
C660   H698    1.079   .     S
C660   C662    1.389   .     A
C660   C687    1.401   .     A
C661   O713    1.377   .     S
C661   C1423   1.405   1_554 S
C662   O718    1.377   .     S
C662   C1424   1.405   .     S
C663   H699    1.081   .     S
C663   C504    1.395   1_655 S
C664   H700    1.079   .     S
C664   C174    1.393   1_565 S
C665   C723    1.484   .     S
C665   C667    1.413   .     A
C665   C171    1.391   1_565 S
C666   C727    1.487   .     S
C666   C668    1.412   .     A
C667   C500    1.397   1_655 S
C669   C731    1.467   .     S
C669   C671    1.429   .     A
C669   N704    1.389   .     A
C670   C672    1.429   .     A
C670   C735    1.467   .     S
C670   N703    1.390   .     A
C671   N703    1.361   .     A
C671   H701    1.083   .     S
C672   N704    1.360   .     A
C672   H702    1.083   .     S
C673   O711    1.311   .     A
C673   C675    1.461   .     S
C673   O545    1.313   1_655 S
C674   O712    1.312   .     A
C674   C676    1.462   .     S
C675   C679    1.391   .     A
C675   C681    1.400   .     A
C676   C680    1.392   .     A
C676   C682    1.399   .     A
C677   C679    1.383   .     A
C677   C685    1.397   .     A
C677   H695    1.059   .     S
C678   H696    1.058   .     S
C678   C680    1.383   .     A
C678   C686    1.396   .     A
C679   H530    1.084   1_655 S
C681   C683    1.408   .     A
C681   H692    1.077   .     S
C682   C684    1.408   .     A
C682   H691    1.075   .     S
C683   C685    1.410   .     A
C683   C687    1.412   .     A
C684   C688    1.411   .     A
C684   C686    1.410   .     A
C685   C1399   1.405   .     S
C686   C1400   1.405   1_554 S
C687   C1426   1.418   .     S
C688   C1425   1.418   1_554 S
Cu689  O708    1.964   .     S
Cu689  O709    1.966   .     S
Cu689  N703    2.058   .     S
Cu689  O712    1.979   .     S
Cu689  O705    1.955   .     S
Cu690  O707    1.964   .     S
Cu690  O711    1.979   .     S
Cu690  O706    1.955   .     S
Cu690  O710    1.966   .     S
Cu690  N704    2.058   .     S
Cu690  Cu525   2.738   1_655 S
H693   C516    1.083   1_655 S
O707   C493    1.312   1_655 S
O710   C510    1.312   1_655 S
O713   C714    1.411   .     S
C714   H716    1.114   .     S
C714   H717    1.109   .     S
C714   H715    1.112   .     S
O718   C719    1.411   .     S
C719   H721    1.114   .     S
C719   H722    1.109   .     S
C719   H720    1.112   .     S
C723   O724    1.224   .     D
C723   O725    1.395   .     S
O725   H726    1.013   .     S
C727   O729    1.398   .     S
C727   O728    1.224   .     D
O729   H730    1.014   .     S
C731   O733    1.395   .     S
C731   O732    1.223   .     D
O733   H734    1.013   .     S
C735   O737    1.393   .     S
C735   O736    1.223   .     D
O737   H738    1.013   .     S
C739   O787    1.305   .     A
C739   C750    1.449   .     S
C739   O953    1.312   1_455 S
C740   O788    1.305   .     A
C740   C749    1.453   .     S
C740   O872    1.313   .     S
C741   C770    1.401   .     A
C741   H779    1.079   .     S
C741   C743    1.388   .     A
C742   H780    1.079   .     S
C742   C744    1.389   .     A
C742   C769    1.401   .     A
C743   O795    1.377   .     S
C744   O800    1.377   .     S
C744   C30     1.405   1_556 S
C745   H781    1.081   .     S
C745   C1239   1.391   1_545 S
C745   C832    1.395   .     S
C746   H782    1.079   .     S
C746   C994    1.393   .     S
C746   C913    1.397   1_455 S
C747   C805    1.484   .     S
C747   C749    1.413   .     A
C747   C991    1.391   .     S
C748   C809    1.487   .     S
C748   C750    1.412   .     A
C748   C1238   1.393   1_545 S
C749   C828    1.397   .     S
C750   C909    1.395   1_455 S
C751   C813    1.467   .     S
C751   C753    1.429   .     A
C751   N786    1.389   .     A
C752   C754    1.429   .     A
C752   C817    1.467   .     S
C752   N785    1.390   .     A
C753   N785    1.361   .     A
C753   H783    1.083   .     S
C754   N786    1.360   .     A
C754   H784    1.083   .     S
C755   O793    1.311   .     A
C755   C757    1.461   .     S
C755   O873    1.313   .     S
C756   O794    1.312   .     A
C756   C758    1.462   .     S
C756   O956    1.312   1_455 S
C757   C761    1.391   .     A
C757   C763    1.400   .     A
C758   C762    1.392   .     A
C758   C764    1.399   .     A
C759   C761    1.383   .     A
C759   C767    1.397   .     A
C759   H777    1.059   .     S
C760   H778    1.058   .     S
C760   C762    1.383   .     A
C760   C768    1.396   .     A
C761   H858    1.084   .     S
C762   H939    1.083   1_455 S
C763   C765    1.408   .     A
C763   H774    1.077   .     S
C764   C766    1.408   .     A
C764   H773    1.075   .     S
C765   C767    1.410   .     A
C765   C769    1.412   .     A
C766   C770    1.411   .     A
C766   C768    1.410   .     A
C767   C5      1.405   1_556 S
C769   C32     1.418   1_556 S
Cu771  O790    1.964   .     S
Cu771  O791    1.966   .     S
Cu771  N785    2.058   .     S
Cu771  O794    1.979   .     S
Cu771  O787    1.955   .     S
Cu771  Cu936   2.738   1_455 S
Cu772  O789    1.964   .     S
Cu772  O793    1.979   .     S
Cu772  O788    1.955   .     S
Cu772  O792    1.966   .     S
Cu772  N786    2.058   .     S
Cu772  Cu853   2.738   .     S
H775   C844    1.083   .     S
H776   C925    1.084   1_455 S
O789   C821    1.312   .     S
O790   C904    1.313   1_455 S
O791   C919    1.313   1_455 S
O792   C838    1.312   .     S
O795   C796    1.411   .     S
C796   H798    1.114   .     S
C796   H799    1.109   .     S
C796   H797    1.112   .     S
O800   C801    1.411   .     S
C801   H803    1.114   .     S
C801   H804    1.109   .     S
C801   H802    1.112   .     S
C805   O806    1.224   .     D
C805   O807    1.395   .     S
O807   H808    1.013   .     S
C809   O811    1.398   .     S
C809   O810    1.224   .     D
O811   H812    1.014   .     S
C813   O815    1.395   .     S
C813   O814    1.223   .     D
O815   H816    1.013   .     S
C817   O819    1.393   .     S
C817   O818    1.223   .     D
O819   H820    1.013   .     S
C821   O869    1.305   .     A
C821   C832    1.449   .     S
C822   O870    1.305   .     A
C822   C831    1.453   .     S
C822   O954    1.313   .     S
C823   C852    1.401   .     A
C823   H861    1.079   .     S
C823   C825    1.388   .     A
C824   H862    1.079   .     S
C824   C826    1.389   .     A
C824   C851    1.401   .     A
C825   O877    1.377   .     S
C826   O882    1.377   .     S
C826   C112    1.405   1_556 S
C827   H863    1.081   .     S
C827   C1321   1.391   1_545 S
C827   C914    1.395   .     S
C828   H864    1.079   .     S
C828   C1076   1.393   .     S
C829   C887    1.484   .     S
C829   C831    1.413   .     A
C829   C1073   1.391   .     S
C830   C891    1.487   .     S
C830   C832    1.412   .     A
C830   C1320   1.393   1_545 S
C831   C910    1.397   .     S
C833   C895    1.467   .     S
C833   C835    1.429   .     A
C833   N868    1.389   .     A
C834   C836    1.429   .     A
C834   C899    1.467   .     S
C834   N867    1.390   .     A
C835   N867    1.361   .     A
C835   H865    1.083   .     S
C836   N868    1.360   .     A
C836   H866    1.083   .     S
C837   O875    1.311   .     A
C837   C839    1.461   .     S
C837   O955    1.313   .     S
C838   O876    1.312   .     A
C838   C840    1.462   .     S
C839   C843    1.391   .     A
C839   C845    1.400   .     A
C840   C844    1.392   .     A
C840   C846    1.399   .     A
C841   C843    1.383   .     A
C841   C849    1.397   .     A
C841   H859    1.059   .     S
C842   H860    1.058   .     S
C842   C844    1.383   .     A
C842   C850    1.396   .     A
C843   H940    1.084   .     S
C845   C847    1.408   .     A
C845   H856    1.077   .     S
C846   C848    1.408   .     A
C846   H855    1.075   .     S
C847   C849    1.410   .     A
C847   C851    1.412   .     A
C848   C852    1.411   .     A
C848   C850    1.410   .     A
C849   C87     1.405   1_556 S
C851   C114    1.418   1_556 S
Cu853  O872    1.964   .     S
Cu853  O873    1.966   .     S
Cu853  N867    2.058   .     S
Cu853  O876    1.979   .     S
Cu853  O869    1.955   .     S
Cu854  O871    1.964   .     S
Cu854  O875    1.979   .     S
Cu854  O870    1.955   .     S
Cu854  O874    1.966   .     S
Cu854  N868    2.058   .     S
Cu854  Cu935   2.738   .     S
H857   C926    1.083   .     S
O871   C903    1.312   .     S
O874   C920    1.312   .     S
O877   C878    1.411   .     S
C878   H880    1.114   .     S
C878   H881    1.109   .     S
C878   H879    1.112   .     S
O882   C883    1.411   .     S
C883   H885    1.114   .     S
C883   H886    1.109   .     S
C883   H884    1.112   .     S
C887   O888    1.224   .     D
C887   O889    1.395   .     S
O889   H890    1.013   .     S
C891   O893    1.398   .     S
C891   O892    1.224   .     D
O893   H894    1.014   .     S
C895   O897    1.395   .     S
C895   O896    1.223   .     D
O897   H898    1.013   .     S
C899   O901    1.393   .     S
C899   O900    1.223   .     D
O901   H902    1.013   .     S
C903   O951    1.305   .     A
C903   C914    1.449   .     S
C904   O952    1.305   .     A
C904   C913    1.453   .     S
C904   O790    1.313   1_655 S
C905   C934    1.401   .     A
C905   H943    1.079   .     S
C905   C907    1.388   .     A
C906   H944    1.079   .     S
C906   C908    1.389   .     A
C906   C933    1.401   .     A
C907   O959    1.377   .     S
C908   O964    1.377   .     S
C908   C194    1.405   1_556 S
C909   H945    1.081   .     S
C909   C1403   1.391   1_545 S
C909   C750    1.395   1_655 S
C910   H946    1.079   .     S
C910   C1158   1.393   .     S
C911   C969    1.484   .     S
C911   C913    1.413   .     A
C911   C1155   1.391   .     S
C912   C973    1.487   .     S
C912   C914    1.412   .     A
C912   C1402   1.393   1_545 S
C913   C746    1.397   1_655 S
C915   C977    1.467   .     S
C915   C917    1.429   .     A
C915   N950    1.389   .     A
C916   C918    1.429   .     A
C916   C981    1.467   .     S
C916   N949    1.390   .     A
C917   N949    1.361   .     A
C917   H947    1.083   .     S
C918   N950    1.360   .     A
C918   H948    1.083   .     S
C919   O957    1.311   .     A
C919   C921    1.461   .     S
C919   O791    1.313   1_655 S
C920   O958    1.312   .     A
C920   C922    1.462   .     S
C921   C925    1.391   .     A
C921   C927    1.400   .     A
C922   C926    1.392   .     A
C922   C928    1.399   .     A
C923   C925    1.383   .     A
C923   C931    1.397   .     A
C923   H941    1.059   .     S
C924   H942    1.058   .     S
C924   C926    1.383   .     A
C924   C932    1.396   .     A
C925   H776    1.084   1_655 S
C927   C929    1.408   .     A
C927   H938    1.077   .     S
C928   C930    1.408   .     A
C928   H937    1.075   .     S
C929   C931    1.410   .     A
C929   C933    1.412   .     A
C930   C934    1.411   .     A
C930   C932    1.410   .     A
C931   C169    1.405   1_556 S
C933   C196    1.418   1_556 S
Cu935  O954    1.964   .     S
Cu935  O955    1.966   .     S
Cu935  N949    2.058   .     S
Cu935  O958    1.979   .     S
Cu935  O951    1.955   .     S
Cu936  O953    1.964   .     S
Cu936  O957    1.979   .     S
Cu936  O952    1.955   .     S
Cu936  O956    1.966   .     S
Cu936  N950    2.058   .     S
Cu936  Cu771   2.738   1_655 S
H939   C762    1.083   1_655 S
O953   C739    1.312   1_655 S
O956   C756    1.312   1_655 S
O959   C960    1.411   .     S
C960   H962    1.114   .     S
C960   H963    1.109   .     S
C960   H961    1.112   .     S
O964   C965    1.411   .     S
C965   H967    1.114   .     S
C965   H968    1.109   .     S
C965   H966    1.112   .     S
C969   O970    1.224   .     D
C969   O971    1.395   .     S
O971   H972    1.013   .     S
C973   O975    1.398   .     S
C973   O974    1.224   .     D
O975   H976    1.014   .     S
C977   O979    1.395   .     S
C977   O978    1.223   .     D
O979   H980    1.013   .     S
C981   O983    1.393   .     S
C981   O982    1.223   .     D
O983   H984    1.013   .     S
C985   O1033   1.305   .     A
C985   C996    1.449   .     S
C985   O1199   1.312   1_455 S
C986   O1034   1.305   .     A
C986   C995    1.453   .     S
C986   O1118   1.313   .     S
C987   C1016   1.401   .     A
C987   H1025   1.079   .     S
C987   C989    1.388   .     A
C988   H1026   1.079   .     S
C988   C990    1.389   .     A
C988   C1015   1.401   .     A
C989   O1041   1.377   .     S
C990   O1046   1.377   .     S
C990   C276    1.405   1_556 S
C991   H1027   1.081   .     S
C991   C1078   1.395   .     S
C992   H1028   1.079   .     S
C992   C1240   1.393   .     S
C992   C1159   1.397   1_455 S
C993   C1051   1.484   .     S
C993   C995    1.413   .     A
C993   C1237   1.391   .     S
C994   C1055   1.487   .     S
C994   C996    1.412   .     A
C995   C1074   1.397   .     S
C996   C1155   1.395   1_455 S
C997   C1059   1.467   .     S
C997   C999    1.429   .     A
C997   N1032   1.389   .     A
C998   C1000   1.429   .     A
C998   C1063   1.467   .     S
C998   N1031   1.390   .     A
C999   N1031   1.361   .     A
C999   H1029   1.083   .     S
C1000  N1032   1.360   .     A
C1000  H1030   1.083   .     S
C1001  O1039   1.311   .     A
C1001  C1003   1.461   .     S
C1001  O1119   1.313   .     S
C1002  O1040   1.312   .     A
C1002  C1004   1.462   .     S
C1002  O1202   1.312   1_455 S
C1003  C1007   1.391   .     A
C1003  C1009   1.400   .     A
C1004  C1008   1.392   .     A
C1004  C1010   1.399   .     A
C1005  C1007   1.383   .     A
C1005  C1013   1.397   .     A
C1005  H1023   1.059   .     S
C1006  H1024   1.058   .     S
C1006  C1008   1.383   .     A
C1006  C1014   1.396   .     A
C1007  H1104   1.084   .     S
C1008  H1185   1.083   1_455 S
C1009  C1011   1.408   .     A
C1009  H1020   1.077   .     S
C1010  C1012   1.408   .     A
C1010  H1019   1.075   .     S
C1011  C1013   1.410   .     A
C1011  C1015   1.412   .     A
C1012  C1016   1.411   .     A
C1012  C1014   1.410   .     A
C1013  C251    1.405   1_556 S
C1015  C278    1.418   1_556 S
Cu1017 O1036   1.964   .     S
Cu1017 O1037   1.966   .     S
Cu1017 N1031   2.058   .     S
Cu1017 O1040   1.979   .     S
Cu1017 O1033   1.955   .     S
Cu1017 Cu1182  2.738   1_455 S
Cu1018 O1035   1.964   .     S
Cu1018 O1039   1.979   .     S
Cu1018 O1034   1.955   .     S
Cu1018 O1038   1.966   .     S
Cu1018 N1032   2.058   .     S
Cu1018 Cu1099  2.738   .     S
H1021  C1090   1.083   .     S
H1022  C1171   1.084   1_455 S
O1035  C1067   1.312   .     S
O1036  C1150   1.313   1_455 S
O1037  C1165   1.313   1_455 S
O1038  C1084   1.312   .     S
O1041  C1042   1.411   .     S
C1042  H1044   1.114   .     S
C1042  H1045   1.109   .     S
C1042  H1043   1.112   .     S
O1046  C1047   1.411   .     S
C1047  H1049   1.114   .     S
C1047  H1050   1.109   .     S
C1047  H1048   1.112   .     S
C1051  O1052   1.224   .     D
C1051  O1053   1.395   .     S
O1053  H1054   1.013   .     S
C1055  O1057   1.398   .     S
C1055  O1056   1.224   .     D
O1057  H1058   1.014   .     S
C1059  O1061   1.395   .     S
C1059  O1060   1.223   .     D
O1061  H1062   1.013   .     S
C1063  O1065   1.393   .     S
C1063  O1064   1.223   .     D
O1065  H1066   1.013   .     S
C1067  O1115   1.305   .     A
C1067  C1078   1.449   .     S
C1068  O1116   1.305   .     A
C1068  C1077   1.453   .     S
C1068  O1200   1.313   .     S
C1069  C1098   1.401   .     A
C1069  H1107   1.079   .     S
C1069  C1071   1.388   .     A
C1070  H1108   1.079   .     S
C1070  C1072   1.389   .     A
C1070  C1097   1.401   .     A
C1071  O1123   1.377   .     S
C1072  O1128   1.377   .     S
C1072  C358    1.405   1_556 S
C1073  H1109   1.081   .     S
C1073  C1160   1.395   .     S
C1074  H1110   1.079   .     S
C1074  C1322   1.393   .     S
C1075  C1133   1.484   .     S
C1075  C1077   1.413   .     A
C1075  C1319   1.391   .     S
C1076  C1137   1.487   .     S
C1076  C1078   1.412   .     A
C1077  C1156   1.397   .     S
C1079  C1141   1.467   .     S
C1079  C1081   1.429   .     A
C1079  N1114   1.389   .     A
C1080  C1082   1.429   .     A
C1080  C1145   1.467   .     S
C1080  N1113   1.390   .     A
C1081  N1113   1.361   .     A
C1081  H1111   1.083   .     S
C1082  N1114   1.360   .     A
C1082  H1112   1.083   .     S
C1083  O1121   1.311   .     A
C1083  C1085   1.461   .     S
C1083  O1201   1.313   .     S
C1084  O1122   1.312   .     A
C1084  C1086   1.462   .     S
C1085  C1089   1.391   .     A
C1085  C1091   1.400   .     A
C1086  C1090   1.392   .     A
C1086  C1092   1.399   .     A
C1087  C1089   1.383   .     A
C1087  C1095   1.397   .     A
C1087  H1105   1.059   .     S
C1088  H1106   1.058   .     S
C1088  C1090   1.383   .     A
C1088  C1096   1.396   .     A
C1089  H1186   1.084   .     S
C1091  C1093   1.408   .     A
C1091  H1102   1.077   .     S
C1092  C1094   1.408   .     A
C1092  H1101   1.075   .     S
C1093  C1095   1.410   .     A
C1093  C1097   1.412   .     A
C1094  C1098   1.411   .     A
C1094  C1096   1.410   .     A
C1095  C333    1.405   1_556 S
C1097  C360    1.418   1_556 S
Cu1099 O1118   1.964   .     S
Cu1099 O1119   1.966   .     S
Cu1099 N1113   2.058   .     S
Cu1099 O1122   1.979   .     S
Cu1099 O1115   1.955   .     S
Cu1100 O1117   1.964   .     S
Cu1100 O1121   1.979   .     S
Cu1100 O1116   1.955   .     S
Cu1100 O1120   1.966   .     S
Cu1100 N1114   2.058   .     S
Cu1100 Cu1181  2.738   .     S
H1103  C1172   1.083   .     S
O1117  C1149   1.312   .     S
O1120  C1166   1.312   .     S
O1123  C1124   1.411   .     S
C1124  H1126   1.114   .     S
C1124  H1127   1.109   .     S
C1124  H1125   1.112   .     S
O1128  C1129   1.411   .     S
C1129  H1131   1.114   .     S
C1129  H1132   1.109   .     S
C1129  H1130   1.112   .     S
C1133  O1134   1.224   .     D
C1133  O1135   1.395   .     S
O1135  H1136   1.013   .     S
C1137  O1139   1.398   .     S
C1137  O1138   1.224   .     D
O1139  H1140   1.014   .     S
C1141  O1143   1.395   .     S
C1141  O1142   1.223   .     D
O1143  H1144   1.013   .     S
C1145  O1147   1.393   .     S
C1145  O1146   1.223   .     D
O1147  H1148   1.013   .     S
C1149  O1197   1.305   .     A
C1149  C1160   1.449   .     S
C1150  O1198   1.305   .     A
C1150  C1159   1.453   .     S
C1150  O1036   1.313   1_655 S
C1151  C1180   1.401   .     A
C1151  H1189   1.079   .     S
C1151  C1153   1.388   .     A
C1152  H1190   1.079   .     S
C1152  C1154   1.389   .     A
C1152  C1179   1.401   .     A
C1153  O1205   1.377   .     S
C1154  O1210   1.377   .     S
C1154  C440    1.405   1_556 S
C1155  H1191   1.081   .     S
C1155  C996    1.395   1_655 S
C1156  H1192   1.079   .     S
C1156  C1404   1.393   .     S
C1157  C1215   1.484   .     S
C1157  C1159   1.413   .     A
C1157  C1401   1.391   .     S
C1158  C1219   1.487   .     S
C1158  C1160   1.412   .     A
C1159  C992    1.397   1_655 S
C1161  C1223   1.467   .     S
C1161  C1163   1.429   .     A
C1161  N1196   1.389   .     A
C1162  C1164   1.429   .     A
C1162  C1227   1.467   .     S
C1162  N1195   1.390   .     A
C1163  N1195   1.361   .     A
C1163  H1193   1.083   .     S
C1164  N1196   1.360   .     A
C1164  H1194   1.083   .     S
C1165  O1203   1.311   .     A
C1165  C1167   1.461   .     S
C1165  O1037   1.313   1_655 S
C1166  O1204   1.312   .     A
C1166  C1168   1.462   .     S
C1167  C1171   1.391   .     A
C1167  C1173   1.400   .     A
C1168  C1172   1.392   .     A
C1168  C1174   1.399   .     A
C1169  C1171   1.383   .     A
C1169  C1177   1.397   .     A
C1169  H1187   1.059   .     S
C1170  H1188   1.058   .     S
C1170  C1172   1.383   .     A
C1170  C1178   1.396   .     A
C1171  H1022   1.084   1_655 S
C1173  C1175   1.408   .     A
C1173  H1184   1.077   .     S
C1174  C1176   1.408   .     A
C1174  H1183   1.075   .     S
C1175  C1177   1.410   .     A
C1175  C1179   1.412   .     A
C1176  C1180   1.411   .     A
C1176  C1178   1.410   .     A
C1177  C415    1.405   1_556 S
C1179  C442    1.418   1_556 S
Cu1181 O1200   1.964   .     S
Cu1181 O1201   1.966   .     S
Cu1181 N1195   2.058   .     S
Cu1181 O1204   1.979   .     S
Cu1181 O1197   1.955   .     S
Cu1182 O1199   1.964   .     S
Cu1182 O1203   1.979   .     S
Cu1182 O1198   1.955   .     S
Cu1182 O1202   1.966   .     S
Cu1182 N1196   2.058   .     S
Cu1182 Cu1017  2.738   1_655 S
H1185  C1008   1.083   1_655 S
O1199  C985    1.312   1_655 S
O1202  C1002   1.312   1_655 S
O1205  C1206   1.411   .     S
C1206  H1208   1.114   .     S
C1206  H1209   1.109   .     S
C1206  H1207   1.112   .     S
O1210  C1211   1.411   .     S
C1211  H1213   1.114   .     S
C1211  H1214   1.109   .     S
C1211  H1212   1.112   .     S
C1215  O1216   1.224   .     D
C1215  O1217   1.395   .     S
O1217  H1218   1.013   .     S
C1219  O1221   1.398   .     S
C1219  O1220   1.224   .     D
O1221  H1222   1.014   .     S
C1223  O1225   1.395   .     S
C1223  O1224   1.223   .     D
O1225  H1226   1.013   .     S
C1227  O1229   1.393   .     S
C1227  O1228   1.223   .     D
O1229  H1230   1.013   .     S
C1231  O1279   1.305   .     A
C1231  C1242   1.449   .     S
C1231  O1445   1.312   1_455 S
C1232  O1280   1.305   .     A
C1232  C1241   1.453   .     S
C1232  O1364   1.313   .     S
C1233  C1262   1.401   .     A
C1233  H1271   1.079   .     S
C1233  C1235   1.388   .     A
C1234  H1272   1.079   .     S
C1234  C1236   1.389   .     A
C1234  C1261   1.401   .     A
C1235  O1287   1.377   .     S
C1236  O1292   1.377   .     S
C1236  C522    1.405   1_556 S
C1237  H1273   1.081   .     S
C1237  C1324   1.395   .     S
C1238  H1274   1.079   .     S
C1238  C748    1.393   1_565 S
C1238  C1405   1.397   1_455 S
C1239  C1297   1.484   .     S
C1239  C1241   1.413   .     A
C1239  C745    1.391   1_565 S
C1240  C1301   1.487   .     S
C1240  C1242   1.412   .     A
C1241  C1320   1.397   .     S
C1242  C1401   1.395   1_455 S
C1243  C1305   1.467   .     S
C1243  C1245   1.429   .     A
C1243  N1278   1.389   .     A
C1244  C1246   1.429   .     A
C1244  C1309   1.467   .     S
C1244  N1277   1.390   .     A
C1245  N1277   1.361   .     A
C1245  H1275   1.083   .     S
C1246  N1278   1.360   .     A
C1246  H1276   1.083   .     S
C1247  O1285   1.311   .     A
C1247  C1249   1.461   .     S
C1247  O1365   1.313   .     S
C1248  O1286   1.312   .     A
C1248  C1250   1.462   .     S
C1248  O1448   1.312   1_455 S
C1249  C1253   1.391   .     A
C1249  C1255   1.400   .     A
C1250  C1254   1.392   .     A
C1250  C1256   1.399   .     A
C1251  C1253   1.383   .     A
C1251  C1259   1.397   .     A
C1251  H1269   1.059   .     S
C1252  H1270   1.058   .     S
C1252  C1254   1.383   .     A
C1252  C1260   1.396   .     A
C1253  H1350   1.084   .     S
C1254  H1431   1.083   1_455 S
C1255  C1257   1.408   .     A
C1255  H1266   1.077   .     S
C1256  C1258   1.408   .     A
C1256  H1265   1.075   .     S
C1257  C1259   1.410   .     A
C1257  C1261   1.412   .     A
C1258  C1262   1.411   .     A
C1258  C1260   1.410   .     A
C1259  C497    1.405   1_556 S
C1261  C524    1.418   1_556 S
Cu1263 O1282   1.964   .     S
Cu1263 O1283   1.966   .     S
Cu1263 N1277   2.058   .     S
Cu1263 O1286   1.979   .     S
Cu1263 O1279   1.955   .     S
Cu1263 Cu1428  2.738   1_455 S
Cu1264 O1281   1.964   .     S
Cu1264 O1285   1.979   .     S
Cu1264 O1280   1.955   .     S
Cu1264 O1284   1.966   .     S
Cu1264 N1278   2.058   .     S
Cu1264 Cu1345  2.738   .     S
H1267  C1336   1.083   .     S
H1268  C1417   1.084   1_455 S
O1281  C1313   1.312   .     S
O1282  C1396   1.313   1_455 S
O1283  C1411   1.313   1_455 S
O1284  C1330   1.312   .     S
O1287  C1288   1.411   .     S
C1288  H1290   1.114   .     S
C1288  H1291   1.109   .     S
C1288  H1289   1.112   .     S
O1292  C1293   1.411   .     S
C1293  H1295   1.114   .     S
C1293  H1296   1.109   .     S
C1293  H1294   1.112   .     S
C1297  O1298   1.224   .     D
C1297  O1299   1.395   .     S
O1299  H1300   1.013   .     S
C1301  O1303   1.398   .     S
C1301  O1302   1.224   .     D
O1303  H1304   1.014   .     S
C1305  O1307   1.395   .     S
C1305  O1306   1.223   .     D
O1307  H1308   1.013   .     S
C1309  O1311   1.393   .     S
C1309  O1310   1.223   .     D
O1311  H1312   1.013   .     S
C1313  O1361   1.305   .     A
C1313  C1324   1.449   .     S
C1314  O1362   1.305   .     A
C1314  C1323   1.453   .     S
C1314  O1446   1.313   .     S
C1315  C1344   1.401   .     A
C1315  H1353   1.079   .     S
C1315  C1317   1.388   .     A
C1316  H1354   1.079   .     S
C1316  C1318   1.389   .     A
C1316  C1343   1.401   .     A
C1317  O1369   1.377   .     S
C1318  O1374   1.377   .     S
C1318  C604    1.405   1_556 S
C1319  H1355   1.081   .     S
C1319  C1406   1.395   .     S
C1320  H1356   1.079   .     S
C1320  C830    1.393   1_565 S
C1321  C1379   1.484   .     S
C1321  C1323   1.413   .     A
C1321  C827    1.391   1_565 S
C1322  C1383   1.487   .     S
C1322  C1324   1.412   .     A
C1323  C1402   1.397   .     S
C1325  C1387   1.467   .     S
C1325  C1327   1.429   .     A
C1325  N1360   1.389   .     A
C1326  C1328   1.429   .     A
C1326  C1391   1.467   .     S
C1326  N1359   1.390   .     A
C1327  N1359   1.361   .     A
C1327  H1357   1.083   .     S
C1328  N1360   1.360   .     A
C1328  H1358   1.083   .     S
C1329  O1367   1.311   .     A
C1329  C1331   1.461   .     S
C1329  O1447   1.313   .     S
C1330  O1368   1.312   .     A
C1330  C1332   1.462   .     S
C1331  C1335   1.391   .     A
C1331  C1337   1.400   .     A
C1332  C1336   1.392   .     A
C1332  C1338   1.399   .     A
C1333  C1335   1.383   .     A
C1333  C1341   1.397   .     A
C1333  H1351   1.059   .     S
C1334  H1352   1.058   .     S
C1334  C1336   1.383   .     A
C1334  C1342   1.396   .     A
C1335  H1432   1.084   .     S
C1337  C1339   1.408   .     A
C1337  H1348   1.077   .     S
C1338  C1340   1.408   .     A
C1338  H1347   1.075   .     S
C1339  C1341   1.410   .     A
C1339  C1343   1.412   .     A
C1340  C1344   1.411   .     A
C1340  C1342   1.410   .     A
C1341  C579    1.405   1_556 S
C1343  C606    1.418   1_556 S
Cu1345 O1364   1.964   .     S
Cu1345 O1365   1.966   .     S
Cu1345 N1359   2.058   .     S
Cu1345 O1368   1.979   .     S
Cu1345 O1361   1.955   .     S
Cu1346 O1363   1.964   .     S
Cu1346 O1367   1.979   .     S
Cu1346 O1362   1.955   .     S
Cu1346 O1366   1.966   .     S
Cu1346 N1360   2.058   .     S
Cu1346 Cu1427  2.738   .     S
H1349  C1418   1.083   .     S
O1363  C1395   1.312   .     S
O1366  C1412   1.312   .     S
O1369  C1370   1.411   .     S
C1370  H1372   1.114   .     S
C1370  H1373   1.109   .     S
C1370  H1371   1.112   .     S
O1374  C1375   1.411   .     S
C1375  H1377   1.114   .     S
C1375  H1378   1.109   .     S
C1375  H1376   1.112   .     S
C1379  O1380   1.224   .     D
C1379  O1381   1.395   .     S
O1381  H1382   1.013   .     S
C1383  O1385   1.398   .     S
C1383  O1384   1.224   .     D
O1385  H1386   1.014   .     S
C1387  O1389   1.395   .     S
C1387  O1388   1.223   .     D
O1389  H1390   1.013   .     S
C1391  O1393   1.393   .     S
C1391  O1392   1.223   .     D
O1393  H1394   1.013   .     S
C1395  O1443   1.305   .     A
C1395  C1406   1.449   .     S
C1396  O1444   1.305   .     A
C1396  C1405   1.453   .     S
C1396  O1282   1.313   1_655 S
C1397  C1426   1.401   .     A
C1397  H1435   1.079   .     S
C1397  C1399   1.388   .     A
C1398  H1436   1.079   .     S
C1398  C1400   1.389   .     A
C1398  C1425   1.401   .     A
C1399  O1451   1.377   .     S
C1400  O1456   1.377   .     S
C1400  C686    1.405   1_556 S
C1401  H1437   1.081   .     S
C1401  C1242   1.395   1_655 S
C1402  H1438   1.079   .     S
C1402  C912    1.393   1_565 S
C1403  C1461   1.484   .     S
C1403  C1405   1.413   .     A
C1403  C909    1.391   1_565 S
C1404  C1465   1.487   .     S
C1404  C1406   1.412   .     A
C1405  C1238   1.397   1_655 S
C1407  C1469   1.467   .     S
C1407  C1409   1.429   .     A
C1407  N1442   1.389   .     A
C1408  C1410   1.429   .     A
C1408  C1473   1.467   .     S
C1408  N1441   1.390   .     A
C1409  N1441   1.361   .     A
C1409  H1439   1.083   .     S
C1410  N1442   1.360   .     A
C1410  H1440   1.083   .     S
C1411  O1449   1.311   .     A
C1411  C1413   1.461   .     S
C1411  O1283   1.313   1_655 S
C1412  O1450   1.312   .     A
C1412  C1414   1.462   .     S
C1413  C1417   1.391   .     A
C1413  C1419   1.400   .     A
C1414  C1418   1.392   .     A
C1414  C1420   1.399   .     A
C1415  C1417   1.383   .     A
C1415  C1423   1.397   .     A
C1415  H1433   1.059   .     S
C1416  H1434   1.058   .     S
C1416  C1418   1.383   .     A
C1416  C1424   1.396   .     A
C1417  H1268   1.084   1_655 S
C1419  C1421   1.408   .     A
C1419  H1430   1.077   .     S
C1420  C1422   1.408   .     A
C1420  H1429   1.075   .     S
C1421  C1423   1.410   .     A
C1421  C1425   1.412   .     A
C1422  C1426   1.411   .     A
C1422  C1424   1.410   .     A
C1423  C661    1.405   1_556 S
C1425  C688    1.418   1_556 S
Cu1427 O1446   1.964   .     S
Cu1427 O1447   1.966   .     S
Cu1427 N1441   2.058   .     S
Cu1427 O1450   1.979   .     S
Cu1427 O1443   1.955   .     S
Cu1428 O1445   1.964   .     S
Cu1428 O1449   1.979   .     S
Cu1428 O1444   1.955   .     S
Cu1428 O1448   1.966   .     S
Cu1428 N1442   2.058   .     S
Cu1428 Cu1263  2.738   1_655 S
H1431  C1254   1.083   1_655 S
O1445  C1231   1.312   1_655 S
O1448  C1248   1.312   1_655 S
O1451  C1452   1.411   .     S
C1452  H1454   1.114   .     S
C1452  H1455   1.109   .     S
C1452  H1453   1.112   .     S
O1456  C1457   1.411   .     S
C1457  H1459   1.114   .     S
C1457  H1460   1.109   .     S
C1457  H1458   1.112   .     S
C1461  O1462   1.224   .     D
C1461  O1463   1.395   .     S
O1463  H1464   1.013   .     S
C1465  O1467   1.398   .     S
C1465  O1466   1.224   .     D
O1467  H1468   1.014   .     S
C1469  O1471   1.395   .     S
C1469  O1470   1.223   .     D
O1471  H1472   1.013   .     S
C1473  O1475   1.393   .     S
C1473  O1474   1.223   .     D
O1475  H1476   1.013   .     S
