data_str_m2_o1_o16_pcu_sym.3
_audit_creation_date              2020-01-03
_audit_creation_method            'Materials Studio'
_symmetry_space_group_name_H-M    'P1'
_symmetry_Int_Tables_number       1
_symmetry_cell_setting            triclinic
loop_
_symmetry_equiv_pos_as_xyz
  x,y,z
_cell_length_a                    28.5251
_cell_length_b                    32.5018
_cell_length_c                    26.8895
_cell_angle_alpha                 90.1641
_cell_angle_beta                  72.0500
_cell_angle_gamma                 90.0279
loop_
_atom_site_label
_atom_site_type_symbol
_atom_site_fract_x
_atom_site_fract_y
_atom_site_fract_z
_atom_site_U_iso_or_equiv
_atom_site_adp_type
_atom_site_occupancy
C1     C     0.16667   0.24599   0.25005   0.00000  Uiso   1.00
C2     C     0.12389   0.16345   0.40782   0.00000  Uiso   1.00
C3     C     0.20923   0.31208   0.25019   0.00000  Uiso   1.00
C4     C     0.14023   0.16476   0.35020   0.00000  Uiso   1.00
C5     C     0.20924   0.02132   0.25012   0.00000  Uiso   1.00
C6     C     0.16668   0.04274   0.24994   0.00000  Uiso   1.00
C7     C     0.12413   0.02127   0.24979   0.00000  Uiso   1.00
C8     C     0.12412   0.31203   0.24986   0.00000  Uiso   1.00
C9     C     0.16667   0.29060   0.25005   0.00000  Uiso   1.00
C10    C     0.29970   0.19380   0.28045   0.00000  Uiso   1.00
C11    C     0.01598   0.19372   0.28054   0.00000  Uiso   1.00
C12    C     0.14423   0.16043   0.48995   0.00000  Uiso   1.00
C13    C     0.03360   0.13947   0.21966   0.00000  Uiso   1.00
C14    C     0.31727   0.13937   0.21987   0.00000  Uiso   1.00
C15    C     0.16667   0.08735   0.24995   0.00000  Uiso   1.00
C16    C     0.19324   0.16504   0.14973   0.00000  Uiso   1.00
C17    C     0.26185   0.12778   0.01245   0.00000  Uiso   1.00
C18    C     0.20877   0.15817   0.09265   0.00000  Uiso   1.00
C19    C     0.07719   0.17914   0.43502   0.00000  Uiso   1.00
C20    C     0.06331   0.18432   0.48886   0.00000  Uiso   1.00
C21    C     0.09654   0.17601   0.01608   0.00000  Uiso   1.00
C22    C     0.29314   0.12858   0.08941   0.00000  Uiso   1.00
C23    C     0.15591   0.15054   0.43603   0.00000  Uiso   1.00
C24    C     0.18057   0.15389   0.01550   0.00000  Uiso   1.00
C25    C     0.22550   0.13419   0.48829   0.00000  Uiso   1.00
C26    C     0.23347   0.12012   0.43741   0.00000  Uiso   1.00
C27    C     0.19893   0.12756   0.41193   0.00000  Uiso   1.00
C28    C     0.17395   0.16680   0.06702   0.00000  Uiso   1.00
C29    C     0.25395   0.13908   0.06464   0.00000  Uiso   1.00
Cu30   Cu    0.11978   0.16666   0.25000   0.00000  Uiso   1.00
Cu31   Cu    0.21355   0.16667   0.25000   0.00000  Uiso   1.00
H32    H     0.24251   0.03735   0.25022   0.00000  Uiso   1.00
H33    H     0.05169   0.18840   0.41449   0.00000  Uiso   1.00
H34    H     0.08329   0.18118   0.05768   0.00000  Uiso   1.00
H35    H     0.02700   0.19613   0.00948   0.00000  Uiso   1.00
H36    H     0.20608   0.11414   0.37351   0.00000  Uiso   1.00
H37    H     0.24249   0.29609   0.25035   0.00000  Uiso   1.00
H38    H     0.27790   0.10681   0.12212   0.00000  Uiso   1.00
H39    H     0.32559   0.11355   0.06128   0.00000  Uiso   1.00
H40    H     0.30651   0.15699   0.10364   0.00000  Uiso   1.00
H41    H     0.30551   0.11728   0.19610   0.00000  Uiso   1.00
H42    H     0.09086   0.03726   0.24963   0.00000  Uiso   1.00
H43    H     0.09084   0.29600   0.24977   0.00000  Uiso   1.00
H44    H     0.27392   0.21551   0.30486   0.00000  Uiso   1.00
H45    H     0.02763   0.21534   0.30504   0.00000  Uiso   1.00
H46    H     0.05934   0.11767   0.19536   0.00000  Uiso   1.00
H47    H     0.26670   0.10331   0.41705   0.00000  Uiso   1.00
H48    H     0.29607   0.11281   0.49082   0.00000  Uiso   1.00
H49    H     0.14145   0.18356   0.08856   0.00000  Uiso   1.00
N50    N     0.04931   0.16666   0.24999   0.00000  Uiso   1.00
N51    N     0.28402   0.16669   0.24999   0.00000  Uiso   1.00
O52    O     0.12708   0.22678   0.25001   0.00000  Uiso   1.00
O53    O     0.20627   0.22679   0.25000   0.00000  Uiso   1.00
O54    O     0.10775   0.16665   0.32549   0.00000  Uiso   1.00
O55    O     0.18694   0.16666   0.32549   0.00000  Uiso   1.00
O56    O     0.12706   0.10654   0.24999   0.00000  Uiso   1.00
O57    O     0.20625   0.10655   0.24999   0.00000  Uiso   1.00
O58    O     0.14640   0.16667   0.17451   0.00000  Uiso   1.00
O59    O     0.22559   0.16668   0.17451   0.00000  Uiso   1.00
C60    C     0.50001   0.24599   0.25005   0.00000  Uiso   1.00
C61    C     0.45722   0.16345   0.40782   0.00000  Uiso   1.00
C62    C     0.54256   0.31208   0.25019   0.00000  Uiso   1.00
C63    C     0.47356   0.16476   0.35020   0.00000  Uiso   1.00
C64    C     0.54257   0.02132   0.25012   0.00000  Uiso   1.00
C65    C     0.50001   0.04274   0.24994   0.00000  Uiso   1.00
C66    C     0.45746   0.02127   0.24979   0.00000  Uiso   1.00
C67    C     0.45745   0.31203   0.24986   0.00000  Uiso   1.00
C68    C     0.50001   0.29060   0.25005   0.00000  Uiso   1.00
C69    C     0.63304   0.19380   0.28045   0.00000  Uiso   1.00
C70    C     0.34931   0.19372   0.28054   0.00000  Uiso   1.00
C71    C     0.47756   0.16043   0.48995   0.00000  Uiso   1.00
C72    C     0.36693   0.13947   0.21966   0.00000  Uiso   1.00
C73    C     0.65060   0.13937   0.21987   0.00000  Uiso   1.00
C74    C     0.50000   0.08735   0.24995   0.00000  Uiso   1.00
C75    C     0.52657   0.16504   0.14973   0.00000  Uiso   1.00
C76    C     0.59518   0.12778   0.01245   0.00000  Uiso   1.00
C77    C     0.54211   0.15817   0.09265   0.00000  Uiso   1.00
C78    C     0.41053   0.17914   0.43502   0.00000  Uiso   1.00
C79    C     0.39664   0.18432   0.48886   0.00000  Uiso   1.00
C80    C     0.42987   0.17601   0.01608   0.00000  Uiso   1.00
C81    C     0.62648   0.12858   0.08941   0.00000  Uiso   1.00
C82    C     0.48924   0.15054   0.43603   0.00000  Uiso   1.00
C83    C     0.51391   0.15389   0.01550   0.00000  Uiso   1.00
C84    C     0.55883   0.13419   0.48829   0.00000  Uiso   1.00
C85    C     0.56680   0.12012   0.43741   0.00000  Uiso   1.00
C86    C     0.53226   0.12756   0.41193   0.00000  Uiso   1.00
C87    C     0.50728   0.16680   0.06702   0.00000  Uiso   1.00
C88    C     0.58729   0.13908   0.06464   0.00000  Uiso   1.00
Cu89   Cu    0.45311   0.16666   0.25000   0.00000  Uiso   1.00
Cu90   Cu    0.54689   0.16667   0.25000   0.00000  Uiso   1.00
H91    H     0.57585   0.03735   0.25022   0.00000  Uiso   1.00
H92    H     0.38502   0.18840   0.41449   0.00000  Uiso   1.00
H93    H     0.41662   0.18118   0.05768   0.00000  Uiso   1.00
H94    H     0.36033   0.19613   0.00948   0.00000  Uiso   1.00
H95    H     0.53942   0.11414   0.37351   0.00000  Uiso   1.00
H96    H     0.57583   0.29609   0.25035   0.00000  Uiso   1.00
H97    H     0.61124   0.10681   0.12212   0.00000  Uiso   1.00
H98    H     0.65893   0.11355   0.06128   0.00000  Uiso   1.00
H99    H     0.63984   0.15699   0.10364   0.00000  Uiso   1.00
H100   H     0.63885   0.11728   0.19610   0.00000  Uiso   1.00
H101   H     0.42420   0.03726   0.24963   0.00000  Uiso   1.00
H102   H     0.42417   0.29600   0.24977   0.00000  Uiso   1.00
H103   H     0.60726   0.21551   0.30486   0.00000  Uiso   1.00
H104   H     0.36096   0.21534   0.30504   0.00000  Uiso   1.00
H105   H     0.39267   0.11767   0.19536   0.00000  Uiso   1.00
H106   H     0.60003   0.10331   0.41705   0.00000  Uiso   1.00
H107   H     0.62941   0.11281   0.49082   0.00000  Uiso   1.00
H108   H     0.47478   0.18356   0.08856   0.00000  Uiso   1.00
N109   N     0.38265   0.16666   0.24999   0.00000  Uiso   1.00
N110   N     0.61735   0.16669   0.24999   0.00000  Uiso   1.00
O111   O     0.46042   0.22678   0.25001   0.00000  Uiso   1.00
O112   O     0.53961   0.22679   0.25000   0.00000  Uiso   1.00
O113   O     0.44108   0.16665   0.32549   0.00000  Uiso   1.00
O114   O     0.52027   0.16666   0.32549   0.00000  Uiso   1.00
O115   O     0.46039   0.10654   0.24999   0.00000  Uiso   1.00
O116   O     0.53958   0.10655   0.24999   0.00000  Uiso   1.00
O117   O     0.47973   0.16667   0.17451   0.00000  Uiso   1.00
O118   O     0.55892   0.16668   0.17451   0.00000  Uiso   1.00
C119   C     0.83334   0.24599   0.25005   0.00000  Uiso   1.00
C120   C     0.79055   0.16345   0.40782   0.00000  Uiso   1.00
C121   C     0.87590   0.31208   0.25019   0.00000  Uiso   1.00
C122   C     0.80689   0.16476   0.35020   0.00000  Uiso   1.00
C123   C     0.87591   0.02132   0.25012   0.00000  Uiso   1.00
C124   C     0.83335   0.04274   0.24994   0.00000  Uiso   1.00
C125   C     0.79079   0.02127   0.24979   0.00000  Uiso   1.00
C126   C     0.79078   0.31203   0.24986   0.00000  Uiso   1.00
C127   C     0.83334   0.29060   0.25005   0.00000  Uiso   1.00
C128   C     0.96637   0.19380   0.28045   0.00000  Uiso   1.00
C129   C     0.68265   0.19372   0.28054   0.00000  Uiso   1.00
C130   C     0.81089   0.16043   0.48995   0.00000  Uiso   1.00
C131   C     0.70027   0.13947   0.21966   0.00000  Uiso   1.00
C132   C     0.98393   0.13937   0.21987   0.00000  Uiso   1.00
C133   C     0.83333   0.08735   0.24995   0.00000  Uiso   1.00
C134   C     0.85991   0.16504   0.14973   0.00000  Uiso   1.00
C135   C     0.92851   0.12778   0.01245   0.00000  Uiso   1.00
C136   C     0.87544   0.15817   0.09265   0.00000  Uiso   1.00
C137   C     0.74386   0.17914   0.43502   0.00000  Uiso   1.00
C138   C     0.72997   0.18432   0.48886   0.00000  Uiso   1.00
C139   C     0.76321   0.17601   0.01608   0.00000  Uiso   1.00
C140   C     0.95981   0.12858   0.08941   0.00000  Uiso   1.00
C141   C     0.82258   0.15054   0.43603   0.00000  Uiso   1.00
C142   C     0.84724   0.15389   0.01550   0.00000  Uiso   1.00
C143   C     0.89216   0.13419   0.48829   0.00000  Uiso   1.00
C144   C     0.90013   0.12012   0.43741   0.00000  Uiso   1.00
C145   C     0.86559   0.12756   0.41193   0.00000  Uiso   1.00
C146   C     0.84062   0.16680   0.06702   0.00000  Uiso   1.00
C147   C     0.92062   0.13908   0.06464   0.00000  Uiso   1.00
Cu148  Cu    0.78645   0.16666   0.25000   0.00000  Uiso   1.00
Cu149  Cu    0.88022   0.16667   0.25000   0.00000  Uiso   1.00
H150   H     0.90918   0.03735   0.25022   0.00000  Uiso   1.00
H151   H     0.71835   0.18840   0.41449   0.00000  Uiso   1.00
H152   H     0.74995   0.18118   0.05768   0.00000  Uiso   1.00
H153   H     0.69367   0.19613   0.00948   0.00000  Uiso   1.00
H154   H     0.87275   0.11414   0.37351   0.00000  Uiso   1.00
H155   H     0.90916   0.29609   0.25035   0.00000  Uiso   1.00
H156   H     0.94457   0.10681   0.12212   0.00000  Uiso   1.00
H157   H     0.99226   0.11355   0.06128   0.00000  Uiso   1.00
H158   H     0.97318   0.15699   0.10364   0.00000  Uiso   1.00
H159   H     0.97218   0.11728   0.19610   0.00000  Uiso   1.00
H160   H     0.75753   0.03726   0.24963   0.00000  Uiso   1.00
H161   H     0.75751   0.29600   0.24977   0.00000  Uiso   1.00
H162   H     0.94059   0.21551   0.30486   0.00000  Uiso   1.00
H163   H     0.69429   0.21534   0.30504   0.00000  Uiso   1.00
H164   H     0.72601   0.11767   0.19536   0.00000  Uiso   1.00
H165   H     0.93336   0.10331   0.41705   0.00000  Uiso   1.00
H166   H     0.96274   0.11281   0.49082   0.00000  Uiso   1.00
H167   H     0.80811   0.18356   0.08856   0.00000  Uiso   1.00
N168   N     0.71598   0.16666   0.24999   0.00000  Uiso   1.00
N169   N     0.95069   0.16669   0.24999   0.00000  Uiso   1.00
O170   O     0.79375   0.22678   0.25001   0.00000  Uiso   1.00
O171   O     0.87294   0.22679   0.25000   0.00000  Uiso   1.00
O172   O     0.77441   0.16665   0.32549   0.00000  Uiso   1.00
O173   O     0.85360   0.16666   0.32549   0.00000  Uiso   1.00
O174   O     0.79373   0.10654   0.24999   0.00000  Uiso   1.00
O175   O     0.87292   0.10655   0.24999   0.00000  Uiso   1.00
O176   O     0.81306   0.16667   0.17451   0.00000  Uiso   1.00
O177   O     0.89225   0.16668   0.17451   0.00000  Uiso   1.00
C178   C     0.16667   0.57932   0.25005   0.00000  Uiso   1.00
C179   C     0.12389   0.49678   0.40782   0.00000  Uiso   1.00
C180   C     0.20923   0.64542   0.25019   0.00000  Uiso   1.00
C181   C     0.14023   0.49809   0.35020   0.00000  Uiso   1.00
C182   C     0.20924   0.35465   0.25012   0.00000  Uiso   1.00
C183   C     0.16668   0.37608   0.24994   0.00000  Uiso   1.00
C184   C     0.12413   0.35460   0.24979   0.00000  Uiso   1.00
C185   C     0.12412   0.64537   0.24986   0.00000  Uiso   1.00
C186   C     0.16667   0.62394   0.25005   0.00000  Uiso   1.00
C187   C     0.29970   0.52713   0.28045   0.00000  Uiso   1.00
C188   C     0.01598   0.52705   0.28054   0.00000  Uiso   1.00
C189   C     0.14423   0.49376   0.48995   0.00000  Uiso   1.00
C190   C     0.03360   0.47280   0.21966   0.00000  Uiso   1.00
C191   C     0.31727   0.47270   0.21987   0.00000  Uiso   1.00
C192   C     0.16667   0.42068   0.24995   0.00000  Uiso   1.00
C193   C     0.19324   0.49837   0.14973   0.00000  Uiso   1.00
C194   C     0.26185   0.46111   0.01245   0.00000  Uiso   1.00
C195   C     0.20877   0.49150   0.09265   0.00000  Uiso   1.00
C196   C     0.07719   0.51247   0.43502   0.00000  Uiso   1.00
C197   C     0.06331   0.51765   0.48886   0.00000  Uiso   1.00
C198   C     0.09654   0.50934   0.01608   0.00000  Uiso   1.00
C199   C     0.29314   0.46191   0.08941   0.00000  Uiso   1.00
C200   C     0.15591   0.48388   0.43603   0.00000  Uiso   1.00
C201   C     0.18057   0.48722   0.01550   0.00000  Uiso   1.00
C202   C     0.22550   0.46752   0.48829   0.00000  Uiso   1.00
C203   C     0.23347   0.45346   0.43741   0.00000  Uiso   1.00
C204   C     0.19893   0.46090   0.41193   0.00000  Uiso   1.00
C205   C     0.17395   0.50013   0.06702   0.00000  Uiso   1.00
C206   C     0.25395   0.47242   0.06464   0.00000  Uiso   1.00
Cu207  Cu    0.11978   0.49999   0.25000   0.00000  Uiso   1.00
Cu208  Cu    0.21355   0.50001   0.25000   0.00000  Uiso   1.00
H209   H     0.24251   0.37069   0.25022   0.00000  Uiso   1.00
H210   H     0.05169   0.52173   0.41449   0.00000  Uiso   1.00
H211   H     0.08329   0.51451   0.05768   0.00000  Uiso   1.00
H212   H     0.02700   0.52946   0.00948   0.00000  Uiso   1.00
H213   H     0.20608   0.44747   0.37351   0.00000  Uiso   1.00
H214   H     0.24249   0.62942   0.25035   0.00000  Uiso   1.00
H215   H     0.27790   0.44015   0.12212   0.00000  Uiso   1.00
H216   H     0.32559   0.44688   0.06128   0.00000  Uiso   1.00
H217   H     0.30651   0.49033   0.10364   0.00000  Uiso   1.00
H218   H     0.30551   0.45061   0.19610   0.00000  Uiso   1.00
H219   H     0.09086   0.37059   0.24963   0.00000  Uiso   1.00
H220   H     0.09084   0.62934   0.24977   0.00000  Uiso   1.00
H221   H     0.27392   0.54885   0.30486   0.00000  Uiso   1.00
H222   H     0.02763   0.54867   0.30504   0.00000  Uiso   1.00
H223   H     0.05934   0.45100   0.19536   0.00000  Uiso   1.00
H224   H     0.26670   0.43664   0.41705   0.00000  Uiso   1.00
H225   H     0.29607   0.44614   0.49082   0.00000  Uiso   1.00
H226   H     0.14145   0.51690   0.08856   0.00000  Uiso   1.00
N227   N     0.04931   0.49999   0.24999   0.00000  Uiso   1.00
N228   N     0.28402   0.50002   0.24999   0.00000  Uiso   1.00
O229   O     0.12708   0.56011   0.25001   0.00000  Uiso   1.00
O230   O     0.20627   0.56012   0.25000   0.00000  Uiso   1.00
O231   O     0.10775   0.49998   0.32549   0.00000  Uiso   1.00
O232   O     0.18694   0.49999   0.32549   0.00000  Uiso   1.00
O233   O     0.12706   0.43988   0.24999   0.00000  Uiso   1.00
O234   O     0.20625   0.43989   0.24999   0.00000  Uiso   1.00
O235   O     0.14640   0.50001   0.17451   0.00000  Uiso   1.00
O236   O     0.22559   0.50002   0.17451   0.00000  Uiso   1.00
C237   C     0.50001   0.57932   0.25005   0.00000  Uiso   1.00
C238   C     0.45722   0.49678   0.40782   0.00000  Uiso   1.00
C239   C     0.54256   0.64542   0.25019   0.00000  Uiso   1.00
C240   C     0.47356   0.49809   0.35020   0.00000  Uiso   1.00
C241   C     0.54257   0.35465   0.25012   0.00000  Uiso   1.00
C242   C     0.50001   0.37608   0.24994   0.00000  Uiso   1.00
C243   C     0.45746   0.35460   0.24979   0.00000  Uiso   1.00
C244   C     0.45745   0.64537   0.24986   0.00000  Uiso   1.00
C245   C     0.50001   0.62394   0.25005   0.00000  Uiso   1.00
C246   C     0.63304   0.52713   0.28045   0.00000  Uiso   1.00
C247   C     0.34931   0.52705   0.28054   0.00000  Uiso   1.00
C248   C     0.47756   0.49376   0.48995   0.00000  Uiso   1.00
C249   C     0.36693   0.47280   0.21966   0.00000  Uiso   1.00
C250   C     0.65060   0.47270   0.21987   0.00000  Uiso   1.00
C251   C     0.50000   0.42068   0.24995   0.00000  Uiso   1.00
C252   C     0.52657   0.49837   0.14973   0.00000  Uiso   1.00
C253   C     0.59518   0.46111   0.01245   0.00000  Uiso   1.00
C254   C     0.54211   0.49150   0.09265   0.00000  Uiso   1.00
C255   C     0.41053   0.51247   0.43502   0.00000  Uiso   1.00
C256   C     0.39664   0.51765   0.48886   0.00000  Uiso   1.00
C257   C     0.42987   0.50934   0.01608   0.00000  Uiso   1.00
C258   C     0.62648   0.46191   0.08941   0.00000  Uiso   1.00
C259   C     0.48924   0.48388   0.43603   0.00000  Uiso   1.00
C260   C     0.51391   0.48722   0.01550   0.00000  Uiso   1.00
C261   C     0.55883   0.46752   0.48829   0.00000  Uiso   1.00
C262   C     0.56680   0.45346   0.43741   0.00000  Uiso   1.00
C263   C     0.53226   0.46090   0.41193   0.00000  Uiso   1.00
C264   C     0.50728   0.50013   0.06702   0.00000  Uiso   1.00
C265   C     0.58729   0.47242   0.06464   0.00000  Uiso   1.00
Cu266  Cu    0.45311   0.49999   0.25000   0.00000  Uiso   1.00
Cu267  Cu    0.54689   0.50001   0.25000   0.00000  Uiso   1.00
H268   H     0.57585   0.37069   0.25022   0.00000  Uiso   1.00
H269   H     0.38502   0.52173   0.41449   0.00000  Uiso   1.00
H270   H     0.41662   0.51451   0.05768   0.00000  Uiso   1.00
H271   H     0.36033   0.52946   0.00948   0.00000  Uiso   1.00
H272   H     0.53942   0.44747   0.37351   0.00000  Uiso   1.00
H273   H     0.57583   0.62942   0.25035   0.00000  Uiso   1.00
H274   H     0.61124   0.44015   0.12212   0.00000  Uiso   1.00
H275   H     0.65893   0.44688   0.06128   0.00000  Uiso   1.00
H276   H     0.63984   0.49033   0.10364   0.00000  Uiso   1.00
H277   H     0.63885   0.45061   0.19610   0.00000  Uiso   1.00
H278   H     0.42420   0.37059   0.24963   0.00000  Uiso   1.00
H279   H     0.42417   0.62934   0.24977   0.00000  Uiso   1.00
H280   H     0.60726   0.54885   0.30486   0.00000  Uiso   1.00
H281   H     0.36096   0.54867   0.30504   0.00000  Uiso   1.00
H282   H     0.39267   0.45100   0.19536   0.00000  Uiso   1.00
H283   H     0.60003   0.43664   0.41705   0.00000  Uiso   1.00
H284   H     0.62941   0.44614   0.49082   0.00000  Uiso   1.00
H285   H     0.47478   0.51690   0.08856   0.00000  Uiso   1.00
N286   N     0.38265   0.49999   0.24999   0.00000  Uiso   1.00
N287   N     0.61735   0.50002   0.24999   0.00000  Uiso   1.00
O288   O     0.46042   0.56011   0.25001   0.00000  Uiso   1.00
O289   O     0.53961   0.56012   0.25000   0.00000  Uiso   1.00
O290   O     0.44108   0.49998   0.32549   0.00000  Uiso   1.00
O291   O     0.52027   0.49999   0.32549   0.00000  Uiso   1.00
O292   O     0.46039   0.43988   0.24999   0.00000  Uiso   1.00
O293   O     0.53958   0.43989   0.24999   0.00000  Uiso   1.00
O294   O     0.47973   0.50001   0.17451   0.00000  Uiso   1.00
O295   O     0.55892   0.50002   0.17451   0.00000  Uiso   1.00
C296   C     0.83334   0.57932   0.25005   0.00000  Uiso   1.00
C297   C     0.79055   0.49678   0.40782   0.00000  Uiso   1.00
C298   C     0.87590   0.64542   0.25019   0.00000  Uiso   1.00
C299   C     0.80689   0.49809   0.35020   0.00000  Uiso   1.00
C300   C     0.87591   0.35465   0.25012   0.00000  Uiso   1.00
C301   C     0.83335   0.37608   0.24994   0.00000  Uiso   1.00
C302   C     0.79079   0.35460   0.24979   0.00000  Uiso   1.00
C303   C     0.79078   0.64537   0.24986   0.00000  Uiso   1.00
C304   C     0.83334   0.62394   0.25005   0.00000  Uiso   1.00
C305   C     0.96637   0.52713   0.28045   0.00000  Uiso   1.00
C306   C     0.68265   0.52705   0.28054   0.00000  Uiso   1.00
C307   C     0.81089   0.49376   0.48995   0.00000  Uiso   1.00
C308   C     0.70027   0.47280   0.21966   0.00000  Uiso   1.00
C309   C     0.98393   0.47270   0.21987   0.00000  Uiso   1.00
C310   C     0.83333   0.42068   0.24995   0.00000  Uiso   1.00
C311   C     0.85991   0.49837   0.14973   0.00000  Uiso   1.00
C312   C     0.92851   0.46111   0.01245   0.00000  Uiso   1.00
C313   C     0.87544   0.49150   0.09265   0.00000  Uiso   1.00
C314   C     0.74386   0.51247   0.43502   0.00000  Uiso   1.00
C315   C     0.72997   0.51765   0.48886   0.00000  Uiso   1.00
C316   C     0.76321   0.50934   0.01608   0.00000  Uiso   1.00
C317   C     0.95981   0.46191   0.08941   0.00000  Uiso   1.00
C318   C     0.82258   0.48388   0.43603   0.00000  Uiso   1.00
C319   C     0.84724   0.48722   0.01550   0.00000  Uiso   1.00
C320   C     0.89216   0.46752   0.48829   0.00000  Uiso   1.00
C321   C     0.90013   0.45346   0.43741   0.00000  Uiso   1.00
C322   C     0.86559   0.46090   0.41193   0.00000  Uiso   1.00
C323   C     0.84062   0.50013   0.06702   0.00000  Uiso   1.00
C324   C     0.92062   0.47242   0.06464   0.00000  Uiso   1.00
Cu325  Cu    0.78645   0.49999   0.25000   0.00000  Uiso   1.00
Cu326  Cu    0.88022   0.50001   0.25000   0.00000  Uiso   1.00
H327   H     0.90918   0.37069   0.25022   0.00000  Uiso   1.00
H328   H     0.71835   0.52173   0.41449   0.00000  Uiso   1.00
H329   H     0.74995   0.51451   0.05768   0.00000  Uiso   1.00
H330   H     0.69367   0.52946   0.00948   0.00000  Uiso   1.00
H331   H     0.87275   0.44747   0.37351   0.00000  Uiso   1.00
H332   H     0.90916   0.62942   0.25035   0.00000  Uiso   1.00
H333   H     0.94457   0.44015   0.12212   0.00000  Uiso   1.00
H334   H     0.99226   0.44688   0.06128   0.00000  Uiso   1.00
H335   H     0.97318   0.49033   0.10364   0.00000  Uiso   1.00
H336   H     0.97218   0.45061   0.19610   0.00000  Uiso   1.00
H337   H     0.75753   0.37059   0.24963   0.00000  Uiso   1.00
H338   H     0.75751   0.62934   0.24977   0.00000  Uiso   1.00
H339   H     0.94059   0.54885   0.30486   0.00000  Uiso   1.00
H340   H     0.69429   0.54867   0.30504   0.00000  Uiso   1.00
H341   H     0.72601   0.45100   0.19536   0.00000  Uiso   1.00
H342   H     0.93336   0.43664   0.41705   0.00000  Uiso   1.00
H343   H     0.96274   0.44614   0.49082   0.00000  Uiso   1.00
H344   H     0.80811   0.51690   0.08856   0.00000  Uiso   1.00
N345   N     0.71598   0.49999   0.24999   0.00000  Uiso   1.00
N346   N     0.95069   0.50002   0.24999   0.00000  Uiso   1.00
O347   O     0.79375   0.56011   0.25001   0.00000  Uiso   1.00
O348   O     0.87294   0.56012   0.25000   0.00000  Uiso   1.00
O349   O     0.77441   0.49998   0.32549   0.00000  Uiso   1.00
O350   O     0.85360   0.49999   0.32549   0.00000  Uiso   1.00
O351   O     0.79373   0.43988   0.24999   0.00000  Uiso   1.00
O352   O     0.87292   0.43989   0.24999   0.00000  Uiso   1.00
O353   O     0.81306   0.50001   0.17451   0.00000  Uiso   1.00
O354   O     0.89225   0.50002   0.17451   0.00000  Uiso   1.00
C355   C     0.16667   0.91265   0.25005   0.00000  Uiso   1.00
C356   C     0.12389   0.83012   0.40782   0.00000  Uiso   1.00
C357   C     0.20923   0.97875   0.25019   0.00000  Uiso   1.00
C358   C     0.14023   0.83142   0.35020   0.00000  Uiso   1.00
C359   C     0.20924   0.68798   0.25012   0.00000  Uiso   1.00
C360   C     0.16668   0.70941   0.24994   0.00000  Uiso   1.00
C361   C     0.12413   0.68793   0.24979   0.00000  Uiso   1.00
C362   C     0.12412   0.97870   0.24986   0.00000  Uiso   1.00
C363   C     0.16667   0.95727   0.25005   0.00000  Uiso   1.00
C364   C     0.29970   0.86047   0.28045   0.00000  Uiso   1.00
C365   C     0.01598   0.86038   0.28054   0.00000  Uiso   1.00
C366   C     0.14423   0.82710   0.48995   0.00000  Uiso   1.00
C367   C     0.03360   0.80614   0.21966   0.00000  Uiso   1.00
C368   C     0.31727   0.80604   0.21987   0.00000  Uiso   1.00
C369   C     0.16667   0.75401   0.24995   0.00000  Uiso   1.00
C370   C     0.19324   0.83171   0.14973   0.00000  Uiso   1.00
C371   C     0.26185   0.79445   0.01245   0.00000  Uiso   1.00
C372   C     0.20877   0.82483   0.09265   0.00000  Uiso   1.00
C373   C     0.07719   0.84580   0.43502   0.00000  Uiso   1.00
C374   C     0.06331   0.85099   0.48886   0.00000  Uiso   1.00
C375   C     0.09654   0.84267   0.01608   0.00000  Uiso   1.00
C376   C     0.29314   0.79525   0.08941   0.00000  Uiso   1.00
C377   C     0.15591   0.81721   0.43603   0.00000  Uiso   1.00
C378   C     0.18057   0.82056   0.01550   0.00000  Uiso   1.00
C379   C     0.22550   0.80085   0.48829   0.00000  Uiso   1.00
C380   C     0.23347   0.78679   0.43741   0.00000  Uiso   1.00
C381   C     0.19893   0.79423   0.41193   0.00000  Uiso   1.00
C382   C     0.17395   0.83347   0.06702   0.00000  Uiso   1.00
C383   C     0.25395   0.80575   0.06464   0.00000  Uiso   1.00
Cu384  Cu    0.11978   0.83333   0.25000   0.00000  Uiso   1.00
Cu385  Cu    0.21355   0.83334   0.25000   0.00000  Uiso   1.00
H386   H     0.24251   0.70402   0.25022   0.00000  Uiso   1.00
H387   H     0.05169   0.85506   0.41449   0.00000  Uiso   1.00
H388   H     0.08329   0.84785   0.05768   0.00000  Uiso   1.00
H389   H     0.02700   0.86280   0.00948   0.00000  Uiso   1.00
H390   H     0.20608   0.78080   0.37351   0.00000  Uiso   1.00
H391   H     0.24249   0.96276   0.25035   0.00000  Uiso   1.00
H392   H     0.27790   0.77348   0.12212   0.00000  Uiso   1.00
H393   H     0.32559   0.78021   0.06128   0.00000  Uiso   1.00
H394   H     0.30651   0.82366   0.10364   0.00000  Uiso   1.00
H395   H     0.30551   0.78395   0.19610   0.00000  Uiso   1.00
H396   H     0.09086   0.70392   0.24963   0.00000  Uiso   1.00
H397   H     0.09084   0.96267   0.24977   0.00000  Uiso   1.00
H398   H     0.27392   0.88218   0.30486   0.00000  Uiso   1.00
H399   H     0.02763   0.88201   0.30504   0.00000  Uiso   1.00
H400   H     0.05934   0.78434   0.19536   0.00000  Uiso   1.00
H401   H     0.26670   0.76998   0.41705   0.00000  Uiso   1.00
H402   H     0.29607   0.77947   0.49082   0.00000  Uiso   1.00
H403   H     0.14145   0.85023   0.08856   0.00000  Uiso   1.00
N404   N     0.04931   0.83332   0.24999   0.00000  Uiso   1.00
N405   N     0.28402   0.83335   0.24999   0.00000  Uiso   1.00
O406   O     0.12708   0.89345   0.25001   0.00000  Uiso   1.00
O407   O     0.20627   0.89346   0.25000   0.00000  Uiso   1.00
O408   O     0.10775   0.83332   0.32549   0.00000  Uiso   1.00
O409   O     0.18694   0.83333   0.32549   0.00000  Uiso   1.00
O410   O     0.12706   0.77321   0.24999   0.00000  Uiso   1.00
O411   O     0.20625   0.77322   0.24999   0.00000  Uiso   1.00
O412   O     0.14640   0.83334   0.17451   0.00000  Uiso   1.00
O413   O     0.22559   0.83335   0.17451   0.00000  Uiso   1.00
C414   C     0.50001   0.91265   0.25005   0.00000  Uiso   1.00
C415   C     0.45722   0.83012   0.40782   0.00000  Uiso   1.00
C416   C     0.54256   0.97875   0.25019   0.00000  Uiso   1.00
C417   C     0.47356   0.83142   0.35020   0.00000  Uiso   1.00
C418   C     0.54257   0.68798   0.25012   0.00000  Uiso   1.00
C419   C     0.50001   0.70941   0.24994   0.00000  Uiso   1.00
C420   C     0.45746   0.68793   0.24979   0.00000  Uiso   1.00
C421   C     0.45745   0.97870   0.24986   0.00000  Uiso   1.00
C422   C     0.50001   0.95727   0.25005   0.00000  Uiso   1.00
C423   C     0.63304   0.86047   0.28045   0.00000  Uiso   1.00
C424   C     0.34931   0.86038   0.28054   0.00000  Uiso   1.00
C425   C     0.47756   0.82710   0.48995   0.00000  Uiso   1.00
C426   C     0.36693   0.80614   0.21966   0.00000  Uiso   1.00
C427   C     0.65060   0.80604   0.21987   0.00000  Uiso   1.00
C428   C     0.50000   0.75401   0.24995   0.00000  Uiso   1.00
C429   C     0.52657   0.83171   0.14973   0.00000  Uiso   1.00
C430   C     0.59518   0.79445   0.01245   0.00000  Uiso   1.00
C431   C     0.54211   0.82483   0.09265   0.00000  Uiso   1.00
C432   C     0.41053   0.84580   0.43502   0.00000  Uiso   1.00
C433   C     0.39664   0.85099   0.48886   0.00000  Uiso   1.00
C434   C     0.42987   0.84267   0.01608   0.00000  Uiso   1.00
C435   C     0.62648   0.79525   0.08941   0.00000  Uiso   1.00
C436   C     0.48924   0.81721   0.43603   0.00000  Uiso   1.00
C437   C     0.51391   0.82056   0.01550   0.00000  Uiso   1.00
C438   C     0.55883   0.80085   0.48829   0.00000  Uiso   1.00
C439   C     0.56680   0.78679   0.43741   0.00000  Uiso   1.00
C440   C     0.53226   0.79423   0.41193   0.00000  Uiso   1.00
C441   C     0.50728   0.83347   0.06702   0.00000  Uiso   1.00
C442   C     0.58729   0.80575   0.06464   0.00000  Uiso   1.00
Cu443  Cu    0.45311   0.83333   0.25000   0.00000  Uiso   1.00
Cu444  Cu    0.54689   0.83334   0.25000   0.00000  Uiso   1.00
H445   H     0.57585   0.70402   0.25022   0.00000  Uiso   1.00
H446   H     0.38502   0.85506   0.41449   0.00000  Uiso   1.00
H447   H     0.41662   0.84785   0.05768   0.00000  Uiso   1.00
H448   H     0.36033   0.86280   0.00948   0.00000  Uiso   1.00
H449   H     0.53942   0.78080   0.37351   0.00000  Uiso   1.00
H450   H     0.57583   0.96276   0.25035   0.00000  Uiso   1.00
H451   H     0.61124   0.77348   0.12212   0.00000  Uiso   1.00
H452   H     0.65893   0.78021   0.06128   0.00000  Uiso   1.00
H453   H     0.63984   0.82366   0.10364   0.00000  Uiso   1.00
H454   H     0.63885   0.78395   0.19610   0.00000  Uiso   1.00
H455   H     0.42420   0.70392   0.24963   0.00000  Uiso   1.00
H456   H     0.42417   0.96267   0.24977   0.00000  Uiso   1.00
H457   H     0.60726   0.88218   0.30486   0.00000  Uiso   1.00
H458   H     0.36096   0.88201   0.30504   0.00000  Uiso   1.00
H459   H     0.39267   0.78434   0.19536   0.00000  Uiso   1.00
H460   H     0.60003   0.76998   0.41705   0.00000  Uiso   1.00
H461   H     0.62941   0.77947   0.49082   0.00000  Uiso   1.00
H462   H     0.47478   0.85023   0.08856   0.00000  Uiso   1.00
N463   N     0.38265   0.83332   0.24999   0.00000  Uiso   1.00
N464   N     0.61735   0.83335   0.24999   0.00000  Uiso   1.00
O465   O     0.46042   0.89345   0.25001   0.00000  Uiso   1.00
O466   O     0.53961   0.89346   0.25000   0.00000  Uiso   1.00
O467   O     0.44108   0.83332   0.32549   0.00000  Uiso   1.00
O468   O     0.52027   0.83333   0.32549   0.00000  Uiso   1.00
O469   O     0.46039   0.77321   0.24999   0.00000  Uiso   1.00
O470   O     0.53958   0.77322   0.24999   0.00000  Uiso   1.00
O471   O     0.47973   0.83334   0.17451   0.00000  Uiso   1.00
O472   O     0.55892   0.83335   0.17451   0.00000  Uiso   1.00
C473   C     0.83334   0.91265   0.25005   0.00000  Uiso   1.00
C474   C     0.79055   0.83012   0.40782   0.00000  Uiso   1.00
C475   C     0.87590   0.97875   0.25019   0.00000  Uiso   1.00
C476   C     0.80689   0.83142   0.35020   0.00000  Uiso   1.00
C477   C     0.87591   0.68798   0.25012   0.00000  Uiso   1.00
C478   C     0.83335   0.70941   0.24994   0.00000  Uiso   1.00
C479   C     0.79079   0.68793   0.24979   0.00000  Uiso   1.00
C480   C     0.79078   0.97870   0.24986   0.00000  Uiso   1.00
C481   C     0.83334   0.95727   0.25005   0.00000  Uiso   1.00
C482   C     0.96637   0.86047   0.28045   0.00000  Uiso   1.00
C483   C     0.68265   0.86038   0.28054   0.00000  Uiso   1.00
C484   C     0.81089   0.82710   0.48995   0.00000  Uiso   1.00
C485   C     0.70027   0.80614   0.21966   0.00000  Uiso   1.00
C486   C     0.98393   0.80604   0.21987   0.00000  Uiso   1.00
C487   C     0.83333   0.75401   0.24995   0.00000  Uiso   1.00
C488   C     0.85991   0.83171   0.14973   0.00000  Uiso   1.00
C489   C     0.92851   0.79445   0.01245   0.00000  Uiso   1.00
C490   C     0.87544   0.82483   0.09265   0.00000  Uiso   1.00
C491   C     0.74386   0.84580   0.43502   0.00000  Uiso   1.00
C492   C     0.72997   0.85099   0.48886   0.00000  Uiso   1.00
C493   C     0.76321   0.84267   0.01608   0.00000  Uiso   1.00
C494   C     0.95981   0.79525   0.08941   0.00000  Uiso   1.00
C495   C     0.82258   0.81721   0.43603   0.00000  Uiso   1.00
C496   C     0.84724   0.82056   0.01550   0.00000  Uiso   1.00
C497   C     0.89216   0.80085   0.48829   0.00000  Uiso   1.00
C498   C     0.90013   0.78679   0.43741   0.00000  Uiso   1.00
C499   C     0.86559   0.79423   0.41193   0.00000  Uiso   1.00
C500   C     0.84062   0.83347   0.06702   0.00000  Uiso   1.00
C501   C     0.92062   0.80575   0.06464   0.00000  Uiso   1.00
Cu502  Cu    0.78645   0.83333   0.25000   0.00000  Uiso   1.00
Cu503  Cu    0.88022   0.83334   0.25000   0.00000  Uiso   1.00
H504   H     0.90918   0.70402   0.25022   0.00000  Uiso   1.00
H505   H     0.71835   0.85506   0.41449   0.00000  Uiso   1.00
H506   H     0.74995   0.84785   0.05768   0.00000  Uiso   1.00
H507   H     0.69367   0.86280   0.00948   0.00000  Uiso   1.00
H508   H     0.87275   0.78080   0.37351   0.00000  Uiso   1.00
H509   H     0.90916   0.96276   0.25035   0.00000  Uiso   1.00
H510   H     0.94457   0.77348   0.12212   0.00000  Uiso   1.00
H511   H     0.99226   0.78021   0.06128   0.00000  Uiso   1.00
H512   H     0.97318   0.82366   0.10364   0.00000  Uiso   1.00
H513   H     0.97218   0.78395   0.19610   0.00000  Uiso   1.00
H514   H     0.75753   0.70392   0.24963   0.00000  Uiso   1.00
H515   H     0.75751   0.96267   0.24977   0.00000  Uiso   1.00
H516   H     0.94059   0.88218   0.30486   0.00000  Uiso   1.00
H517   H     0.69429   0.88201   0.30504   0.00000  Uiso   1.00
H518   H     0.72601   0.78434   0.19536   0.00000  Uiso   1.00
H519   H     0.93336   0.76998   0.41705   0.00000  Uiso   1.00
H520   H     0.96274   0.77947   0.49082   0.00000  Uiso   1.00
H521   H     0.80811   0.85023   0.08856   0.00000  Uiso   1.00
N522   N     0.71598   0.83332   0.24999   0.00000  Uiso   1.00
N523   N     0.95069   0.83335   0.24999   0.00000  Uiso   1.00
O524   O     0.79375   0.89345   0.25001   0.00000  Uiso   1.00
O525   O     0.87294   0.89346   0.25000   0.00000  Uiso   1.00
O526   O     0.77441   0.83332   0.32549   0.00000  Uiso   1.00
O527   O     0.85360   0.83333   0.32549   0.00000  Uiso   1.00
O528   O     0.79373   0.77321   0.24999   0.00000  Uiso   1.00
O529   O     0.87292   0.77322   0.24999   0.00000  Uiso   1.00
O530   O     0.81306   0.83334   0.17451   0.00000  Uiso   1.00
O531   O     0.89225   0.83335   0.17451   0.00000  Uiso   1.00
C532   C     0.16667   0.24599   0.75005   0.00000  Uiso   1.00
C533   C     0.12389   0.16345   0.90782   0.00000  Uiso   1.00
C534   C     0.20923   0.31208   0.75019   0.00000  Uiso   1.00
C535   C     0.14023   0.16476   0.85020   0.00000  Uiso   1.00
C536   C     0.20924   0.02132   0.75012   0.00000  Uiso   1.00
C537   C     0.16668   0.04274   0.74994   0.00000  Uiso   1.00
C538   C     0.12413   0.02127   0.74979   0.00000  Uiso   1.00
C539   C     0.12412   0.31203   0.74986   0.00000  Uiso   1.00
C540   C     0.16667   0.29060   0.75005   0.00000  Uiso   1.00
C541   C     0.29970   0.19380   0.78045   0.00000  Uiso   1.00
C542   C     0.01598   0.19372   0.78054   0.00000  Uiso   1.00
C543   C     0.14423   0.16043   0.98995   0.00000  Uiso   1.00
C544   C     0.03360   0.13947   0.71966   0.00000  Uiso   1.00
C545   C     0.31727   0.13937   0.71987   0.00000  Uiso   1.00
C546   C     0.16667   0.08735   0.74995   0.00000  Uiso   1.00
C547   C     0.19324   0.16504   0.64973   0.00000  Uiso   1.00
C548   C     0.26185   0.12778   0.51245   0.00000  Uiso   1.00
C549   C     0.20877   0.15817   0.59265   0.00000  Uiso   1.00
C550   C     0.07719   0.17914   0.93502   0.00000  Uiso   1.00
C551   C     0.06331   0.18432   0.98886   0.00000  Uiso   1.00
C552   C     0.09654   0.17601   0.51608   0.00000  Uiso   1.00
C553   C     0.29314   0.12858   0.58941   0.00000  Uiso   1.00
C554   C     0.15591   0.15054   0.93603   0.00000  Uiso   1.00
C555   C     0.18057   0.15389   0.51550   0.00000  Uiso   1.00
C556   C     0.22550   0.13419   0.98829   0.00000  Uiso   1.00
C557   C     0.23347   0.12012   0.93741   0.00000  Uiso   1.00
C558   C     0.19893   0.12756   0.91193   0.00000  Uiso   1.00
C559   C     0.17395   0.16680   0.56702   0.00000  Uiso   1.00
C560   C     0.25395   0.13908   0.56464   0.00000  Uiso   1.00
Cu561  Cu    0.11978   0.16666   0.75000   0.00000  Uiso   1.00
Cu562  Cu    0.21355   0.16667   0.75000   0.00000  Uiso   1.00
H563   H     0.24251   0.03735   0.75022   0.00000  Uiso   1.00
H564   H     0.05169   0.18840   0.91449   0.00000  Uiso   1.00
H565   H     0.08329   0.18118   0.55768   0.00000  Uiso   1.00
H566   H     0.02700   0.19613   0.50948   0.00000  Uiso   1.00
H567   H     0.20608   0.11414   0.87351   0.00000  Uiso   1.00
H568   H     0.24249   0.29609   0.75035   0.00000  Uiso   1.00
H569   H     0.27790   0.10681   0.62212   0.00000  Uiso   1.00
H570   H     0.32559   0.11355   0.56128   0.00000  Uiso   1.00
H571   H     0.30651   0.15699   0.60364   0.00000  Uiso   1.00
H572   H     0.30551   0.11728   0.69610   0.00000  Uiso   1.00
H573   H     0.09086   0.03726   0.74963   0.00000  Uiso   1.00
H574   H     0.09084   0.29600   0.74977   0.00000  Uiso   1.00
H575   H     0.27392   0.21551   0.80486   0.00000  Uiso   1.00
H576   H     0.02763   0.21534   0.80504   0.00000  Uiso   1.00
H577   H     0.05934   0.11767   0.69536   0.00000  Uiso   1.00
H578   H     0.26670   0.10331   0.91705   0.00000  Uiso   1.00
H579   H     0.29607   0.11281   0.99082   0.00000  Uiso   1.00
H580   H     0.14145   0.18356   0.58856   0.00000  Uiso   1.00
N581   N     0.04931   0.16666   0.74999   0.00000  Uiso   1.00
N582   N     0.28402   0.16669   0.74999   0.00000  Uiso   1.00
O583   O     0.12708   0.22678   0.75001   0.00000  Uiso   1.00
O584   O     0.20627   0.22679   0.75000   0.00000  Uiso   1.00
O585   O     0.10775   0.16665   0.82549   0.00000  Uiso   1.00
O586   O     0.18694   0.16666   0.82549   0.00000  Uiso   1.00
O587   O     0.12706   0.10654   0.74999   0.00000  Uiso   1.00
O588   O     0.20625   0.10655   0.74999   0.00000  Uiso   1.00
O589   O     0.14640   0.16667   0.67451   0.00000  Uiso   1.00
O590   O     0.22559   0.16668   0.67451   0.00000  Uiso   1.00
C591   C     0.50001   0.24599   0.75005   0.00000  Uiso   1.00
C592   C     0.45722   0.16345   0.90782   0.00000  Uiso   1.00
C593   C     0.54256   0.31208   0.75019   0.00000  Uiso   1.00
C594   C     0.47356   0.16476   0.85020   0.00000  Uiso   1.00
C595   C     0.54257   0.02132   0.75012   0.00000  Uiso   1.00
C596   C     0.50001   0.04274   0.74994   0.00000  Uiso   1.00
C597   C     0.45746   0.02127   0.74979   0.00000  Uiso   1.00
C598   C     0.45745   0.31203   0.74986   0.00000  Uiso   1.00
C599   C     0.50001   0.29060   0.75005   0.00000  Uiso   1.00
C600   C     0.63304   0.19380   0.78045   0.00000  Uiso   1.00
C601   C     0.34931   0.19372   0.78054   0.00000  Uiso   1.00
C602   C     0.47756   0.16043   0.98995   0.00000  Uiso   1.00
C603   C     0.36693   0.13947   0.71966   0.00000  Uiso   1.00
C604   C     0.65060   0.13937   0.71987   0.00000  Uiso   1.00
C605   C     0.50000   0.08735   0.74995   0.00000  Uiso   1.00
C606   C     0.52657   0.16504   0.64973   0.00000  Uiso   1.00
C607   C     0.59518   0.12778   0.51245   0.00000  Uiso   1.00
C608   C     0.54211   0.15817   0.59265   0.00000  Uiso   1.00
C609   C     0.41053   0.17914   0.93502   0.00000  Uiso   1.00
C610   C     0.39664   0.18432   0.98886   0.00000  Uiso   1.00
C611   C     0.42987   0.17601   0.51608   0.00000  Uiso   1.00
C612   C     0.62648   0.12858   0.58941   0.00000  Uiso   1.00
C613   C     0.48924   0.15054   0.93603   0.00000  Uiso   1.00
C614   C     0.51391   0.15389   0.51550   0.00000  Uiso   1.00
C615   C     0.55883   0.13419   0.98829   0.00000  Uiso   1.00
C616   C     0.56680   0.12012   0.93741   0.00000  Uiso   1.00
C617   C     0.53226   0.12756   0.91193   0.00000  Uiso   1.00
C618   C     0.50728   0.16680   0.56702   0.00000  Uiso   1.00
C619   C     0.58729   0.13908   0.56464   0.00000  Uiso   1.00
Cu620  Cu    0.45311   0.16666   0.75000   0.00000  Uiso   1.00
Cu621  Cu    0.54689   0.16667   0.75000   0.00000  Uiso   1.00
H622   H     0.57585   0.03735   0.75022   0.00000  Uiso   1.00
H623   H     0.38502   0.18840   0.91449   0.00000  Uiso   1.00
H624   H     0.41662   0.18118   0.55768   0.00000  Uiso   1.00
H625   H     0.36033   0.19613   0.50948   0.00000  Uiso   1.00
H626   H     0.53942   0.11414   0.87351   0.00000  Uiso   1.00
H627   H     0.57583   0.29609   0.75035   0.00000  Uiso   1.00
H628   H     0.61124   0.10681   0.62212   0.00000  Uiso   1.00
H629   H     0.65893   0.11355   0.56128   0.00000  Uiso   1.00
H630   H     0.63984   0.15699   0.60364   0.00000  Uiso   1.00
H631   H     0.63885   0.11728   0.69610   0.00000  Uiso   1.00
H632   H     0.42420   0.03726   0.74963   0.00000  Uiso   1.00
H633   H     0.42417   0.29600   0.74977   0.00000  Uiso   1.00
H634   H     0.60726   0.21551   0.80486   0.00000  Uiso   1.00
H635   H     0.36096   0.21534   0.80504   0.00000  Uiso   1.00
H636   H     0.39267   0.11767   0.69536   0.00000  Uiso   1.00
H637   H     0.60003   0.10331   0.91705   0.00000  Uiso   1.00
H638   H     0.62941   0.11281   0.99082   0.00000  Uiso   1.00
H639   H     0.47478   0.18356   0.58856   0.00000  Uiso   1.00
N640   N     0.38265   0.16666   0.74999   0.00000  Uiso   1.00
N641   N     0.61735   0.16669   0.74999   0.00000  Uiso   1.00
O642   O     0.46042   0.22678   0.75001   0.00000  Uiso   1.00
O643   O     0.53961   0.22679   0.75000   0.00000  Uiso   1.00
O644   O     0.44108   0.16665   0.82549   0.00000  Uiso   1.00
O645   O     0.52027   0.16666   0.82549   0.00000  Uiso   1.00
O646   O     0.46039   0.10654   0.74999   0.00000  Uiso   1.00
O647   O     0.53958   0.10655   0.74999   0.00000  Uiso   1.00
O648   O     0.47973   0.16667   0.67451   0.00000  Uiso   1.00
O649   O     0.55892   0.16668   0.67451   0.00000  Uiso   1.00
C650   C     0.83334   0.24599   0.75005   0.00000  Uiso   1.00
C651   C     0.79055   0.16345   0.90782   0.00000  Uiso   1.00
C652   C     0.87590   0.31208   0.75019   0.00000  Uiso   1.00
C653   C     0.80689   0.16476   0.85020   0.00000  Uiso   1.00
C654   C     0.87591   0.02132   0.75012   0.00000  Uiso   1.00
C655   C     0.83335   0.04274   0.74994   0.00000  Uiso   1.00
C656   C     0.79079   0.02127   0.74979   0.00000  Uiso   1.00
C657   C     0.79078   0.31203   0.74986   0.00000  Uiso   1.00
C658   C     0.83334   0.29060   0.75005   0.00000  Uiso   1.00
C659   C     0.96637   0.19380   0.78045   0.00000  Uiso   1.00
C660   C     0.68265   0.19372   0.78054   0.00000  Uiso   1.00
C661   C     0.81089   0.16043   0.98995   0.00000  Uiso   1.00
C662   C     0.70027   0.13947   0.71966   0.00000  Uiso   1.00
C663   C     0.98393   0.13937   0.71987   0.00000  Uiso   1.00
C664   C     0.83333   0.08735   0.74995   0.00000  Uiso   1.00
C665   C     0.85991   0.16504   0.64973   0.00000  Uiso   1.00
C666   C     0.92851   0.12778   0.51245   0.00000  Uiso   1.00
C667   C     0.87544   0.15817   0.59265   0.00000  Uiso   1.00
C668   C     0.74386   0.17914   0.93502   0.00000  Uiso   1.00
C669   C     0.72997   0.18432   0.98886   0.00000  Uiso   1.00
C670   C     0.76321   0.17601   0.51608   0.00000  Uiso   1.00
C671   C     0.95981   0.12858   0.58941   0.00000  Uiso   1.00
C672   C     0.82258   0.15054   0.93603   0.00000  Uiso   1.00
C673   C     0.84724   0.15389   0.51550   0.00000  Uiso   1.00
C674   C     0.89216   0.13419   0.98829   0.00000  Uiso   1.00
C675   C     0.90013   0.12012   0.93741   0.00000  Uiso   1.00
C676   C     0.86559   0.12756   0.91193   0.00000  Uiso   1.00
C677   C     0.84062   0.16680   0.56702   0.00000  Uiso   1.00
C678   C     0.92062   0.13908   0.56464   0.00000  Uiso   1.00
Cu679  Cu    0.78645   0.16666   0.75000   0.00000  Uiso   1.00
Cu680  Cu    0.88022   0.16667   0.75000   0.00000  Uiso   1.00
H681   H     0.90918   0.03735   0.75022   0.00000  Uiso   1.00
H682   H     0.71835   0.18840   0.91449   0.00000  Uiso   1.00
H683   H     0.74995   0.18118   0.55768   0.00000  Uiso   1.00
H684   H     0.69367   0.19613   0.50948   0.00000  Uiso   1.00
H685   H     0.87275   0.11414   0.87351   0.00000  Uiso   1.00
H686   H     0.90916   0.29609   0.75035   0.00000  Uiso   1.00
H687   H     0.94457   0.10681   0.62212   0.00000  Uiso   1.00
H688   H     0.99226   0.11355   0.56128   0.00000  Uiso   1.00
H689   H     0.97318   0.15699   0.60364   0.00000  Uiso   1.00
H690   H     0.97218   0.11728   0.69610   0.00000  Uiso   1.00
H691   H     0.75753   0.03726   0.74963   0.00000  Uiso   1.00
H692   H     0.75751   0.29600   0.74977   0.00000  Uiso   1.00
H693   H     0.94059   0.21551   0.80486   0.00000  Uiso   1.00
H694   H     0.69429   0.21534   0.80504   0.00000  Uiso   1.00
H695   H     0.72601   0.11767   0.69536   0.00000  Uiso   1.00
H696   H     0.93336   0.10331   0.91705   0.00000  Uiso   1.00
H697   H     0.96274   0.11281   0.99082   0.00000  Uiso   1.00
H698   H     0.80811   0.18356   0.58856   0.00000  Uiso   1.00
N699   N     0.71598   0.16666   0.74999   0.00000  Uiso   1.00
N700   N     0.95069   0.16669   0.74999   0.00000  Uiso   1.00
O701   O     0.79375   0.22678   0.75001   0.00000  Uiso   1.00
O702   O     0.87294   0.22679   0.75000   0.00000  Uiso   1.00
O703   O     0.77441   0.16665   0.82549   0.00000  Uiso   1.00
O704   O     0.85360   0.16666   0.82549   0.00000  Uiso   1.00
O705   O     0.79373   0.10654   0.74999   0.00000  Uiso   1.00
O706   O     0.87292   0.10655   0.74999   0.00000  Uiso   1.00
O707   O     0.81306   0.16667   0.67451   0.00000  Uiso   1.00
O708   O     0.89225   0.16668   0.67451   0.00000  Uiso   1.00
C709   C     0.16667   0.57932   0.75005   0.00000  Uiso   1.00
C710   C     0.12389   0.49678   0.90782   0.00000  Uiso   1.00
C711   C     0.20923   0.64542   0.75019   0.00000  Uiso   1.00
C712   C     0.14023   0.49809   0.85020   0.00000  Uiso   1.00
C713   C     0.20924   0.35465   0.75012   0.00000  Uiso   1.00
C714   C     0.16668   0.37608   0.74994   0.00000  Uiso   1.00
C715   C     0.12413   0.35460   0.74979   0.00000  Uiso   1.00
C716   C     0.12412   0.64537   0.74986   0.00000  Uiso   1.00
C717   C     0.16667   0.62394   0.75005   0.00000  Uiso   1.00
C718   C     0.29970   0.52713   0.78045   0.00000  Uiso   1.00
C719   C     0.01598   0.52705   0.78054   0.00000  Uiso   1.00
C720   C     0.14423   0.49376   0.98995   0.00000  Uiso   1.00
C721   C     0.03360   0.47280   0.71966   0.00000  Uiso   1.00
C722   C     0.31727   0.47270   0.71987   0.00000  Uiso   1.00
C723   C     0.16667   0.42068   0.74995   0.00000  Uiso   1.00
C724   C     0.19324   0.49837   0.64973   0.00000  Uiso   1.00
C725   C     0.26185   0.46111   0.51245   0.00000  Uiso   1.00
C726   C     0.20877   0.49150   0.59265   0.00000  Uiso   1.00
C727   C     0.07719   0.51247   0.93502   0.00000  Uiso   1.00
C728   C     0.06331   0.51765   0.98886   0.00000  Uiso   1.00
C729   C     0.09654   0.50934   0.51608   0.00000  Uiso   1.00
C730   C     0.29314   0.46191   0.58941   0.00000  Uiso   1.00
C731   C     0.15591   0.48388   0.93603   0.00000  Uiso   1.00
C732   C     0.18057   0.48722   0.51550   0.00000  Uiso   1.00
C733   C     0.22550   0.46752   0.98829   0.00000  Uiso   1.00
C734   C     0.23347   0.45346   0.93741   0.00000  Uiso   1.00
C735   C     0.19893   0.46090   0.91193   0.00000  Uiso   1.00
C736   C     0.17395   0.50013   0.56702   0.00000  Uiso   1.00
C737   C     0.25395   0.47242   0.56464   0.00000  Uiso   1.00
Cu738  Cu    0.11978   0.49999   0.75000   0.00000  Uiso   1.00
Cu739  Cu    0.21355   0.50001   0.75000   0.00000  Uiso   1.00
H740   H     0.24251   0.37069   0.75022   0.00000  Uiso   1.00
H741   H     0.05169   0.52173   0.91449   0.00000  Uiso   1.00
H742   H     0.08329   0.51451   0.55768   0.00000  Uiso   1.00
H743   H     0.02700   0.52946   0.50948   0.00000  Uiso   1.00
H744   H     0.20608   0.44747   0.87351   0.00000  Uiso   1.00
H745   H     0.24249   0.62942   0.75035   0.00000  Uiso   1.00
H746   H     0.27790   0.44015   0.62212   0.00000  Uiso   1.00
H747   H     0.32559   0.44688   0.56128   0.00000  Uiso   1.00
H748   H     0.30651   0.49033   0.60364   0.00000  Uiso   1.00
H749   H     0.30551   0.45061   0.69610   0.00000  Uiso   1.00
H750   H     0.09086   0.37059   0.74963   0.00000  Uiso   1.00
H751   H     0.09084   0.62934   0.74977   0.00000  Uiso   1.00
H752   H     0.27392   0.54885   0.80486   0.00000  Uiso   1.00
H753   H     0.02763   0.54867   0.80504   0.00000  Uiso   1.00
H754   H     0.05934   0.45100   0.69536   0.00000  Uiso   1.00
H755   H     0.26670   0.43664   0.91705   0.00000  Uiso   1.00
H756   H     0.29607   0.44614   0.99082   0.00000  Uiso   1.00
H757   H     0.14145   0.51690   0.58856   0.00000  Uiso   1.00
N758   N     0.04931   0.49999   0.74999   0.00000  Uiso   1.00
N759   N     0.28402   0.50002   0.74999   0.00000  Uiso   1.00
O760   O     0.12708   0.56011   0.75001   0.00000  Uiso   1.00
O761   O     0.20627   0.56012   0.75000   0.00000  Uiso   1.00
O762   O     0.10775   0.49998   0.82549   0.00000  Uiso   1.00
O763   O     0.18694   0.49999   0.82549   0.00000  Uiso   1.00
O764   O     0.12706   0.43988   0.74999   0.00000  Uiso   1.00
O765   O     0.20625   0.43989   0.74999   0.00000  Uiso   1.00
O766   O     0.14640   0.50001   0.67451   0.00000  Uiso   1.00
O767   O     0.22559   0.50002   0.67451   0.00000  Uiso   1.00
C768   C     0.50001   0.57932   0.75005   0.00000  Uiso   1.00
C769   C     0.45722   0.49678   0.90782   0.00000  Uiso   1.00
C770   C     0.54256   0.64542   0.75019   0.00000  Uiso   1.00
C771   C     0.47356   0.49809   0.85020   0.00000  Uiso   1.00
C772   C     0.54257   0.35465   0.75012   0.00000  Uiso   1.00
C773   C     0.50001   0.37608   0.74994   0.00000  Uiso   1.00
C774   C     0.45746   0.35460   0.74979   0.00000  Uiso   1.00
C775   C     0.45745   0.64537   0.74986   0.00000  Uiso   1.00
C776   C     0.50001   0.62394   0.75005   0.00000  Uiso   1.00
C777   C     0.63304   0.52713   0.78045   0.00000  Uiso   1.00
C778   C     0.34931   0.52705   0.78054   0.00000  Uiso   1.00
C779   C     0.47756   0.49376   0.98995   0.00000  Uiso   1.00
C780   C     0.36693   0.47280   0.71966   0.00000  Uiso   1.00
C781   C     0.65060   0.47270   0.71987   0.00000  Uiso   1.00
C782   C     0.50000   0.42068   0.74995   0.00000  Uiso   1.00
C783   C     0.52657   0.49837   0.64973   0.00000  Uiso   1.00
C784   C     0.59518   0.46111   0.51245   0.00000  Uiso   1.00
C785   C     0.54211   0.49150   0.59265   0.00000  Uiso   1.00
C786   C     0.41053   0.51247   0.93502   0.00000  Uiso   1.00
C787   C     0.39664   0.51765   0.98886   0.00000  Uiso   1.00
C788   C     0.42987   0.50934   0.51608   0.00000  Uiso   1.00
C789   C     0.62648   0.46191   0.58941   0.00000  Uiso   1.00
C790   C     0.48924   0.48388   0.93603   0.00000  Uiso   1.00
C791   C     0.51391   0.48722   0.51550   0.00000  Uiso   1.00
C792   C     0.55883   0.46752   0.98829   0.00000  Uiso   1.00
C793   C     0.56680   0.45346   0.93741   0.00000  Uiso   1.00
C794   C     0.53226   0.46090   0.91193   0.00000  Uiso   1.00
C795   C     0.50728   0.50013   0.56702   0.00000  Uiso   1.00
C796   C     0.58729   0.47242   0.56464   0.00000  Uiso   1.00
Cu797  Cu    0.45311   0.49999   0.75000   0.00000  Uiso   1.00
Cu798  Cu    0.54689   0.50001   0.75000   0.00000  Uiso   1.00
H799   H     0.57585   0.37069   0.75022   0.00000  Uiso   1.00
H800   H     0.38502   0.52173   0.91449   0.00000  Uiso   1.00
H801   H     0.41662   0.51451   0.55768   0.00000  Uiso   1.00
H802   H     0.36033   0.52946   0.50948   0.00000  Uiso   1.00
H803   H     0.53942   0.44747   0.87351   0.00000  Uiso   1.00
H804   H     0.57583   0.62942   0.75035   0.00000  Uiso   1.00
H805   H     0.61124   0.44015   0.62212   0.00000  Uiso   1.00
H806   H     0.65893   0.44688   0.56128   0.00000  Uiso   1.00
H807   H     0.63984   0.49033   0.60364   0.00000  Uiso   1.00
H808   H     0.63885   0.45061   0.69610   0.00000  Uiso   1.00
H809   H     0.42420   0.37059   0.74963   0.00000  Uiso   1.00
H810   H     0.42417   0.62934   0.74977   0.00000  Uiso   1.00
H811   H     0.60726   0.54885   0.80486   0.00000  Uiso   1.00
H812   H     0.36096   0.54867   0.80504   0.00000  Uiso   1.00
H813   H     0.39267   0.45100   0.69536   0.00000  Uiso   1.00
H814   H     0.60003   0.43664   0.91705   0.00000  Uiso   1.00
H815   H     0.62941   0.44614   0.99082   0.00000  Uiso   1.00
H816   H     0.47478   0.51690   0.58856   0.00000  Uiso   1.00
N817   N     0.38265   0.49999   0.74999   0.00000  Uiso   1.00
N818   N     0.61735   0.50002   0.74999   0.00000  Uiso   1.00
O819   O     0.46042   0.56011   0.75001   0.00000  Uiso   1.00
O820   O     0.53961   0.56012   0.75000   0.00000  Uiso   1.00
O821   O     0.44108   0.49998   0.82549   0.00000  Uiso   1.00
O822   O     0.52027   0.49999   0.82549   0.00000  Uiso   1.00
O823   O     0.46039   0.43988   0.74999   0.00000  Uiso   1.00
O824   O     0.53958   0.43989   0.74999   0.00000  Uiso   1.00
O825   O     0.47973   0.50001   0.67451   0.00000  Uiso   1.00
O826   O     0.55892   0.50002   0.67451   0.00000  Uiso   1.00
C827   C     0.83334   0.57932   0.75005   0.00000  Uiso   1.00
C828   C     0.79055   0.49678   0.90782   0.00000  Uiso   1.00
C829   C     0.87590   0.64542   0.75019   0.00000  Uiso   1.00
C830   C     0.80689   0.49809   0.85020   0.00000  Uiso   1.00
C831   C     0.87591   0.35465   0.75012   0.00000  Uiso   1.00
C832   C     0.83335   0.37608   0.74994   0.00000  Uiso   1.00
C833   C     0.79079   0.35460   0.74979   0.00000  Uiso   1.00
C834   C     0.79078   0.64537   0.74986   0.00000  Uiso   1.00
C835   C     0.83334   0.62394   0.75005   0.00000  Uiso   1.00
C836   C     0.96637   0.52713   0.78045   0.00000  Uiso   1.00
C837   C     0.68265   0.52705   0.78054   0.00000  Uiso   1.00
C838   C     0.81089   0.49376   0.98995   0.00000  Uiso   1.00
C839   C     0.70027   0.47280   0.71966   0.00000  Uiso   1.00
C840   C     0.98393   0.47270   0.71987   0.00000  Uiso   1.00
C841   C     0.83333   0.42068   0.74995   0.00000  Uiso   1.00
C842   C     0.85991   0.49837   0.64973   0.00000  Uiso   1.00
C843   C     0.92851   0.46111   0.51245   0.00000  Uiso   1.00
C844   C     0.87544   0.49150   0.59265   0.00000  Uiso   1.00
C845   C     0.74386   0.51247   0.93502   0.00000  Uiso   1.00
C846   C     0.72997   0.51765   0.98886   0.00000  Uiso   1.00
C847   C     0.76321   0.50934   0.51608   0.00000  Uiso   1.00
C848   C     0.95981   0.46191   0.58941   0.00000  Uiso   1.00
C849   C     0.82258   0.48388   0.93603   0.00000  Uiso   1.00
C850   C     0.84724   0.48722   0.51550   0.00000  Uiso   1.00
C851   C     0.89216   0.46752   0.98829   0.00000  Uiso   1.00
C852   C     0.90013   0.45346   0.93741   0.00000  Uiso   1.00
C853   C     0.86559   0.46090   0.91193   0.00000  Uiso   1.00
C854   C     0.84062   0.50013   0.56702   0.00000  Uiso   1.00
C855   C     0.92062   0.47242   0.56464   0.00000  Uiso   1.00
Cu856  Cu    0.78645   0.49999   0.75000   0.00000  Uiso   1.00
Cu857  Cu    0.88022   0.50001   0.75000   0.00000  Uiso   1.00
H858   H     0.90918   0.37069   0.75022   0.00000  Uiso   1.00
H859   H     0.71835   0.52173   0.91449   0.00000  Uiso   1.00
H860   H     0.74995   0.51451   0.55768   0.00000  Uiso   1.00
H861   H     0.69367   0.52946   0.50948   0.00000  Uiso   1.00
H862   H     0.87275   0.44747   0.87351   0.00000  Uiso   1.00
H863   H     0.90916   0.62942   0.75035   0.00000  Uiso   1.00
H864   H     0.94457   0.44015   0.62212   0.00000  Uiso   1.00
H865   H     0.99226   0.44688   0.56128   0.00000  Uiso   1.00
H866   H     0.97318   0.49033   0.60364   0.00000  Uiso   1.00
H867   H     0.97218   0.45061   0.69610   0.00000  Uiso   1.00
H868   H     0.75753   0.37059   0.74963   0.00000  Uiso   1.00
H869   H     0.75751   0.62934   0.74977   0.00000  Uiso   1.00
H870   H     0.94059   0.54885   0.80486   0.00000  Uiso   1.00
H871   H     0.69429   0.54867   0.80504   0.00000  Uiso   1.00
H872   H     0.72601   0.45100   0.69536   0.00000  Uiso   1.00
H873   H     0.93336   0.43664   0.91705   0.00000  Uiso   1.00
H874   H     0.96274   0.44614   0.99082   0.00000  Uiso   1.00
H875   H     0.80811   0.51690   0.58856   0.00000  Uiso   1.00
N876   N     0.71598   0.49999   0.74999   0.00000  Uiso   1.00
N877   N     0.95069   0.50002   0.74999   0.00000  Uiso   1.00
O878   O     0.79375   0.56011   0.75001   0.00000  Uiso   1.00
O879   O     0.87294   0.56012   0.75000   0.00000  Uiso   1.00
O880   O     0.77441   0.49998   0.82549   0.00000  Uiso   1.00
O881   O     0.85360   0.49999   0.82549   0.00000  Uiso   1.00
O882   O     0.79373   0.43988   0.74999   0.00000  Uiso   1.00
O883   O     0.87292   0.43989   0.74999   0.00000  Uiso   1.00
O884   O     0.81306   0.50001   0.67451   0.00000  Uiso   1.00
O885   O     0.89225   0.50002   0.67451   0.00000  Uiso   1.00
C886   C     0.16667   0.91265   0.75005   0.00000  Uiso   1.00
C887   C     0.12389   0.83012   0.90782   0.00000  Uiso   1.00
C888   C     0.20923   0.97875   0.75019   0.00000  Uiso   1.00
C889   C     0.14023   0.83142   0.85020   0.00000  Uiso   1.00
C890   C     0.20924   0.68798   0.75012   0.00000  Uiso   1.00
C891   C     0.16668   0.70941   0.74994   0.00000  Uiso   1.00
C892   C     0.12413   0.68793   0.74979   0.00000  Uiso   1.00
C893   C     0.12412   0.97870   0.74986   0.00000  Uiso   1.00
C894   C     0.16667   0.95727   0.75005   0.00000  Uiso   1.00
C895   C     0.29970   0.86047   0.78045   0.00000  Uiso   1.00
C896   C     0.01598   0.86038   0.78054   0.00000  Uiso   1.00
C897   C     0.14423   0.82710   0.98995   0.00000  Uiso   1.00
C898   C     0.03360   0.80614   0.71966   0.00000  Uiso   1.00
C899   C     0.31727   0.80604   0.71987   0.00000  Uiso   1.00
C900   C     0.16667   0.75401   0.74995   0.00000  Uiso   1.00
C901   C     0.19324   0.83171   0.64973   0.00000  Uiso   1.00
C902   C     0.26185   0.79445   0.51245   0.00000  Uiso   1.00
C903   C     0.20877   0.82483   0.59265   0.00000  Uiso   1.00
C904   C     0.07719   0.84580   0.93502   0.00000  Uiso   1.00
C905   C     0.06331   0.85099   0.98886   0.00000  Uiso   1.00
C906   C     0.09654   0.84267   0.51608   0.00000  Uiso   1.00
C907   C     0.29314   0.79525   0.58941   0.00000  Uiso   1.00
C908   C     0.15591   0.81721   0.93603   0.00000  Uiso   1.00
C909   C     0.18057   0.82056   0.51550   0.00000  Uiso   1.00
C910   C     0.22550   0.80085   0.98829   0.00000  Uiso   1.00
C911   C     0.23347   0.78679   0.93741   0.00000  Uiso   1.00
C912   C     0.19893   0.79423   0.91193   0.00000  Uiso   1.00
C913   C     0.17395   0.83347   0.56702   0.00000  Uiso   1.00
C914   C     0.25395   0.80575   0.56464   0.00000  Uiso   1.00
Cu915  Cu    0.11978   0.83333   0.75000   0.00000  Uiso   1.00
Cu916  Cu    0.21355   0.83334   0.75000   0.00000  Uiso   1.00
H917   H     0.24251   0.70402   0.75022   0.00000  Uiso   1.00
H918   H     0.05169   0.85506   0.91449   0.00000  Uiso   1.00
H919   H     0.08329   0.84785   0.55768   0.00000  Uiso   1.00
H920   H     0.02700   0.86280   0.50948   0.00000  Uiso   1.00
H921   H     0.20608   0.78080   0.87351   0.00000  Uiso   1.00
H922   H     0.24249   0.96276   0.75035   0.00000  Uiso   1.00
H923   H     0.27790   0.77348   0.62212   0.00000  Uiso   1.00
H924   H     0.32559   0.78021   0.56128   0.00000  Uiso   1.00
H925   H     0.30651   0.82366   0.60364   0.00000  Uiso   1.00
H926   H     0.30551   0.78395   0.69610   0.00000  Uiso   1.00
H927   H     0.09086   0.70392   0.74963   0.00000  Uiso   1.00
H928   H     0.09084   0.96267   0.74977   0.00000  Uiso   1.00
H929   H     0.27392   0.88218   0.80486   0.00000  Uiso   1.00
H930   H     0.02763   0.88201   0.80504   0.00000  Uiso   1.00
H931   H     0.05934   0.78434   0.69536   0.00000  Uiso   1.00
H932   H     0.26670   0.76998   0.91705   0.00000  Uiso   1.00
H933   H     0.29607   0.77947   0.99082   0.00000  Uiso   1.00
H934   H     0.14145   0.85023   0.58856   0.00000  Uiso   1.00
N935   N     0.04931   0.83332   0.74999   0.00000  Uiso   1.00
N936   N     0.28402   0.83335   0.74999   0.00000  Uiso   1.00
O937   O     0.12708   0.89345   0.75001   0.00000  Uiso   1.00
O938   O     0.20627   0.89346   0.75000   0.00000  Uiso   1.00
O939   O     0.10775   0.83332   0.82549   0.00000  Uiso   1.00
O940   O     0.18694   0.83333   0.82549   0.00000  Uiso   1.00
O941   O     0.12706   0.77321   0.74999   0.00000  Uiso   1.00
O942   O     0.20625   0.77322   0.74999   0.00000  Uiso   1.00
O943   O     0.14640   0.83334   0.67451   0.00000  Uiso   1.00
O944   O     0.22559   0.83335   0.67451   0.00000  Uiso   1.00
C945   C     0.50001   0.91265   0.75005   0.00000  Uiso   1.00
C946   C     0.45722   0.83012   0.90782   0.00000  Uiso   1.00
C947   C     0.54256   0.97875   0.75019   0.00000  Uiso   1.00
C948   C     0.47356   0.83142   0.85020   0.00000  Uiso   1.00
C949   C     0.54257   0.68798   0.75012   0.00000  Uiso   1.00
C950   C     0.50001   0.70941   0.74994   0.00000  Uiso   1.00
C951   C     0.45746   0.68793   0.74979   0.00000  Uiso   1.00
C952   C     0.45745   0.97870   0.74986   0.00000  Uiso   1.00
C953   C     0.50001   0.95727   0.75005   0.00000  Uiso   1.00
C954   C     0.63304   0.86047   0.78045   0.00000  Uiso   1.00
C955   C     0.34931   0.86038   0.78054   0.00000  Uiso   1.00
C956   C     0.47756   0.82710   0.98995   0.00000  Uiso   1.00
C957   C     0.36693   0.80614   0.71966   0.00000  Uiso   1.00
C958   C     0.65060   0.80604   0.71987   0.00000  Uiso   1.00
C959   C     0.50000   0.75401   0.74995   0.00000  Uiso   1.00
C960   C     0.52657   0.83171   0.64973   0.00000  Uiso   1.00
C961   C     0.59518   0.79445   0.51245   0.00000  Uiso   1.00
C962   C     0.54211   0.82483   0.59265   0.00000  Uiso   1.00
C963   C     0.41053   0.84580   0.93502   0.00000  Uiso   1.00
C964   C     0.39664   0.85099   0.98886   0.00000  Uiso   1.00
C965   C     0.42987   0.84267   0.51608   0.00000  Uiso   1.00
C966   C     0.62648   0.79525   0.58941   0.00000  Uiso   1.00
C967   C     0.48924   0.81721   0.93603   0.00000  Uiso   1.00
C968   C     0.51391   0.82056   0.51550   0.00000  Uiso   1.00
C969   C     0.55883   0.80085   0.98829   0.00000  Uiso   1.00
C970   C     0.56680   0.78679   0.93741   0.00000  Uiso   1.00
C971   C     0.53226   0.79423   0.91193   0.00000  Uiso   1.00
C972   C     0.50728   0.83347   0.56702   0.00000  Uiso   1.00
C973   C     0.58729   0.80575   0.56464   0.00000  Uiso   1.00
Cu974  Cu    0.45311   0.83333   0.75000   0.00000  Uiso   1.00
Cu975  Cu    0.54689   0.83334   0.75000   0.00000  Uiso   1.00
H976   H     0.57585   0.70402   0.75022   0.00000  Uiso   1.00
H977   H     0.38502   0.85506   0.91449   0.00000  Uiso   1.00
H978   H     0.41662   0.84785   0.55768   0.00000  Uiso   1.00
H979   H     0.36033   0.86280   0.50948   0.00000  Uiso   1.00
H980   H     0.53942   0.78080   0.87351   0.00000  Uiso   1.00
H981   H     0.57583   0.96276   0.75035   0.00000  Uiso   1.00
H982   H     0.61124   0.77348   0.62212   0.00000  Uiso   1.00
H983   H     0.65893   0.78021   0.56128   0.00000  Uiso   1.00
H984   H     0.63984   0.82366   0.60364   0.00000  Uiso   1.00
H985   H     0.63885   0.78395   0.69610   0.00000  Uiso   1.00
H986   H     0.42420   0.70392   0.74963   0.00000  Uiso   1.00
H987   H     0.42417   0.96267   0.74977   0.00000  Uiso   1.00
H988   H     0.60726   0.88218   0.80486   0.00000  Uiso   1.00
H989   H     0.36096   0.88201   0.80504   0.00000  Uiso   1.00
H990   H     0.39267   0.78434   0.69536   0.00000  Uiso   1.00
H991   H     0.60003   0.76998   0.91705   0.00000  Uiso   1.00
H992   H     0.62941   0.77947   0.99082   0.00000  Uiso   1.00
H993   H     0.47478   0.85023   0.58856   0.00000  Uiso   1.00
N994   N     0.38265   0.83332   0.74999   0.00000  Uiso   1.00
N995   N     0.61735   0.83335   0.74999   0.00000  Uiso   1.00
O996   O     0.46042   0.89345   0.75001   0.00000  Uiso   1.00
O997   O     0.53961   0.89346   0.75000   0.00000  Uiso   1.00
O998   O     0.44108   0.83332   0.82549   0.00000  Uiso   1.00
O999   O     0.52027   0.83333   0.82549   0.00000  Uiso   1.00
O1000  O     0.46039   0.77321   0.74999   0.00000  Uiso   1.00
O1001  O     0.53958   0.77322   0.74999   0.00000  Uiso   1.00
O1002  O     0.47973   0.83334   0.67451   0.00000  Uiso   1.00
O1003  O     0.55892   0.83335   0.67451   0.00000  Uiso   1.00
C1004  C     0.83334   0.91265   0.75005   0.00000  Uiso   1.00
C1005  C     0.79055   0.83012   0.90782   0.00000  Uiso   1.00
C1006  C     0.87590   0.97875   0.75019   0.00000  Uiso   1.00
C1007  C     0.80689   0.83142   0.85020   0.00000  Uiso   1.00
C1008  C     0.87591   0.68798   0.75012   0.00000  Uiso   1.00
C1009  C     0.83335   0.70941   0.74994   0.00000  Uiso   1.00
C1010  C     0.79079   0.68793   0.74979   0.00000  Uiso   1.00
C1011  C     0.79078   0.97870   0.74986   0.00000  Uiso   1.00
C1012  C     0.83334   0.95727   0.75005   0.00000  Uiso   1.00
C1013  C     0.96637   0.86047   0.78045   0.00000  Uiso   1.00
C1014  C     0.68265   0.86038   0.78054   0.00000  Uiso   1.00
C1015  C     0.81089   0.82710   0.98995   0.00000  Uiso   1.00
C1016  C     0.70027   0.80614   0.71966   0.00000  Uiso   1.00
C1017  C     0.98393   0.80604   0.71987   0.00000  Uiso   1.00
C1018  C     0.83333   0.75401   0.74995   0.00000  Uiso   1.00
C1019  C     0.85991   0.83171   0.64973   0.00000  Uiso   1.00
C1020  C     0.92851   0.79445   0.51245   0.00000  Uiso   1.00
C1021  C     0.87544   0.82483   0.59265   0.00000  Uiso   1.00
C1022  C     0.74386   0.84580   0.93502   0.00000  Uiso   1.00
C1023  C     0.72997   0.85099   0.98886   0.00000  Uiso   1.00
C1024  C     0.76321   0.84267   0.51608   0.00000  Uiso   1.00
C1025  C     0.95981   0.79525   0.58941   0.00000  Uiso   1.00
C1026  C     0.82258   0.81721   0.93603   0.00000  Uiso   1.00
C1027  C     0.84724   0.82056   0.51550   0.00000  Uiso   1.00
C1028  C     0.89216   0.80085   0.98829   0.00000  Uiso   1.00
C1029  C     0.90013   0.78679   0.93741   0.00000  Uiso   1.00
C1030  C     0.86559   0.79423   0.91193   0.00000  Uiso   1.00
C1031  C     0.84062   0.83347   0.56702   0.00000  Uiso   1.00
C1032  C     0.92062   0.80575   0.56464   0.00000  Uiso   1.00
Cu1033 Cu    0.78645   0.83333   0.75000   0.00000  Uiso   1.00
Cu1034 Cu    0.88022   0.83334   0.75000   0.00000  Uiso   1.00
H1035  H     0.90918   0.70402   0.75022   0.00000  Uiso   1.00
H1036  H     0.71835   0.85506   0.91449   0.00000  Uiso   1.00
H1037  H     0.74995   0.84785   0.55768   0.00000  Uiso   1.00
H1038  H     0.69367   0.86280   0.50948   0.00000  Uiso   1.00
H1039  H     0.87275   0.78080   0.87351   0.00000  Uiso   1.00
H1040  H     0.90916   0.96276   0.75035   0.00000  Uiso   1.00
H1041  H     0.94457   0.77348   0.62212   0.00000  Uiso   1.00
H1042  H     0.99226   0.78021   0.56128   0.00000  Uiso   1.00
H1043  H     0.97318   0.82366   0.60364   0.00000  Uiso   1.00
H1044  H     0.97218   0.78395   0.69610   0.00000  Uiso   1.00
H1045  H     0.75753   0.70392   0.74963   0.00000  Uiso   1.00
H1046  H     0.75751   0.96267   0.74977   0.00000  Uiso   1.00
H1047  H     0.94059   0.88218   0.80486   0.00000  Uiso   1.00
H1048  H     0.69429   0.88201   0.80504   0.00000  Uiso   1.00
H1049  H     0.72601   0.78434   0.69536   0.00000  Uiso   1.00
H1050  H     0.93336   0.76998   0.91705   0.00000  Uiso   1.00
H1051  H     0.96274   0.77947   0.99082   0.00000  Uiso   1.00
H1052  H     0.80811   0.85023   0.58856   0.00000  Uiso   1.00
N1053  N     0.71598   0.83332   0.74999   0.00000  Uiso   1.00
N1054  N     0.95069   0.83335   0.74999   0.00000  Uiso   1.00
O1055  O     0.79375   0.89345   0.75001   0.00000  Uiso   1.00
O1056  O     0.87294   0.89346   0.75000   0.00000  Uiso   1.00
O1057  O     0.77441   0.83332   0.82549   0.00000  Uiso   1.00
O1058  O     0.85360   0.83333   0.82549   0.00000  Uiso   1.00
O1059  O     0.79373   0.77321   0.74999   0.00000  Uiso   1.00
O1060  O     0.87292   0.77322   0.74999   0.00000  Uiso   1.00
O1061  O     0.81306   0.83334   0.67451   0.00000  Uiso   1.00
O1062  O     0.89225   0.83335   0.67451   0.00000  Uiso   1.00
loop_
_geom_bond_atom_site_label_1
_geom_bond_atom_site_label_2
_geom_bond_distance
_geom_bond_site_symmetry_2
_ccdc_geom_bond_type
C1     O52     1.290   .     A
C1     C9      1.450   .     S
C1     O53     1.290   .     A
C2     C4      1.475   .     S
C2     C23     1.420   .     A
C2     C19     1.403   .     A
C3     C9      1.401   .     A
C3     H37     1.083   .     S
C3     C182    1.384   .     S
C4     O54     1.297   .     A
C4     O55     1.294   .     A
C5     H32     1.083   .     S
C5     C6      1.401   .     A
C5     C357    1.384   1_545 S
C6     C7      1.401   .     A
C6     C15     1.450   .     S
C7     H42     1.083   .     S
C7     C362    1.383   1_545 S
C8     H43     1.083   .     S
C8     C9      1.401   .     A
C8     C184    1.383   .     S
C10    N51     1.367   .     A
C10    H44     1.082   .     S
C10    C70     1.416   .     S
C11    N50     1.367   .     A
C11    H45     1.082   .     S
C11    C128    1.416   1_455 S
C12    C23     1.420   .     A
C12    C552    1.418   .     S
C12    C555    1.426   .     S
C13    N50     1.366   .     A
C13    H46     1.082   .     S
C13    C132    1.415   1_455 S
C14    H41     1.080   .     S
C14    N51     1.366   .     A
C14    C72     1.415   .     S
C15    O57     1.290   .     A
C15    O56     1.291   .     A
C16    O58     1.297   .     A
C16    C18     1.477   .     S
C16    O59     1.295   .     A
C17    C29     1.399   .     A
C17    C556    1.399   1_554 S
C17    H579    1.085   1_554 S
C18    C28     1.401   .     A
C18    C29     1.419   .     A
C19    C20     1.388   .     A
C19    H33     1.083   .     S
C20    C552    1.392   .     S
C20    H566    1.083   .     S
C21    H34     1.077   .     S
C21    C551    1.392   1_554 S
C21    C543    1.418   1_554 S
C22    C29     1.507   .     S
C22    H40     1.110   .     S
C22    H39     1.111   .     S
C22    H38     1.109   .     S
C23    C27     1.411   .     A
C24    C28     1.402   .     A
C24    C543    1.426   1_554 S
C24    C556    1.417   1_554 S
C25    C26     1.392   .     A
C25    C548    1.399   .     S
C25    C555    1.417   .     S
C26    C27     1.384   .     A
C26    H47     1.084   .     S
C27    H36     1.080   .     S
C28    H49     1.077   .     S
Cu30   N50     2.010   .     S
Cu30   O54     1.952   .     S
Cu30   O58     1.936   .     S
Cu30   Cu31    2.675   .     S
Cu30   O52     1.965   .     S
Cu30   O56     1.965   .     S
Cu31   O57     1.965   .     S
Cu31   O59     1.952   .     S
Cu31   O55     1.936   .     S
Cu31   O53     1.965   .     S
Cu31   N51     2.010   .     S
H35    C551    1.083   1_554 S
H48    C548    1.085   .     S
C60    O111    1.290   .     A
C60    C68     1.450   .     S
C60    O112    1.290   .     A
C61    C63     1.475   .     S
C61    C82     1.420   .     A
C61    C78     1.403   .     A
C62    C68     1.401   .     A
C62    H96     1.083   .     S
C62    C241    1.384   .     S
C63    O113    1.297   .     A
C63    O114    1.294   .     A
C64    H91     1.083   .     S
C64    C65     1.401   .     A
C64    C416    1.384   1_545 S
C65    C66     1.401   .     A
C65    C74     1.450   .     S
C66    H101    1.083   .     S
C66    C421    1.383   1_545 S
C67    H102    1.083   .     S
C67    C68     1.401   .     A
C67    C243    1.383   .     S
C69    N110    1.367   .     A
C69    H103    1.082   .     S
C69    C129    1.416   .     S
C70    N109    1.367   .     A
C70    H104    1.082   .     S
C71    C82     1.420   .     A
C71    C611    1.418   .     S
C71    C614    1.426   .     S
C72    N109    1.366   .     A
C72    H105    1.082   .     S
C73    H100    1.080   .     S
C73    N110    1.366   .     A
C73    C131    1.415   .     S
C74    O116    1.290   .     A
C74    O115    1.291   .     A
C75    O117    1.297   .     A
C75    C77     1.477   .     S
C75    O118    1.295   .     A
C76    C88     1.399   .     A
C76    C615    1.399   1_554 S
C76    H638    1.085   1_554 S
C77    C87     1.401   .     A
C77    C88     1.419   .     A
C78    C79     1.388   .     A
C78    H92     1.083   .     S
C79    C611    1.392   .     S
C79    H625    1.083   .     S
C80    H93     1.077   .     S
C80    C610    1.392   1_554 S
C80    C602    1.418   1_554 S
C81    C88     1.507   .     S
C81    H99     1.110   .     S
C81    H98     1.111   .     S
C81    H97     1.109   .     S
C82    C86     1.411   .     A
C83    C87     1.402   .     A
C83    C602    1.426   1_554 S
C83    C615    1.417   1_554 S
C84    C85     1.392   .     A
C84    C607    1.399   .     S
C84    C614    1.417   .     S
C85    C86     1.384   .     A
C85    H106    1.084   .     S
C86    H95     1.080   .     S
C87    H108    1.077   .     S
Cu89   N109    2.010   .     S
Cu89   O113    1.952   .     S
Cu89   O117    1.936   .     S
Cu89   Cu90    2.675   .     S
Cu89   O111    1.965   .     S
Cu89   O115    1.965   .     S
Cu90   O116    1.965   .     S
Cu90   O118    1.952   .     S
Cu90   O114    1.936   .     S
Cu90   O112    1.965   .     S
Cu90   N110    2.010   .     S
H94    C610    1.083   1_554 S
H107   C607    1.085   .     S
C119   O170    1.290   .     A
C119   C127    1.450   .     S
C119   O171    1.290   .     A
C120   C122    1.475   .     S
C120   C141    1.420   .     A
C120   C137    1.403   .     A
C121   C127    1.401   .     A
C121   H155    1.083   .     S
C121   C300    1.384   .     S
C122   O172    1.297   .     A
C122   O173    1.294   .     A
C123   H150    1.083   .     S
C123   C124    1.401   .     A
C123   C475    1.384   1_545 S
C124   C125    1.401   .     A
C124   C133    1.450   .     S
C125   H160    1.083   .     S
C125   C480    1.383   1_545 S
C126   H161    1.083   .     S
C126   C127    1.401   .     A
C126   C302    1.383   .     S
C128   N169    1.367   .     A
C128   H162    1.082   .     S
C128   C11     1.416   1_655 S
C129   N168    1.367   .     A
C129   H163    1.082   .     S
C130   C141    1.420   .     A
C130   C670    1.418   .     S
C130   C673    1.426   .     S
C131   N168    1.366   .     A
C131   H164    1.082   .     S
C132   H159    1.080   .     S
C132   N169    1.366   .     A
C132   C13     1.415   1_655 S
C133   O175    1.290   .     A
C133   O174    1.291   .     A
C134   O176    1.297   .     A
C134   C136    1.477   .     S
C134   O177    1.295   .     A
C135   C147    1.399   .     A
C135   C674    1.399   1_554 S
C135   H697    1.085   1_554 S
C136   C146    1.401   .     A
C136   C147    1.419   .     A
C137   C138    1.388   .     A
C137   H151    1.083   .     S
C138   C670    1.392   .     S
C138   H684    1.083   .     S
C139   H152    1.077   .     S
C139   C669    1.392   1_554 S
C139   C661    1.418   1_554 S
C140   C147    1.507   .     S
C140   H158    1.110   .     S
C140   H157    1.111   .     S
C140   H156    1.109   .     S
C141   C145    1.411   .     A
C142   C146    1.402   .     A
C142   C661    1.426   1_554 S
C142   C674    1.417   1_554 S
C143   C144    1.392   .     A
C143   C666    1.399   .     S
C143   C673    1.417   .     S
C144   C145    1.384   .     A
C144   H165    1.084   .     S
C145   H154    1.080   .     S
C146   H167    1.077   .     S
Cu148  N168    2.010   .     S
Cu148  O172    1.952   .     S
Cu148  O176    1.936   .     S
Cu148  Cu149   2.675   .     S
Cu148  O170    1.965   .     S
Cu148  O174    1.965   .     S
Cu149  O175    1.965   .     S
Cu149  O177    1.952   .     S
Cu149  O173    1.936   .     S
Cu149  O171    1.965   .     S
Cu149  N169    2.010   .     S
H153   C669    1.083   1_554 S
H166   C666    1.085   .     S
C178   O229    1.290   .     A
C178   C186    1.450   .     S
C178   O230    1.290   .     A
C179   C181    1.475   .     S
C179   C200    1.420   .     A
C179   C196    1.403   .     A
C180   C186    1.401   .     A
C180   H214    1.083   .     S
C180   C359    1.384   .     S
C181   O231    1.297   .     A
C181   O232    1.294   .     A
C182   H209    1.083   .     S
C182   C183    1.401   .     A
C183   C184    1.401   .     A
C183   C192    1.450   .     S
C184   H219    1.083   .     S
C185   H220    1.083   .     S
C185   C186    1.401   .     A
C185   C361    1.383   .     S
C187   N228    1.367   .     A
C187   H221    1.082   .     S
C187   C247    1.416   .     S
C188   N227    1.367   .     A
C188   H222    1.082   .     S
C188   C305    1.416   1_455 S
C189   C200    1.420   .     A
C189   C729    1.418   .     S
C189   C732    1.426   .     S
C190   N227    1.366   .     A
C190   H223    1.082   .     S
C190   C309    1.415   1_455 S
C191   H218    1.080   .     S
C191   N228    1.366   .     A
C191   C249    1.415   .     S
C192   O234    1.290   .     A
C192   O233    1.291   .     A
C193   O235    1.297   .     A
C193   C195    1.477   .     S
C193   O236    1.295   .     A
C194   C206    1.399   .     A
C194   C733    1.399   1_554 S
C194   H756    1.085   1_554 S
C195   C205    1.401   .     A
C195   C206    1.419   .     A
C196   C197    1.388   .     A
C196   H210    1.083   .     S
C197   C729    1.392   .     S
C197   H743    1.083   .     S
C198   H211    1.077   .     S
C198   C728    1.392   1_554 S
C198   C720    1.418   1_554 S
C199   C206    1.507   .     S
C199   H217    1.110   .     S
C199   H216    1.111   .     S
C199   H215    1.109   .     S
C200   C204    1.411   .     A
C201   C205    1.402   .     A
C201   C720    1.426   1_554 S
C201   C733    1.417   1_554 S
C202   C203    1.392   .     A
C202   C725    1.399   .     S
C202   C732    1.417   .     S
C203   C204    1.384   .     A
C203   H224    1.084   .     S
C204   H213    1.080   .     S
C205   H226    1.077   .     S
Cu207  N227    2.010   .     S
Cu207  O231    1.952   .     S
Cu207  O235    1.936   .     S
Cu207  Cu208   2.675   .     S
Cu207  O229    1.965   .     S
Cu207  O233    1.965   .     S
Cu208  O234    1.965   .     S
Cu208  O236    1.952   .     S
Cu208  O232    1.936   .     S
Cu208  O230    1.965   .     S
Cu208  N228    2.010   .     S
H212   C728    1.083   1_554 S
H225   C725    1.085   .     S
C237   O288    1.290   .     A
C237   C245    1.450   .     S
C237   O289    1.290   .     A
C238   C240    1.475   .     S
C238   C259    1.420   .     A
C238   C255    1.403   .     A
C239   C245    1.401   .     A
C239   H273    1.083   .     S
C239   C418    1.384   .     S
C240   O290    1.297   .     A
C240   O291    1.294   .     A
C241   H268    1.083   .     S
C241   C242    1.401   .     A
C242   C243    1.401   .     A
C242   C251    1.450   .     S
C243   H278    1.083   .     S
C244   H279    1.083   .     S
C244   C245    1.401   .     A
C244   C420    1.383   .     S
C246   N287    1.367   .     A
C246   H280    1.082   .     S
C246   C306    1.416   .     S
C247   N286    1.367   .     A
C247   H281    1.082   .     S
C248   C259    1.420   .     A
C248   C788    1.418   .     S
C248   C791    1.426   .     S
C249   N286    1.366   .     A
C249   H282    1.082   .     S
C250   H277    1.080   .     S
C250   N287    1.366   .     A
C250   C308    1.415   .     S
C251   O293    1.290   .     A
C251   O292    1.291   .     A
C252   O294    1.297   .     A
C252   C254    1.477   .     S
C252   O295    1.295   .     A
C253   C265    1.399   .     A
C253   C792    1.399   1_554 S
C253   H815    1.085   1_554 S
C254   C264    1.401   .     A
C254   C265    1.419   .     A
C255   C256    1.388   .     A
C255   H269    1.083   .     S
C256   C788    1.392   .     S
C256   H802    1.083   .     S
C257   H270    1.077   .     S
C257   C787    1.392   1_554 S
C257   C779    1.418   1_554 S
C258   C265    1.507   .     S
C258   H276    1.110   .     S
C258   H275    1.111   .     S
C258   H274    1.109   .     S
C259   C263    1.411   .     A
C260   C264    1.402   .     A
C260   C779    1.426   1_554 S
C260   C792    1.417   1_554 S
C261   C262    1.392   .     A
C261   C784    1.399   .     S
C261   C791    1.417   .     S
C262   C263    1.384   .     A
C262   H283    1.084   .     S
C263   H272    1.080   .     S
C264   H285    1.077   .     S
Cu266  N286    2.010   .     S
Cu266  O290    1.952   .     S
Cu266  O294    1.936   .     S
Cu266  Cu267   2.675   .     S
Cu266  O288    1.965   .     S
Cu266  O292    1.965   .     S
Cu267  O293    1.965   .     S
Cu267  O295    1.952   .     S
Cu267  O291    1.936   .     S
Cu267  O289    1.965   .     S
Cu267  N287    2.010   .     S
H271   C787    1.083   1_554 S
H284   C784    1.085   .     S
C296   O347    1.290   .     A
C296   C304    1.450   .     S
C296   O348    1.290   .     A
C297   C299    1.475   .     S
C297   C318    1.420   .     A
C297   C314    1.403   .     A
C298   C304    1.401   .     A
C298   H332    1.083   .     S
C298   C477    1.384   .     S
C299   O349    1.297   .     A
C299   O350    1.294   .     A
C300   H327    1.083   .     S
C300   C301    1.401   .     A
C301   C302    1.401   .     A
C301   C310    1.450   .     S
C302   H337    1.083   .     S
C303   H338    1.083   .     S
C303   C304    1.401   .     A
C303   C479    1.383   .     S
C305   N346    1.367   .     A
C305   H339    1.082   .     S
C305   C188    1.416   1_655 S
C306   N345    1.367   .     A
C306   H340    1.082   .     S
C307   C318    1.420   .     A
C307   C847    1.418   .     S
C307   C850    1.426   .     S
C308   N345    1.366   .     A
C308   H341    1.082   .     S
C309   H336    1.080   .     S
C309   N346    1.366   .     A
C309   C190    1.415   1_655 S
C310   O352    1.290   .     A
C310   O351    1.291   .     A
C311   O353    1.297   .     A
C311   C313    1.477   .     S
C311   O354    1.295   .     A
C312   C324    1.399   .     A
C312   C851    1.399   1_554 S
C312   H874    1.085   1_554 S
C313   C323    1.401   .     A
C313   C324    1.419   .     A
C314   C315    1.388   .     A
C314   H328    1.083   .     S
C315   C847    1.392   .     S
C315   H861    1.083   .     S
C316   H329    1.077   .     S
C316   C846    1.392   1_554 S
C316   C838    1.418   1_554 S
C317   C324    1.507   .     S
C317   H335    1.110   .     S
C317   H334    1.111   .     S
C317   H333    1.109   .     S
C318   C322    1.411   .     A
C319   C323    1.402   .     A
C319   C838    1.426   1_554 S
C319   C851    1.417   1_554 S
C320   C321    1.392   .     A
C320   C843    1.399   .     S
C320   C850    1.417   .     S
C321   C322    1.384   .     A
C321   H342    1.084   .     S
C322   H331    1.080   .     S
C323   H344    1.077   .     S
Cu325  N345    2.010   .     S
Cu325  O349    1.952   .     S
Cu325  O353    1.936   .     S
Cu325  Cu326   2.675   .     S
Cu325  O347    1.965   .     S
Cu325  O351    1.965   .     S
Cu326  O352    1.965   .     S
Cu326  O354    1.952   .     S
Cu326  O350    1.936   .     S
Cu326  O348    1.965   .     S
Cu326  N346    2.010   .     S
H330   C846    1.083   1_554 S
H343   C843    1.085   .     S
C355   O406    1.290   .     A
C355   C363    1.450   .     S
C355   O407    1.290   .     A
C356   C358    1.475   .     S
C356   C377    1.420   .     A
C356   C373    1.403   .     A
C357   C363    1.401   .     A
C357   H391    1.083   .     S
C357   C5      1.384   1_565 S
C358   O408    1.297   .     A
C358   O409    1.294   .     A
C359   H386    1.083   .     S
C359   C360    1.401   .     A
C360   C361    1.401   .     A
C360   C369    1.450   .     S
C361   H396    1.083   .     S
C362   H397    1.083   .     S
C362   C363    1.401   .     A
C362   C7      1.383   1_565 S
C364   N405    1.367   .     A
C364   H398    1.082   .     S
C364   C424    1.416   .     S
C365   N404    1.367   .     A
C365   H399    1.082   .     S
C365   C482    1.416   1_455 S
C366   C377    1.420   .     A
C366   C906    1.418   .     S
C366   C909    1.426   .     S
C367   N404    1.366   .     A
C367   H400    1.082   .     S
C367   C486    1.415   1_455 S
C368   H395    1.080   .     S
C368   N405    1.366   .     A
C368   C426    1.415   .     S
C369   O411    1.290   .     A
C369   O410    1.291   .     A
C370   O412    1.297   .     A
C370   C372    1.477   .     S
C370   O413    1.295   .     A
C371   C383    1.399   .     A
C371   C910    1.399   1_554 S
C371   H933    1.085   1_554 S
C372   C382    1.401   .     A
C372   C383    1.419   .     A
C373   C374    1.388   .     A
C373   H387    1.083   .     S
C374   C906    1.392   .     S
C374   H920    1.083   .     S
C375   H388    1.077   .     S
C375   C905    1.392   1_554 S
C375   C897    1.418   1_554 S
C376   C383    1.507   .     S
C376   H394    1.110   .     S
C376   H393    1.111   .     S
C376   H392    1.109   .     S
C377   C381    1.411   .     A
C378   C382    1.402   .     A
C378   C897    1.426   1_554 S
C378   C910    1.417   1_554 S
C379   C380    1.392   .     A
C379   C902    1.399   .     S
C379   C909    1.417   .     S
C380   C381    1.384   .     A
C380   H401    1.084   .     S
C381   H390    1.080   .     S
C382   H403    1.077   .     S
Cu384  N404    2.010   .     S
Cu384  O408    1.952   .     S
Cu384  O412    1.936   .     S
Cu384  Cu385   2.675   .     S
Cu384  O406    1.965   .     S
Cu384  O410    1.965   .     S
Cu385  O411    1.965   .     S
Cu385  O413    1.952   .     S
Cu385  O409    1.936   .     S
Cu385  O407    1.965   .     S
Cu385  N405    2.010   .     S
H389   C905    1.083   1_554 S
H402   C902    1.085   .     S
C414   O465    1.290   .     A
C414   C422    1.450   .     S
C414   O466    1.290   .     A
C415   C417    1.475   .     S
C415   C436    1.420   .     A
C415   C432    1.403   .     A
C416   C422    1.401   .     A
C416   H450    1.083   .     S
C416   C64     1.384   1_565 S
C417   O467    1.297   .     A
C417   O468    1.294   .     A
C418   H445    1.083   .     S
C418   C419    1.401   .     A
C419   C420    1.401   .     A
C419   C428    1.450   .     S
C420   H455    1.083   .     S
C421   H456    1.083   .     S
C421   C422    1.401   .     A
C421   C66     1.383   1_565 S
C423   N464    1.367   .     A
C423   H457    1.082   .     S
C423   C483    1.416   .     S
C424   N463    1.367   .     A
C424   H458    1.082   .     S
C425   C436    1.420   .     A
C425   C965    1.418   .     S
C425   C968    1.426   .     S
C426   N463    1.366   .     A
C426   H459    1.082   .     S
C427   H454    1.080   .     S
C427   N464    1.366   .     A
C427   C485    1.415   .     S
C428   O470    1.290   .     A
C428   O469    1.291   .     A
C429   O471    1.297   .     A
C429   C431    1.477   .     S
C429   O472    1.295   .     A
C430   C442    1.399   .     A
C430   C969    1.399   1_554 S
C430   H992    1.085   1_554 S
C431   C441    1.401   .     A
C431   C442    1.419   .     A
C432   C433    1.388   .     A
C432   H446    1.083   .     S
C433   C965    1.392   .     S
C433   H979    1.083   .     S
C434   H447    1.077   .     S
C434   C964    1.392   1_554 S
C434   C956    1.418   1_554 S
C435   C442    1.507   .     S
C435   H453    1.110   .     S
C435   H452    1.111   .     S
C435   H451    1.109   .     S
C436   C440    1.411   .     A
C437   C441    1.402   .     A
C437   C956    1.426   1_554 S
C437   C969    1.417   1_554 S
C438   C439    1.392   .     A
C438   C961    1.399   .     S
C438   C968    1.417   .     S
C439   C440    1.384   .     A
C439   H460    1.084   .     S
C440   H449    1.080   .     S
C441   H462    1.077   .     S
Cu443  N463    2.010   .     S
Cu443  O467    1.952   .     S
Cu443  O471    1.936   .     S
Cu443  Cu444   2.675   .     S
Cu443  O465    1.965   .     S
Cu443  O469    1.965   .     S
Cu444  O470    1.965   .     S
Cu444  O472    1.952   .     S
Cu444  O468    1.936   .     S
Cu444  O466    1.965   .     S
Cu444  N464    2.010   .     S
H448   C964    1.083   1_554 S
H461   C961    1.085   .     S
C473   O524    1.290   .     A
C473   C481    1.450   .     S
C473   O525    1.290   .     A
C474   C476    1.475   .     S
C474   C495    1.420   .     A
C474   C491    1.403   .     A
C475   C481    1.401   .     A
C475   H509    1.083   .     S
C475   C123    1.384   1_565 S
C476   O526    1.297   .     A
C476   O527    1.294   .     A
C477   H504    1.083   .     S
C477   C478    1.401   .     A
C478   C479    1.401   .     A
C478   C487    1.450   .     S
C479   H514    1.083   .     S
C480   H515    1.083   .     S
C480   C481    1.401   .     A
C480   C125    1.383   1_565 S
C482   N523    1.367   .     A
C482   H516    1.082   .     S
C482   C365    1.416   1_655 S
C483   N522    1.367   .     A
C483   H517    1.082   .     S
C484   C495    1.420   .     A
C484   C1024   1.418   .     S
C484   C1027   1.426   .     S
C485   N522    1.366   .     A
C485   H518    1.082   .     S
C486   H513    1.080   .     S
C486   N523    1.366   .     A
C486   C367    1.415   1_655 S
C487   O529    1.290   .     A
C487   O528    1.291   .     A
C488   O530    1.297   .     A
C488   C490    1.477   .     S
C488   O531    1.295   .     A
C489   C501    1.399   .     A
C489   C1028   1.399   1_554 S
C489   H1051   1.085   1_554 S
C490   C500    1.401   .     A
C490   C501    1.419   .     A
C491   C492    1.388   .     A
C491   H505    1.083   .     S
C492   C1024   1.392   .     S
C492   H1038   1.083   .     S
C493   H506    1.077   .     S
C493   C1023   1.392   1_554 S
C493   C1015   1.418   1_554 S
C494   C501    1.507   .     S
C494   H512    1.110   .     S
C494   H511    1.111   .     S
C494   H510    1.109   .     S
C495   C499    1.411   .     A
C496   C500    1.402   .     A
C496   C1015   1.426   1_554 S
C496   C1028   1.417   1_554 S
C497   C498    1.392   .     A
C497   C1020   1.399   .     S
C497   C1027   1.417   .     S
C498   C499    1.384   .     A
C498   H519    1.084   .     S
C499   H508    1.080   .     S
C500   H521    1.077   .     S
Cu502  N522    2.010   .     S
Cu502  O526    1.952   .     S
Cu502  O530    1.936   .     S
Cu502  Cu503   2.675   .     S
Cu502  O524    1.965   .     S
Cu502  O528    1.965   .     S
Cu503  O529    1.965   .     S
Cu503  O531    1.952   .     S
Cu503  O527    1.936   .     S
Cu503  O525    1.965   .     S
Cu503  N523    2.010   .     S
H507   C1023   1.083   1_554 S
H520   C1020   1.085   .     S
C532   O583    1.290   .     A
C532   C540    1.450   .     S
C532   O584    1.290   .     A
C533   C535    1.475   .     S
C533   C554    1.420   .     A
C533   C550    1.403   .     A
C534   C540    1.401   .     A
C534   H568    1.083   .     S
C534   C713    1.384   .     S
C535   O585    1.297   .     A
C535   O586    1.294   .     A
C536   H563    1.083   .     S
C536   C537    1.401   .     A
C536   C888    1.384   1_545 S
C537   C538    1.401   .     A
C537   C546    1.450   .     S
C538   H573    1.083   .     S
C538   C893    1.383   1_545 S
C539   H574    1.083   .     S
C539   C540    1.401   .     A
C539   C715    1.383   .     S
C541   N582    1.367   .     A
C541   H575    1.082   .     S
C541   C601    1.416   .     S
C542   N581    1.367   .     A
C542   H576    1.082   .     S
C542   C659    1.416   1_455 S
C543   C554    1.420   .     A
C543   C21     1.418   1_556 S
C543   C24     1.426   1_556 S
C544   N581    1.366   .     A
C544   H577    1.082   .     S
C544   C663    1.415   1_455 S
C545   H572    1.080   .     S
C545   N582    1.366   .     A
C545   C603    1.415   .     S
C546   O588    1.290   .     A
C546   O587    1.291   .     A
C547   O589    1.297   .     A
C547   C549    1.477   .     S
C547   O590    1.295   .     A
C548   C560    1.399   .     A
C549   C559    1.401   .     A
C549   C560    1.419   .     A
C550   C551    1.388   .     A
C550   H564    1.083   .     S
C551   C21     1.392   1_556 S
C551   H35     1.083   1_556 S
C552   H565    1.077   .     S
C553   C560    1.507   .     S
C553   H571    1.110   .     S
C553   H570    1.111   .     S
C553   H569    1.109   .     S
C554   C558    1.411   .     A
C555   C559    1.402   .     A
C556   C557    1.392   .     A
C556   C17     1.399   1_556 S
C556   C24     1.417   1_556 S
C557   C558    1.384   .     A
C557   H578    1.084   .     S
C558   H567    1.080   .     S
C559   H580    1.077   .     S
Cu561  N581    2.010   .     S
Cu561  O585    1.952   .     S
Cu561  O589    1.936   .     S
Cu561  Cu562   2.675   .     S
Cu561  O583    1.965   .     S
Cu561  O587    1.965   .     S
Cu562  O588    1.965   .     S
Cu562  O590    1.952   .     S
Cu562  O586    1.936   .     S
Cu562  O584    1.965   .     S
Cu562  N582    2.010   .     S
H579   C17     1.085   1_556 S
C591   O642    1.290   .     A
C591   C599    1.450   .     S
C591   O643    1.290   .     A
C592   C594    1.475   .     S
C592   C613    1.420   .     A
C592   C609    1.403   .     A
C593   C599    1.401   .     A
C593   H627    1.083   .     S
C593   C772    1.384   .     S
C594   O644    1.297   .     A
C594   O645    1.294   .     A
C595   H622    1.083   .     S
C595   C596    1.401   .     A
C595   C947    1.384   1_545 S
C596   C597    1.401   .     A
C596   C605    1.450   .     S
C597   H632    1.083   .     S
C597   C952    1.383   1_545 S
C598   H633    1.083   .     S
C598   C599    1.401   .     A
C598   C774    1.383   .     S
C600   N641    1.367   .     A
C600   H634    1.082   .     S
C600   C660    1.416   .     S
C601   N640    1.367   .     A
C601   H635    1.082   .     S
C602   C613    1.420   .     A
C602   C80     1.418   1_556 S
C602   C83     1.426   1_556 S
C603   N640    1.366   .     A
C603   H636    1.082   .     S
C604   H631    1.080   .     S
C604   N641    1.366   .     A
C604   C662    1.415   .     S
C605   O647    1.290   .     A
C605   O646    1.291   .     A
C606   O648    1.297   .     A
C606   C608    1.477   .     S
C606   O649    1.295   .     A
C607   C619    1.399   .     A
C608   C618    1.401   .     A
C608   C619    1.419   .     A
C609   C610    1.388   .     A
C609   H623    1.083   .     S
C610   C80     1.392   1_556 S
C610   H94     1.083   1_556 S
C611   H624    1.077   .     S
C612   C619    1.507   .     S
C612   H630    1.110   .     S
C612   H629    1.111   .     S
C612   H628    1.109   .     S
C613   C617    1.411   .     A
C614   C618    1.402   .     A
C615   C616    1.392   .     A
C615   C76     1.399   1_556 S
C615   C83     1.417   1_556 S
C616   C617    1.384   .     A
C616   H637    1.084   .     S
C617   H626    1.080   .     S
C618   H639    1.077   .     S
Cu620  N640    2.010   .     S
Cu620  O644    1.952   .     S
Cu620  O648    1.936   .     S
Cu620  Cu621   2.675   .     S
Cu620  O642    1.965   .     S
Cu620  O646    1.965   .     S
Cu621  O647    1.965   .     S
Cu621  O649    1.952   .     S
Cu621  O645    1.936   .     S
Cu621  O643    1.965   .     S
Cu621  N641    2.010   .     S
H638   C76     1.085   1_556 S
C650   O701    1.290   .     A
C650   C658    1.450   .     S
C650   O702    1.290   .     A
C651   C653    1.475   .     S
C651   C672    1.420   .     A
C651   C668    1.403   .     A
C652   C658    1.401   .     A
C652   H686    1.083   .     S
C652   C831    1.384   .     S
C653   O703    1.297   .     A
C653   O704    1.294   .     A
C654   H681    1.083   .     S
C654   C655    1.401   .     A
C654   C1006   1.384   1_545 S
C655   C656    1.401   .     A
C655   C664    1.450   .     S
C656   H691    1.083   .     S
C656   C1011   1.383   1_545 S
C657   H692    1.083   .     S
C657   C658    1.401   .     A
C657   C833    1.383   .     S
C659   N700    1.367   .     A
C659   H693    1.082   .     S
C659   C542    1.416   1_655 S
C660   N699    1.367   .     A
C660   H694    1.082   .     S
C661   C672    1.420   .     A
C661   C139    1.418   1_556 S
C661   C142    1.426   1_556 S
C662   N699    1.366   .     A
C662   H695    1.082   .     S
C663   H690    1.080   .     S
C663   N700    1.366   .     A
C663   C544    1.415   1_655 S
C664   O706    1.290   .     A
C664   O705    1.291   .     A
C665   O707    1.297   .     A
C665   C667    1.477   .     S
C665   O708    1.295   .     A
C666   C678    1.399   .     A
C667   C677    1.401   .     A
C667   C678    1.419   .     A
C668   C669    1.388   .     A
C668   H682    1.083   .     S
C669   C139    1.392   1_556 S
C669   H153    1.083   1_556 S
C670   H683    1.077   .     S
C671   C678    1.507   .     S
C671   H689    1.110   .     S
C671   H688    1.111   .     S
C671   H687    1.109   .     S
C672   C676    1.411   .     A
C673   C677    1.402   .     A
C674   C675    1.392   .     A
C674   C135    1.399   1_556 S
C674   C142    1.417   1_556 S
C675   C676    1.384   .     A
C675   H696    1.084   .     S
C676   H685    1.080   .     S
C677   H698    1.077   .     S
Cu679  N699    2.010   .     S
Cu679  O703    1.952   .     S
Cu679  O707    1.936   .     S
Cu679  Cu680   2.675   .     S
Cu679  O701    1.965   .     S
Cu679  O705    1.965   .     S
Cu680  O706    1.965   .     S
Cu680  O708    1.952   .     S
Cu680  O704    1.936   .     S
Cu680  O702    1.965   .     S
Cu680  N700    2.010   .     S
H697   C135    1.085   1_556 S
C709   O760    1.290   .     A
C709   C717    1.450   .     S
C709   O761    1.290   .     A
C710   C712    1.475   .     S
C710   C731    1.420   .     A
C710   C727    1.403   .     A
C711   C717    1.401   .     A
C711   H745    1.083   .     S
C711   C890    1.384   .     S
C712   O762    1.297   .     A
C712   O763    1.294   .     A
C713   H740    1.083   .     S
C713   C714    1.401   .     A
C714   C715    1.401   .     A
C714   C723    1.450   .     S
C715   H750    1.083   .     S
C716   H751    1.083   .     S
C716   C717    1.401   .     A
C716   C892    1.383   .     S
C718   N759    1.367   .     A
C718   H752    1.082   .     S
C718   C778    1.416   .     S
C719   N758    1.367   .     A
C719   H753    1.082   .     S
C719   C836    1.416   1_455 S
C720   C731    1.420   .     A
C720   C198    1.418   1_556 S
C720   C201    1.426   1_556 S
C721   N758    1.366   .     A
C721   H754    1.082   .     S
C721   C840    1.415   1_455 S
C722   H749    1.080   .     S
C722   N759    1.366   .     A
C722   C780    1.415   .     S
C723   O765    1.290   .     A
C723   O764    1.291   .     A
C724   O766    1.297   .     A
C724   C726    1.477   .     S
C724   O767    1.295   .     A
C725   C737    1.399   .     A
C726   C736    1.401   .     A
C726   C737    1.419   .     A
C727   C728    1.388   .     A
C727   H741    1.083   .     S
C728   C198    1.392   1_556 S
C728   H212    1.083   1_556 S
C729   H742    1.077   .     S
C730   C737    1.507   .     S
C730   H748    1.110   .     S
C730   H747    1.111   .     S
C730   H746    1.109   .     S
C731   C735    1.411   .     A
C732   C736    1.402   .     A
C733   C734    1.392   .     A
C733   C194    1.399   1_556 S
C733   C201    1.417   1_556 S
C734   C735    1.384   .     A
C734   H755    1.084   .     S
C735   H744    1.080   .     S
C736   H757    1.077   .     S
Cu738  N758    2.010   .     S
Cu738  O762    1.952   .     S
Cu738  O766    1.936   .     S
Cu738  Cu739   2.675   .     S
Cu738  O760    1.965   .     S
Cu738  O764    1.965   .     S
Cu739  O765    1.965   .     S
Cu739  O767    1.952   .     S
Cu739  O763    1.936   .     S
Cu739  O761    1.965   .     S
Cu739  N759    2.010   .     S
H756   C194    1.085   1_556 S
C768   O819    1.290   .     A
C768   C776    1.450   .     S
C768   O820    1.290   .     A
C769   C771    1.475   .     S
C769   C790    1.420   .     A
C769   C786    1.403   .     A
C770   C776    1.401   .     A
C770   H804    1.083   .     S
C770   C949    1.384   .     S
C771   O821    1.297   .     A
C771   O822    1.294   .     A
C772   H799    1.083   .     S
C772   C773    1.401   .     A
C773   C774    1.401   .     A
C773   C782    1.450   .     S
C774   H809    1.083   .     S
C775   H810    1.083   .     S
C775   C776    1.401   .     A
C775   C951    1.383   .     S
C777   N818    1.367   .     A
C777   H811    1.082   .     S
C777   C837    1.416   .     S
C778   N817    1.367   .     A
C778   H812    1.082   .     S
C779   C790    1.420   .     A
C779   C257    1.418   1_556 S
C779   C260    1.426   1_556 S
C780   N817    1.366   .     A
C780   H813    1.082   .     S
C781   H808    1.080   .     S
C781   N818    1.366   .     A
C781   C839    1.415   .     S
C782   O824    1.290   .     A
C782   O823    1.291   .     A
C783   O825    1.297   .     A
C783   C785    1.477   .     S
C783   O826    1.295   .     A
C784   C796    1.399   .     A
C785   C795    1.401   .     A
C785   C796    1.419   .     A
C786   C787    1.388   .     A
C786   H800    1.083   .     S
C787   C257    1.392   1_556 S
C787   H271    1.083   1_556 S
C788   H801    1.077   .     S
C789   C796    1.507   .     S
C789   H807    1.110   .     S
C789   H806    1.111   .     S
C789   H805    1.109   .     S
C790   C794    1.411   .     A
C791   C795    1.402   .     A
C792   C793    1.392   .     A
C792   C253    1.399   1_556 S
C792   C260    1.417   1_556 S
C793   C794    1.384   .     A
C793   H814    1.084   .     S
C794   H803    1.080   .     S
C795   H816    1.077   .     S
Cu797  N817    2.010   .     S
Cu797  O821    1.952   .     S
Cu797  O825    1.936   .     S
Cu797  Cu798   2.675   .     S
Cu797  O819    1.965   .     S
Cu797  O823    1.965   .     S
Cu798  O824    1.965   .     S
Cu798  O826    1.952   .     S
Cu798  O822    1.936   .     S
Cu798  O820    1.965   .     S
Cu798  N818    2.010   .     S
H815   C253    1.085   1_556 S
C827   O878    1.290   .     A
C827   C835    1.450   .     S
C827   O879    1.290   .     A
C828   C830    1.475   .     S
C828   C849    1.420   .     A
C828   C845    1.403   .     A
C829   C835    1.401   .     A
C829   H863    1.083   .     S
C829   C1008   1.384   .     S
C830   O880    1.297   .     A
C830   O881    1.294   .     A
C831   H858    1.083   .     S
C831   C832    1.401   .     A
C832   C833    1.401   .     A
C832   C841    1.450   .     S
C833   H868    1.083   .     S
C834   H869    1.083   .     S
C834   C835    1.401   .     A
C834   C1010   1.383   .     S
C836   N877    1.367   .     A
C836   H870    1.082   .     S
C836   C719    1.416   1_655 S
C837   N876    1.367   .     A
C837   H871    1.082   .     S
C838   C849    1.420   .     A
C838   C316    1.418   1_556 S
C838   C319    1.426   1_556 S
C839   N876    1.366   .     A
C839   H872    1.082   .     S
C840   H867    1.080   .     S
C840   N877    1.366   .     A
C840   C721    1.415   1_655 S
C841   O883    1.290   .     A
C841   O882    1.291   .     A
C842   O884    1.297   .     A
C842   C844    1.477   .     S
C842   O885    1.295   .     A
C843   C855    1.399   .     A
C844   C854    1.401   .     A
C844   C855    1.419   .     A
C845   C846    1.388   .     A
C845   H859    1.083   .     S
C846   C316    1.392   1_556 S
C846   H330    1.083   1_556 S
C847   H860    1.077   .     S
C848   C855    1.507   .     S
C848   H866    1.110   .     S
C848   H865    1.111   .     S
C848   H864    1.109   .     S
C849   C853    1.411   .     A
C850   C854    1.402   .     A
C851   C852    1.392   .     A
C851   C312    1.399   1_556 S
C851   C319    1.417   1_556 S
C852   C853    1.384   .     A
C852   H873    1.084   .     S
C853   H862    1.080   .     S
C854   H875    1.077   .     S
Cu856  N876    2.010   .     S
Cu856  O880    1.952   .     S
Cu856  O884    1.936   .     S
Cu856  Cu857   2.675   .     S
Cu856  O878    1.965   .     S
Cu856  O882    1.965   .     S
Cu857  O883    1.965   .     S
Cu857  O885    1.952   .     S
Cu857  O881    1.936   .     S
Cu857  O879    1.965   .     S
Cu857  N877    2.010   .     S
H874   C312    1.085   1_556 S
C886   O937    1.290   .     A
C886   C894    1.450   .     S
C886   O938    1.290   .     A
C887   C889    1.475   .     S
C887   C908    1.420   .     A
C887   C904    1.403   .     A
C888   C894    1.401   .     A
C888   H922    1.083   .     S
C888   C536    1.384   1_565 S
C889   O939    1.297   .     A
C889   O940    1.294   .     A
C890   H917    1.083   .     S
C890   C891    1.401   .     A
C891   C892    1.401   .     A
C891   C900    1.450   .     S
C892   H927    1.083   .     S
C893   H928    1.083   .     S
C893   C894    1.401   .     A
C893   C538    1.383   1_565 S
C895   N936    1.367   .     A
C895   H929    1.082   .     S
C895   C955    1.416   .     S
C896   N935    1.367   .     A
C896   H930    1.082   .     S
C896   C1013   1.416   1_455 S
C897   C908    1.420   .     A
C897   C375    1.418   1_556 S
C897   C378    1.426   1_556 S
C898   N935    1.366   .     A
C898   H931    1.082   .     S
C898   C1017   1.415   1_455 S
C899   H926    1.080   .     S
C899   N936    1.366   .     A
C899   C957    1.415   .     S
C900   O942    1.290   .     A
C900   O941    1.291   .     A
C901   O943    1.297   .     A
C901   C903    1.477   .     S
C901   O944    1.295   .     A
C902   C914    1.399   .     A
C903   C913    1.401   .     A
C903   C914    1.419   .     A
C904   C905    1.388   .     A
C904   H918    1.083   .     S
C905   C375    1.392   1_556 S
C905   H389    1.083   1_556 S
C906   H919    1.077   .     S
C907   C914    1.507   .     S
C907   H925    1.110   .     S
C907   H924    1.111   .     S
C907   H923    1.109   .     S
C908   C912    1.411   .     A
C909   C913    1.402   .     A
C910   C911    1.392   .     A
C910   C371    1.399   1_556 S
C910   C378    1.417   1_556 S
C911   C912    1.384   .     A
C911   H932    1.084   .     S
C912   H921    1.080   .     S
C913   H934    1.077   .     S
Cu915  N935    2.010   .     S
Cu915  O939    1.952   .     S
Cu915  O943    1.936   .     S
Cu915  Cu916   2.675   .     S
Cu915  O937    1.965   .     S
Cu915  O941    1.965   .     S
Cu916  O942    1.965   .     S
Cu916  O944    1.952   .     S
Cu916  O940    1.936   .     S
Cu916  O938    1.965   .     S
Cu916  N936    2.010   .     S
H933   C371    1.085   1_556 S
C945   O996    1.290   .     A
C945   C953    1.450   .     S
C945   O997    1.290   .     A
C946   C948    1.475   .     S
C946   C967    1.420   .     A
C946   C963    1.403   .     A
C947   C953    1.401   .     A
C947   H981    1.083   .     S
C947   C595    1.384   1_565 S
C948   O998    1.297   .     A
C948   O999    1.294   .     A
C949   H976    1.083   .     S
C949   C950    1.401   .     A
C950   C951    1.401   .     A
C950   C959    1.450   .     S
C951   H986    1.083   .     S
C952   H987    1.083   .     S
C952   C953    1.401   .     A
C952   C597    1.383   1_565 S
C954   N995    1.367   .     A
C954   H988    1.082   .     S
C954   C1014   1.416   .     S
C955   N994    1.367   .     A
C955   H989    1.082   .     S
C956   C967    1.420   .     A
C956   C434    1.418   1_556 S
C956   C437    1.426   1_556 S
C957   N994    1.366   .     A
C957   H990    1.082   .     S
C958   H985    1.080   .     S
C958   N995    1.366   .     A
C958   C1016   1.415   .     S
C959   O1001   1.290   .     A
C959   O1000   1.291   .     A
C960   O1002   1.297   .     A
C960   C962    1.477   .     S
C960   O1003   1.295   .     A
C961   C973    1.399   .     A
C962   C972    1.401   .     A
C962   C973    1.419   .     A
C963   C964    1.388   .     A
C963   H977    1.083   .     S
C964   C434    1.392   1_556 S
C964   H448    1.083   1_556 S
C965   H978    1.077   .     S
C966   C973    1.507   .     S
C966   H984    1.110   .     S
C966   H983    1.111   .     S
C966   H982    1.109   .     S
C967   C971    1.411   .     A
C968   C972    1.402   .     A
C969   C970    1.392   .     A
C969   C430    1.399   1_556 S
C969   C437    1.417   1_556 S
C970   C971    1.384   .     A
C970   H991    1.084   .     S
C971   H980    1.080   .     S
C972   H993    1.077   .     S
Cu974  N994    2.010   .     S
Cu974  O998    1.952   .     S
Cu974  O1002   1.936   .     S
Cu974  Cu975   2.675   .     S
Cu974  O996    1.965   .     S
Cu974  O1000   1.965   .     S
Cu975  O1001   1.965   .     S
Cu975  O1003   1.952   .     S
Cu975  O999    1.936   .     S
Cu975  O997    1.965   .     S
Cu975  N995    2.010   .     S
H992   C430    1.085   1_556 S
C1004  O1055   1.290   .     A
C1004  C1012   1.450   .     S
C1004  O1056   1.290   .     A
C1005  C1007   1.475   .     S
C1005  C1026   1.420   .     A
C1005  C1022   1.403   .     A
C1006  C1012   1.401   .     A
C1006  H1040   1.083   .     S
C1006  C654    1.384   1_565 S
C1007  O1057   1.297   .     A
C1007  O1058   1.294   .     A
C1008  H1035   1.083   .     S
C1008  C1009   1.401   .     A
C1009  C1010   1.401   .     A
C1009  C1018   1.450   .     S
C1010  H1045   1.083   .     S
C1011  H1046   1.083   .     S
C1011  C1012   1.401   .     A
C1011  C656    1.383   1_565 S
C1013  N1054   1.367   .     A
C1013  H1047   1.082   .     S
C1013  C896    1.416   1_655 S
C1014  N1053   1.367   .     A
C1014  H1048   1.082   .     S
C1015  C1026   1.420   .     A
C1015  C493    1.418   1_556 S
C1015  C496    1.426   1_556 S
C1016  N1053   1.366   .     A
C1016  H1049   1.082   .     S
C1017  H1044   1.080   .     S
C1017  N1054   1.366   .     A
C1017  C898    1.415   1_655 S
C1018  O1060   1.290   .     A
C1018  O1059   1.291   .     A
C1019  O1061   1.297   .     A
C1019  C1021   1.477   .     S
C1019  O1062   1.295   .     A
C1020  C1032   1.399   .     A
C1021  C1031   1.401   .     A
C1021  C1032   1.419   .     A
C1022  C1023   1.388   .     A
C1022  H1036   1.083   .     S
C1023  C493    1.392   1_556 S
C1023  H507    1.083   1_556 S
C1024  H1037   1.077   .     S
C1025  C1032   1.507   .     S
C1025  H1043   1.110   .     S
C1025  H1042   1.111   .     S
C1025  H1041   1.109   .     S
C1026  C1030   1.411   .     A
C1027  C1031   1.402   .     A
C1028  C1029   1.392   .     A
C1028  C489    1.399   1_556 S
C1028  C496    1.417   1_556 S
C1029  C1030   1.384   .     A
C1029  H1050   1.084   .     S
C1030  H1039   1.080   .     S
C1031  H1052   1.077   .     S
Cu1033 N1053   2.010   .     S
Cu1033 O1057   1.952   .     S
Cu1033 O1061   1.936   .     S
Cu1033 Cu1034  2.675   .     S
Cu1033 O1055   1.965   .     S
Cu1033 O1059   1.965   .     S
Cu1034 O1060   1.965   .     S
Cu1034 O1062   1.952   .     S
Cu1034 O1058   1.936   .     S
Cu1034 O1056   1.965   .     S
Cu1034 N1054   2.010   .     S
H1051  C489    1.085   1_556 S
