data_str_m2_o10_o17_pcu_sym.149
_audit_creation_date              2020-01-03
_audit_creation_method            'Materials Studio'
_symmetry_space_group_name_H-M    'P1'
_symmetry_Int_Tables_number       1
_symmetry_cell_setting            triclinic
loop_
_symmetry_equiv_pos_as_xyz
  x,y,z
_cell_length_a                    29.8502
_cell_length_b                    26.1560
_cell_length_c                    22.5012
_cell_angle_alpha                 103.1539
_cell_angle_beta                  93.5243
_cell_angle_gamma                 92.5322
loop_
_atom_site_label
_atom_site_type_symbol
_atom_site_fract_x
_atom_site_fract_y
_atom_site_fract_z
_atom_site_U_iso_or_equiv
_atom_site_adp_type
_atom_site_occupancy
O1     O     0.25326   0.09538   0.20659   0.00000  Uiso   1.00
O2     O     0.24675   0.23796   0.12674   0.00000  Uiso   1.00
O3     O     0.24480   0.08559   0.10279   0.00000  Uiso   1.00
O4     O     0.25520   0.24774   0.23055   0.00000  Uiso   1.00
C5     C     0.24773   0.06680   0.15139   0.00000  Uiso   1.00
C6     C     0.25224   0.26653   0.18194   0.00000  Uiso   1.00
O7     O     0.18936   0.17155   0.21857   0.00000  Uiso   1.00
O8     O     0.31065   0.16179   0.11476   0.00000  Uiso   1.00
O9     O     0.18090   0.16176   0.11477   0.00000  Uiso   1.00
O10    O     0.31910   0.17157   0.21857   0.00000  Uiso   1.00
C11    C     0.16467   0.16657   0.16777   0.00000  Uiso   1.00
C12    C     0.33533   0.16676   0.16556   0.00000  Uiso   1.00
Cu13   Cu    0.25501   0.17246   0.22813   0.00000  Uiso   1.00
Cu14   Cu    0.24500   0.16087   0.10521   0.00000  Uiso   1.00
C15    C     0.40917   0.21354   0.18992   0.00000  Uiso   1.00
C16    C     0.09083   0.11979   0.14341   0.00000  Uiso   1.00
C17    C     0.38338   0.16740   0.16313   0.00000  Uiso   1.00
C18    C     0.11662   0.16593   0.17020   0.00000  Uiso   1.00
C19    C     0.40330   0.12154   0.13617   0.00000  Uiso   1.00
C20    C     0.09670   0.21179   0.19716   0.00000  Uiso   1.00
C21    C     0.44995   0.12077   0.13821   0.00000  Uiso   1.00
C22    C     0.05005   0.21256   0.19512   0.00000  Uiso   1.00
C23    C     0.47653   0.16727   0.16521   0.00000  Uiso   1.00
C24    C     0.02348   0.16606   0.16813   0.00000  Uiso   1.00
C25    C     0.45605   0.21484   0.18934   0.00000  Uiso   1.00
C26    C     0.04395   0.11849   0.14399   0.00000  Uiso   1.00
C27    C     0.47017   0.07378   0.11535   0.00000  Uiso   1.00
C28    C     0.02983   0.25956   0.21799   0.00000  Uiso   1.00
C29    C     0.01697   0.07161   0.11940   0.00000  Uiso   1.00
C30    C     0.48303   0.26172   0.21393   0.00000  Uiso   1.00
H31    H     0.39214   0.24773   0.21182   0.00000  Uiso   1.00
H32    H     0.10786   0.08560   0.12151   0.00000  Uiso   1.00
H33    H     0.38242   0.08606   0.11599   0.00000  Uiso   1.00
H34    H     0.11758   0.24727   0.21734   0.00000  Uiso   1.00
H35    H     0.44935   0.03810   0.09618   0.00000  Uiso   1.00
H36    H     0.05065   0.29523   0.23715   0.00000  Uiso   1.00
C37    C     0.23983   0.01140   0.14551   0.00000  Uiso   1.00
C38    C     0.26007   0.32193   0.18785   0.00000  Uiso   1.00
N39    N     0.23745   0.15214   0.01284   0.00000  Uiso   1.00
N40    N     0.26256   0.18119   0.32049   0.00000  Uiso   1.00
N41    N     0.03614   0.02137   0.10097   0.00000  Uiso   1.00
O42    O     0.01646   0.31876   0.05614   0.00000  Uiso   1.00
O43    O     0.06755   0.00778   0.13603   0.00000  Uiso   1.00
N44    N     0.46386   0.31196   0.23236   0.00000  Uiso   1.00
O45    O     0.48354   0.01457   0.27718   0.00000  Uiso   1.00
O46    O     0.43246   0.32555   0.19730   0.00000  Uiso   1.00
C47    C     0.20254   0.31854   0.09987   0.00000  Uiso   1.00
O48    O     0.17192   0.29297   0.11543   0.00000  Uiso   1.00
O49    O     0.20197   0.32462   0.03967   0.00000  Uiso   1.00
H50    H     0.17498   0.30530   0.01315   0.00000  Uiso   1.00
C51    C     0.29730   0.01482   0.23356   0.00000  Uiso   1.00
O52    O     0.32812   0.04008   0.21794   0.00000  Uiso   1.00
O53    O     0.29753   0.00920   0.29393   0.00000  Uiso   1.00
H54    H     0.32450   0.02851   0.32050   0.00000  Uiso   1.00
N55    N     0.19365   0.14239   0.32067   0.00000  Uiso   1.00
O56    O     0.16513   0.17890   0.33322   0.00000  Uiso   1.00
O57    O     0.17856   0.09408   0.29770   0.00000  Uiso   1.00
N58    N     0.30636   0.19094   0.01266   0.00000  Uiso   1.00
O59    O     0.33486   0.15443   0.00011   0.00000  Uiso   1.00
O60    O     0.32145   0.23925   0.03562   0.00000  Uiso   1.00
O61    O     0.75326   0.09538   0.20659   0.00000  Uiso   1.00
O62    O     0.74675   0.23796   0.12674   0.00000  Uiso   1.00
O63    O     0.74480   0.08559   0.10279   0.00000  Uiso   1.00
O64    O     0.75520   0.24774   0.23055   0.00000  Uiso   1.00
C65    C     0.74773   0.06680   0.15139   0.00000  Uiso   1.00
C66    C     0.75224   0.26653   0.18194   0.00000  Uiso   1.00
O67    O     0.68936   0.17155   0.21857   0.00000  Uiso   1.00
O68    O     0.81065   0.16179   0.11476   0.00000  Uiso   1.00
O69    O     0.68090   0.16176   0.11477   0.00000  Uiso   1.00
O70    O     0.81910   0.17157   0.21857   0.00000  Uiso   1.00
C71    C     0.66467   0.16657   0.16777   0.00000  Uiso   1.00
C72    C     0.83533   0.16676   0.16556   0.00000  Uiso   1.00
Cu73   Cu    0.75501   0.17246   0.22813   0.00000  Uiso   1.00
Cu74   Cu    0.74500   0.16087   0.10521   0.00000  Uiso   1.00
C75    C     0.90917   0.21354   0.18992   0.00000  Uiso   1.00
C76    C     0.59083   0.11979   0.14341   0.00000  Uiso   1.00
C77    C     0.88338   0.16740   0.16313   0.00000  Uiso   1.00
C78    C     0.61662   0.16593   0.17020   0.00000  Uiso   1.00
C79    C     0.90330   0.12154   0.13617   0.00000  Uiso   1.00
C80    C     0.59670   0.21179   0.19716   0.00000  Uiso   1.00
C81    C     0.94995   0.12077   0.13821   0.00000  Uiso   1.00
C82    C     0.55005   0.21256   0.19512   0.00000  Uiso   1.00
C83    C     0.97653   0.16727   0.16521   0.00000  Uiso   1.00
C84    C     0.52348   0.16606   0.16813   0.00000  Uiso   1.00
C85    C     0.95605   0.21484   0.18934   0.00000  Uiso   1.00
C86    C     0.54395   0.11849   0.14399   0.00000  Uiso   1.00
C87    C     0.97017   0.07378   0.11535   0.00000  Uiso   1.00
C88    C     0.52983   0.25956   0.21799   0.00000  Uiso   1.00
C89    C     0.51697   0.07161   0.11940   0.00000  Uiso   1.00
C90    C     0.98303   0.26172   0.21393   0.00000  Uiso   1.00
H91    H     0.89214   0.24773   0.21182   0.00000  Uiso   1.00
H92    H     0.60786   0.08560   0.12151   0.00000  Uiso   1.00
H93    H     0.88242   0.08606   0.11599   0.00000  Uiso   1.00
H94    H     0.61758   0.24727   0.21734   0.00000  Uiso   1.00
H95    H     0.94935   0.03810   0.09618   0.00000  Uiso   1.00
H96    H     0.55065   0.29523   0.23715   0.00000  Uiso   1.00
C97    C     0.73983   0.01140   0.14551   0.00000  Uiso   1.00
C98    C     0.76007   0.32193   0.18785   0.00000  Uiso   1.00
N99    N     0.73745   0.15214   0.01284   0.00000  Uiso   1.00
N100   N     0.76256   0.18119   0.32049   0.00000  Uiso   1.00
N101   N     0.53614   0.02137   0.10097   0.00000  Uiso   1.00
O102   O     0.51646   0.31876   0.05614   0.00000  Uiso   1.00
O103   O     0.56755   0.00778   0.13603   0.00000  Uiso   1.00
N104   N     0.96386   0.31196   0.23236   0.00000  Uiso   1.00
O105   O     0.98354   0.01457   0.27718   0.00000  Uiso   1.00
O106   O     0.93246   0.32555   0.19730   0.00000  Uiso   1.00
C107   C     0.70254   0.31854   0.09987   0.00000  Uiso   1.00
O108   O     0.67192   0.29297   0.11543   0.00000  Uiso   1.00
O109   O     0.70197   0.32462   0.03967   0.00000  Uiso   1.00
H110   H     0.67498   0.30530   0.01315   0.00000  Uiso   1.00
C111   C     0.79730   0.01482   0.23356   0.00000  Uiso   1.00
O112   O     0.82812   0.04008   0.21794   0.00000  Uiso   1.00
O113   O     0.79753   0.00920   0.29393   0.00000  Uiso   1.00
H114   H     0.82450   0.02851   0.32050   0.00000  Uiso   1.00
N115   N     0.69365   0.14239   0.32067   0.00000  Uiso   1.00
O116   O     0.66513   0.17890   0.33322   0.00000  Uiso   1.00
O117   O     0.67856   0.09408   0.29770   0.00000  Uiso   1.00
N118   N     0.80636   0.19094   0.01266   0.00000  Uiso   1.00
O119   O     0.83486   0.15443   0.00011   0.00000  Uiso   1.00
O120   O     0.82145   0.23925   0.03562   0.00000  Uiso   1.00
O121   O     0.25326   0.42871   0.20659   0.00000  Uiso   1.00
O122   O     0.24675   0.57129   0.12674   0.00000  Uiso   1.00
O123   O     0.24480   0.41892   0.10279   0.00000  Uiso   1.00
O124   O     0.25520   0.58108   0.23055   0.00000  Uiso   1.00
C125   C     0.24773   0.40013   0.15139   0.00000  Uiso   1.00
C126   C     0.25224   0.59986   0.18194   0.00000  Uiso   1.00
O127   O     0.18936   0.50488   0.21857   0.00000  Uiso   1.00
O128   O     0.31065   0.49512   0.11476   0.00000  Uiso   1.00
O129   O     0.18090   0.49510   0.11477   0.00000  Uiso   1.00
O130   O     0.31910   0.50490   0.21857   0.00000  Uiso   1.00
C131   C     0.16467   0.49991   0.16777   0.00000  Uiso   1.00
C132   C     0.33533   0.50009   0.16556   0.00000  Uiso   1.00
Cu133  Cu    0.25501   0.50579   0.22813   0.00000  Uiso   1.00
Cu134  Cu    0.24500   0.49421   0.10521   0.00000  Uiso   1.00
C135   C     0.40917   0.54688   0.18992   0.00000  Uiso   1.00
C136   C     0.09083   0.45312   0.14341   0.00000  Uiso   1.00
C137   C     0.38338   0.50074   0.16313   0.00000  Uiso   1.00
C138   C     0.11662   0.49926   0.17020   0.00000  Uiso   1.00
C139   C     0.40330   0.45487   0.13617   0.00000  Uiso   1.00
C140   C     0.09670   0.54513   0.19716   0.00000  Uiso   1.00
C141   C     0.44995   0.45411   0.13821   0.00000  Uiso   1.00
C142   C     0.05005   0.54589   0.19512   0.00000  Uiso   1.00
C143   C     0.47653   0.50060   0.16521   0.00000  Uiso   1.00
C144   C     0.02348   0.49939   0.16813   0.00000  Uiso   1.00
C145   C     0.45605   0.54817   0.18934   0.00000  Uiso   1.00
C146   C     0.04395   0.45182   0.14399   0.00000  Uiso   1.00
C147   C     0.47017   0.40711   0.11535   0.00000  Uiso   1.00
C148   C     0.02983   0.59289   0.21799   0.00000  Uiso   1.00
C149   C     0.01697   0.40495   0.11940   0.00000  Uiso   1.00
C150   C     0.48303   0.59505   0.21393   0.00000  Uiso   1.00
H151   H     0.39214   0.58107   0.21182   0.00000  Uiso   1.00
H152   H     0.10786   0.41893   0.12151   0.00000  Uiso   1.00
H153   H     0.38242   0.41939   0.11599   0.00000  Uiso   1.00
H154   H     0.11758   0.58060   0.21734   0.00000  Uiso   1.00
H155   H     0.44935   0.37144   0.09618   0.00000  Uiso   1.00
H156   H     0.05065   0.62856   0.23715   0.00000  Uiso   1.00
C157   C     0.23983   0.34474   0.14551   0.00000  Uiso   1.00
C158   C     0.26007   0.65526   0.18785   0.00000  Uiso   1.00
N159   N     0.23745   0.48547   0.01284   0.00000  Uiso   1.00
N160   N     0.26256   0.51453   0.32049   0.00000  Uiso   1.00
N161   N     0.03614   0.35470   0.10097   0.00000  Uiso   1.00
O162   O     0.01646   0.65210   0.05614   0.00000  Uiso   1.00
O163   O     0.06755   0.34112   0.13603   0.00000  Uiso   1.00
N164   N     0.46386   0.64530   0.23236   0.00000  Uiso   1.00
O165   O     0.48354   0.34790   0.27718   0.00000  Uiso   1.00
O166   O     0.43246   0.65888   0.19730   0.00000  Uiso   1.00
C167   C     0.20254   0.65188   0.09987   0.00000  Uiso   1.00
O168   O     0.17192   0.62630   0.11543   0.00000  Uiso   1.00
O169   O     0.20197   0.65795   0.03967   0.00000  Uiso   1.00
H170   H     0.17498   0.63864   0.01315   0.00000  Uiso   1.00
C171   C     0.29730   0.34816   0.23356   0.00000  Uiso   1.00
O172   O     0.32812   0.37341   0.21794   0.00000  Uiso   1.00
O173   O     0.29753   0.34253   0.29393   0.00000  Uiso   1.00
H174   H     0.32450   0.36184   0.32050   0.00000  Uiso   1.00
N175   N     0.19365   0.47572   0.32067   0.00000  Uiso   1.00
O176   O     0.16513   0.51223   0.33322   0.00000  Uiso   1.00
O177   O     0.17856   0.42741   0.29770   0.00000  Uiso   1.00
N178   N     0.30636   0.52427   0.01266   0.00000  Uiso   1.00
O179   O     0.33486   0.48776   0.00011   0.00000  Uiso   1.00
O180   O     0.32145   0.57259   0.03562   0.00000  Uiso   1.00
O181   O     0.75326   0.42871   0.20659   0.00000  Uiso   1.00
O182   O     0.74675   0.57129   0.12674   0.00000  Uiso   1.00
O183   O     0.74480   0.41892   0.10279   0.00000  Uiso   1.00
O184   O     0.75520   0.58108   0.23055   0.00000  Uiso   1.00
C185   C     0.74773   0.40013   0.15139   0.00000  Uiso   1.00
C186   C     0.75224   0.59986   0.18194   0.00000  Uiso   1.00
O187   O     0.68936   0.50488   0.21857   0.00000  Uiso   1.00
O188   O     0.81065   0.49512   0.11476   0.00000  Uiso   1.00
O189   O     0.68090   0.49510   0.11477   0.00000  Uiso   1.00
O190   O     0.81910   0.50490   0.21857   0.00000  Uiso   1.00
C191   C     0.66467   0.49991   0.16777   0.00000  Uiso   1.00
C192   C     0.83533   0.50009   0.16556   0.00000  Uiso   1.00
Cu193  Cu    0.75501   0.50579   0.22813   0.00000  Uiso   1.00
Cu194  Cu    0.74500   0.49421   0.10521   0.00000  Uiso   1.00
C195   C     0.90917   0.54688   0.18992   0.00000  Uiso   1.00
C196   C     0.59083   0.45312   0.14341   0.00000  Uiso   1.00
C197   C     0.88338   0.50074   0.16313   0.00000  Uiso   1.00
C198   C     0.61662   0.49926   0.17020   0.00000  Uiso   1.00
C199   C     0.90330   0.45487   0.13617   0.00000  Uiso   1.00
C200   C     0.59670   0.54513   0.19716   0.00000  Uiso   1.00
C201   C     0.94995   0.45411   0.13821   0.00000  Uiso   1.00
C202   C     0.55005   0.54589   0.19512   0.00000  Uiso   1.00
C203   C     0.97653   0.50060   0.16521   0.00000  Uiso   1.00
C204   C     0.52348   0.49939   0.16813   0.00000  Uiso   1.00
C205   C     0.95605   0.54817   0.18934   0.00000  Uiso   1.00
C206   C     0.54395   0.45182   0.14399   0.00000  Uiso   1.00
C207   C     0.97017   0.40711   0.11535   0.00000  Uiso   1.00
C208   C     0.52983   0.59289   0.21799   0.00000  Uiso   1.00
C209   C     0.51697   0.40495   0.11940   0.00000  Uiso   1.00
C210   C     0.98303   0.59505   0.21393   0.00000  Uiso   1.00
H211   H     0.89214   0.58107   0.21182   0.00000  Uiso   1.00
H212   H     0.60786   0.41893   0.12151   0.00000  Uiso   1.00
H213   H     0.88242   0.41939   0.11599   0.00000  Uiso   1.00
H214   H     0.61758   0.58060   0.21734   0.00000  Uiso   1.00
H215   H     0.94935   0.37144   0.09618   0.00000  Uiso   1.00
H216   H     0.55065   0.62856   0.23715   0.00000  Uiso   1.00
C217   C     0.73983   0.34474   0.14551   0.00000  Uiso   1.00
C218   C     0.76007   0.65526   0.18785   0.00000  Uiso   1.00
N219   N     0.73745   0.48547   0.01284   0.00000  Uiso   1.00
N220   N     0.76256   0.51453   0.32049   0.00000  Uiso   1.00
N221   N     0.53614   0.35470   0.10097   0.00000  Uiso   1.00
O222   O     0.51646   0.65210   0.05614   0.00000  Uiso   1.00
O223   O     0.56755   0.34112   0.13603   0.00000  Uiso   1.00
N224   N     0.96386   0.64530   0.23236   0.00000  Uiso   1.00
O225   O     0.98354   0.34790   0.27718   0.00000  Uiso   1.00
O226   O     0.93246   0.65888   0.19730   0.00000  Uiso   1.00
C227   C     0.70254   0.65188   0.09987   0.00000  Uiso   1.00
O228   O     0.67192   0.62630   0.11543   0.00000  Uiso   1.00
O229   O     0.70197   0.65795   0.03967   0.00000  Uiso   1.00
H230   H     0.67498   0.63864   0.01315   0.00000  Uiso   1.00
C231   C     0.79730   0.34816   0.23356   0.00000  Uiso   1.00
O232   O     0.82812   0.37341   0.21794   0.00000  Uiso   1.00
O233   O     0.79753   0.34253   0.29393   0.00000  Uiso   1.00
H234   H     0.82450   0.36184   0.32050   0.00000  Uiso   1.00
N235   N     0.69365   0.47572   0.32067   0.00000  Uiso   1.00
O236   O     0.66513   0.51223   0.33322   0.00000  Uiso   1.00
O237   O     0.67856   0.42741   0.29770   0.00000  Uiso   1.00
N238   N     0.80636   0.52427   0.01266   0.00000  Uiso   1.00
O239   O     0.83486   0.48776   0.00011   0.00000  Uiso   1.00
O240   O     0.82145   0.57259   0.03562   0.00000  Uiso   1.00
O241   O     0.25326   0.76204   0.20659   0.00000  Uiso   1.00
O242   O     0.24675   0.90462   0.12674   0.00000  Uiso   1.00
O243   O     0.24480   0.75226   0.10279   0.00000  Uiso   1.00
O244   O     0.25520   0.91441   0.23055   0.00000  Uiso   1.00
C245   C     0.24773   0.73347   0.15139   0.00000  Uiso   1.00
C246   C     0.25224   0.93320   0.18194   0.00000  Uiso   1.00
O247   O     0.18936   0.83821   0.21857   0.00000  Uiso   1.00
O248   O     0.31065   0.82845   0.11476   0.00000  Uiso   1.00
O249   O     0.18090   0.82843   0.11477   0.00000  Uiso   1.00
O250   O     0.31910   0.83824   0.21857   0.00000  Uiso   1.00
C251   C     0.16467   0.83324   0.16777   0.00000  Uiso   1.00
C252   C     0.33533   0.83343   0.16556   0.00000  Uiso   1.00
Cu253  Cu    0.25501   0.83913   0.22813   0.00000  Uiso   1.00
Cu254  Cu    0.24500   0.82754   0.10521   0.00000  Uiso   1.00
C255   C     0.40917   0.88021   0.18992   0.00000  Uiso   1.00
C256   C     0.09083   0.78646   0.14341   0.00000  Uiso   1.00
C257   C     0.38338   0.83407   0.16313   0.00000  Uiso   1.00
C258   C     0.11662   0.83260   0.17020   0.00000  Uiso   1.00
C259   C     0.40330   0.78820   0.13617   0.00000  Uiso   1.00
C260   C     0.09670   0.87846   0.19716   0.00000  Uiso   1.00
C261   C     0.44995   0.78744   0.13821   0.00000  Uiso   1.00
C262   C     0.05005   0.87922   0.19512   0.00000  Uiso   1.00
C263   C     0.47653   0.83394   0.16521   0.00000  Uiso   1.00
C264   C     0.02348   0.83273   0.16813   0.00000  Uiso   1.00
C265   C     0.45605   0.88151   0.18934   0.00000  Uiso   1.00
C266   C     0.04395   0.78516   0.14399   0.00000  Uiso   1.00
C267   C     0.47017   0.74044   0.11535   0.00000  Uiso   1.00
C268   C     0.02983   0.92622   0.21799   0.00000  Uiso   1.00
C269   C     0.01697   0.73828   0.11940   0.00000  Uiso   1.00
C270   C     0.48303   0.92839   0.21393   0.00000  Uiso   1.00
H271   H     0.39214   0.91440   0.21182   0.00000  Uiso   1.00
H272   H     0.10786   0.75226   0.12151   0.00000  Uiso   1.00
H273   H     0.38242   0.75273   0.11599   0.00000  Uiso   1.00
H274   H     0.11758   0.91394   0.21734   0.00000  Uiso   1.00
H275   H     0.44935   0.70477   0.09618   0.00000  Uiso   1.00
H276   H     0.05065   0.96190   0.23715   0.00000  Uiso   1.00
C277   C     0.23983   0.67807   0.14551   0.00000  Uiso   1.00
C278   C     0.26007   0.98860   0.18785   0.00000  Uiso   1.00
N279   N     0.23745   0.81881   0.01284   0.00000  Uiso   1.00
N280   N     0.26256   0.84786   0.32049   0.00000  Uiso   1.00
N281   N     0.03614   0.68803   0.10097   0.00000  Uiso   1.00
O282   O     0.01646   0.98543   0.05614   0.00000  Uiso   1.00
O283   O     0.06755   0.67445   0.13603   0.00000  Uiso   1.00
N284   N     0.46386   0.97863   0.23236   0.00000  Uiso   1.00
O285   O     0.48354   0.68123   0.27718   0.00000  Uiso   1.00
O286   O     0.43246   0.99221   0.19730   0.00000  Uiso   1.00
C287   C     0.20254   0.98521   0.09987   0.00000  Uiso   1.00
O288   O     0.17192   0.95963   0.11543   0.00000  Uiso   1.00
O289   O     0.20197   0.99129   0.03967   0.00000  Uiso   1.00
H290   H     0.17498   0.97197   0.01315   0.00000  Uiso   1.00
C291   C     0.29730   0.68149   0.23356   0.00000  Uiso   1.00
O292   O     0.32812   0.70675   0.21794   0.00000  Uiso   1.00
O293   O     0.29753   0.67586   0.29393   0.00000  Uiso   1.00
H294   H     0.32450   0.69518   0.32050   0.00000  Uiso   1.00
N295   N     0.19365   0.80906   0.32067   0.00000  Uiso   1.00
O296   O     0.16513   0.84556   0.33322   0.00000  Uiso   1.00
O297   O     0.17856   0.76074   0.29770   0.00000  Uiso   1.00
N298   N     0.30636   0.85761   0.01266   0.00000  Uiso   1.00
O299   O     0.33486   0.82110   0.00011   0.00000  Uiso   1.00
O300   O     0.32145   0.90592   0.03562   0.00000  Uiso   1.00
O301   O     0.75326   0.76204   0.20659   0.00000  Uiso   1.00
O302   O     0.74675   0.90462   0.12674   0.00000  Uiso   1.00
O303   O     0.74480   0.75226   0.10279   0.00000  Uiso   1.00
O304   O     0.75520   0.91441   0.23055   0.00000  Uiso   1.00
C305   C     0.74773   0.73347   0.15139   0.00000  Uiso   1.00
C306   C     0.75224   0.93320   0.18194   0.00000  Uiso   1.00
O307   O     0.68936   0.83821   0.21857   0.00000  Uiso   1.00
O308   O     0.81065   0.82845   0.11476   0.00000  Uiso   1.00
O309   O     0.68090   0.82843   0.11477   0.00000  Uiso   1.00
O310   O     0.81910   0.83824   0.21857   0.00000  Uiso   1.00
C311   C     0.66467   0.83324   0.16777   0.00000  Uiso   1.00
C312   C     0.83533   0.83343   0.16556   0.00000  Uiso   1.00
Cu313  Cu    0.75501   0.83913   0.22813   0.00000  Uiso   1.00
Cu314  Cu    0.74500   0.82754   0.10521   0.00000  Uiso   1.00
C315   C     0.90917   0.88021   0.18992   0.00000  Uiso   1.00
C316   C     0.59083   0.78646   0.14341   0.00000  Uiso   1.00
C317   C     0.88338   0.83407   0.16313   0.00000  Uiso   1.00
C318   C     0.61662   0.83260   0.17020   0.00000  Uiso   1.00
C319   C     0.90330   0.78820   0.13617   0.00000  Uiso   1.00
C320   C     0.59670   0.87846   0.19716   0.00000  Uiso   1.00
C321   C     0.94995   0.78744   0.13821   0.00000  Uiso   1.00
C322   C     0.55005   0.87922   0.19512   0.00000  Uiso   1.00
C323   C     0.97653   0.83394   0.16521   0.00000  Uiso   1.00
C324   C     0.52348   0.83273   0.16813   0.00000  Uiso   1.00
C325   C     0.95605   0.88151   0.18934   0.00000  Uiso   1.00
C326   C     0.54395   0.78516   0.14399   0.00000  Uiso   1.00
C327   C     0.97017   0.74044   0.11535   0.00000  Uiso   1.00
C328   C     0.52983   0.92622   0.21799   0.00000  Uiso   1.00
C329   C     0.51697   0.73828   0.11940   0.00000  Uiso   1.00
C330   C     0.98303   0.92839   0.21393   0.00000  Uiso   1.00
H331   H     0.89214   0.91440   0.21182   0.00000  Uiso   1.00
H332   H     0.60786   0.75226   0.12151   0.00000  Uiso   1.00
H333   H     0.88242   0.75273   0.11599   0.00000  Uiso   1.00
H334   H     0.61758   0.91394   0.21734   0.00000  Uiso   1.00
H335   H     0.94935   0.70477   0.09618   0.00000  Uiso   1.00
H336   H     0.55065   0.96190   0.23715   0.00000  Uiso   1.00
C337   C     0.73983   0.67807   0.14551   0.00000  Uiso   1.00
C338   C     0.76007   0.98860   0.18785   0.00000  Uiso   1.00
N339   N     0.73745   0.81881   0.01284   0.00000  Uiso   1.00
N340   N     0.76256   0.84786   0.32049   0.00000  Uiso   1.00
N341   N     0.53614   0.68803   0.10097   0.00000  Uiso   1.00
O342   O     0.51646   0.98543   0.05614   0.00000  Uiso   1.00
O343   O     0.56755   0.67445   0.13603   0.00000  Uiso   1.00
N344   N     0.96386   0.97863   0.23236   0.00000  Uiso   1.00
O345   O     0.98354   0.68123   0.27718   0.00000  Uiso   1.00
O346   O     0.93246   0.99221   0.19730   0.00000  Uiso   1.00
C347   C     0.70254   0.98521   0.09987   0.00000  Uiso   1.00
O348   O     0.67192   0.95963   0.11543   0.00000  Uiso   1.00
O349   O     0.70197   0.99129   0.03967   0.00000  Uiso   1.00
H350   H     0.67498   0.97197   0.01315   0.00000  Uiso   1.00
C351   C     0.79730   0.68149   0.23356   0.00000  Uiso   1.00
O352   O     0.82812   0.70675   0.21794   0.00000  Uiso   1.00
O353   O     0.79753   0.67586   0.29393   0.00000  Uiso   1.00
H354   H     0.82450   0.69518   0.32050   0.00000  Uiso   1.00
N355   N     0.69365   0.80906   0.32067   0.00000  Uiso   1.00
O356   O     0.66513   0.84556   0.33322   0.00000  Uiso   1.00
O357   O     0.67856   0.76074   0.29770   0.00000  Uiso   1.00
N358   N     0.80636   0.85761   0.01266   0.00000  Uiso   1.00
O359   O     0.83486   0.82110   0.00011   0.00000  Uiso   1.00
O360   O     0.82145   0.90592   0.03562   0.00000  Uiso   1.00
O361   O     0.25326   0.09538   0.53992   0.00000  Uiso   1.00
O362   O     0.24675   0.23796   0.46008   0.00000  Uiso   1.00
O363   O     0.24480   0.08559   0.43612   0.00000  Uiso   1.00
O364   O     0.25520   0.24774   0.56388   0.00000  Uiso   1.00
C365   C     0.24773   0.06680   0.48473   0.00000  Uiso   1.00
C366   C     0.25224   0.26653   0.51527   0.00000  Uiso   1.00
O367   O     0.18936   0.17155   0.55191   0.00000  Uiso   1.00
O368   O     0.31065   0.16179   0.44809   0.00000  Uiso   1.00
O369   O     0.18090   0.16176   0.44810   0.00000  Uiso   1.00
O370   O     0.31910   0.17157   0.55190   0.00000  Uiso   1.00
C371   C     0.16467   0.16657   0.50110   0.00000  Uiso   1.00
C372   C     0.33533   0.16676   0.49889   0.00000  Uiso   1.00
Cu373  Cu    0.25501   0.17246   0.56146   0.00000  Uiso   1.00
Cu374  Cu    0.24500   0.16087   0.43854   0.00000  Uiso   1.00
C375   C     0.40917   0.21354   0.52325   0.00000  Uiso   1.00
C376   C     0.09083   0.11979   0.47674   0.00000  Uiso   1.00
C377   C     0.38338   0.16740   0.49647   0.00000  Uiso   1.00
C378   C     0.11662   0.16593   0.50353   0.00000  Uiso   1.00
C379   C     0.40330   0.12154   0.46951   0.00000  Uiso   1.00
C380   C     0.09670   0.21179   0.53049   0.00000  Uiso   1.00
C381   C     0.44995   0.12077   0.47155   0.00000  Uiso   1.00
C382   C     0.05005   0.21256   0.52845   0.00000  Uiso   1.00
C383   C     0.47653   0.16727   0.49854   0.00000  Uiso   1.00
C384   C     0.02348   0.16606   0.50146   0.00000  Uiso   1.00
C385   C     0.45605   0.21484   0.52267   0.00000  Uiso   1.00
C386   C     0.04395   0.11849   0.47733   0.00000  Uiso   1.00
C387   C     0.47017   0.07378   0.44868   0.00000  Uiso   1.00
C388   C     0.02983   0.25956   0.55132   0.00000  Uiso   1.00
C389   C     0.01697   0.07161   0.45273   0.00000  Uiso   1.00
C390   C     0.48303   0.26172   0.54727   0.00000  Uiso   1.00
H391   H     0.39214   0.24773   0.54516   0.00000  Uiso   1.00
H392   H     0.10786   0.08560   0.45484   0.00000  Uiso   1.00
H393   H     0.38242   0.08606   0.44932   0.00000  Uiso   1.00
H394   H     0.11758   0.24727   0.55068   0.00000  Uiso   1.00
H395   H     0.44935   0.03810   0.42951   0.00000  Uiso   1.00
H396   H     0.05065   0.29523   0.57048   0.00000  Uiso   1.00
C397   C     0.23983   0.01140   0.47884   0.00000  Uiso   1.00
C398   C     0.26007   0.32193   0.52118   0.00000  Uiso   1.00
N399   N     0.23745   0.15214   0.34617   0.00000  Uiso   1.00
N400   N     0.26256   0.18119   0.65383   0.00000  Uiso   1.00
N401   N     0.03614   0.02137   0.43431   0.00000  Uiso   1.00
O402   O     0.01646   0.31876   0.38948   0.00000  Uiso   1.00
O403   O     0.06755   0.00778   0.46936   0.00000  Uiso   1.00
N404   N     0.46386   0.31196   0.56569   0.00000  Uiso   1.00
O405   O     0.48354   0.01457   0.61052   0.00000  Uiso   1.00
O406   O     0.43246   0.32555   0.53063   0.00000  Uiso   1.00
C407   C     0.20254   0.31854   0.43320   0.00000  Uiso   1.00
O408   O     0.17192   0.29297   0.44876   0.00000  Uiso   1.00
O409   O     0.20197   0.32462   0.37300   0.00000  Uiso   1.00
H410   H     0.17498   0.30530   0.34649   0.00000  Uiso   1.00
C411   C     0.29730   0.01482   0.56689   0.00000  Uiso   1.00
O412   O     0.32812   0.04008   0.55127   0.00000  Uiso   1.00
O413   O     0.29753   0.00920   0.62726   0.00000  Uiso   1.00
H414   H     0.32450   0.02851   0.65383   0.00000  Uiso   1.00
N415   N     0.19365   0.14239   0.65400   0.00000  Uiso   1.00
O416   O     0.16513   0.17890   0.66655   0.00000  Uiso   1.00
O417   O     0.17856   0.09408   0.63103   0.00000  Uiso   1.00
N418   N     0.30636   0.19094   0.34600   0.00000  Uiso   1.00
O419   O     0.33486   0.15443   0.33345   0.00000  Uiso   1.00
O420   O     0.32145   0.23925   0.36896   0.00000  Uiso   1.00
O421   O     0.75326   0.09538   0.53992   0.00000  Uiso   1.00
O422   O     0.74675   0.23796   0.46008   0.00000  Uiso   1.00
O423   O     0.74480   0.08559   0.43612   0.00000  Uiso   1.00
O424   O     0.75520   0.24774   0.56388   0.00000  Uiso   1.00
C425   C     0.74773   0.06680   0.48473   0.00000  Uiso   1.00
C426   C     0.75224   0.26653   0.51527   0.00000  Uiso   1.00
O427   O     0.68936   0.17155   0.55191   0.00000  Uiso   1.00
O428   O     0.81065   0.16179   0.44809   0.00000  Uiso   1.00
O429   O     0.68090   0.16176   0.44810   0.00000  Uiso   1.00
O430   O     0.81910   0.17157   0.55190   0.00000  Uiso   1.00
C431   C     0.66467   0.16657   0.50110   0.00000  Uiso   1.00
C432   C     0.83533   0.16676   0.49889   0.00000  Uiso   1.00
Cu433  Cu    0.75501   0.17246   0.56146   0.00000  Uiso   1.00
Cu434  Cu    0.74500   0.16087   0.43854   0.00000  Uiso   1.00
C435   C     0.90917   0.21354   0.52325   0.00000  Uiso   1.00
C436   C     0.59083   0.11979   0.47674   0.00000  Uiso   1.00
C437   C     0.88338   0.16740   0.49647   0.00000  Uiso   1.00
C438   C     0.61662   0.16593   0.50353   0.00000  Uiso   1.00
C439   C     0.90330   0.12154   0.46951   0.00000  Uiso   1.00
C440   C     0.59670   0.21179   0.53049   0.00000  Uiso   1.00
C441   C     0.94995   0.12077   0.47155   0.00000  Uiso   1.00
C442   C     0.55005   0.21256   0.52845   0.00000  Uiso   1.00
C443   C     0.97653   0.16727   0.49854   0.00000  Uiso   1.00
C444   C     0.52348   0.16606   0.50146   0.00000  Uiso   1.00
C445   C     0.95605   0.21484   0.52267   0.00000  Uiso   1.00
C446   C     0.54395   0.11849   0.47733   0.00000  Uiso   1.00
C447   C     0.97017   0.07378   0.44868   0.00000  Uiso   1.00
C448   C     0.52983   0.25956   0.55132   0.00000  Uiso   1.00
C449   C     0.51697   0.07161   0.45273   0.00000  Uiso   1.00
C450   C     0.98303   0.26172   0.54727   0.00000  Uiso   1.00
H451   H     0.89214   0.24773   0.54516   0.00000  Uiso   1.00
H452   H     0.60786   0.08560   0.45484   0.00000  Uiso   1.00
H453   H     0.88242   0.08606   0.44932   0.00000  Uiso   1.00
H454   H     0.61758   0.24727   0.55068   0.00000  Uiso   1.00
H455   H     0.94935   0.03810   0.42951   0.00000  Uiso   1.00
H456   H     0.55065   0.29523   0.57048   0.00000  Uiso   1.00
C457   C     0.73983   0.01140   0.47884   0.00000  Uiso   1.00
C458   C     0.76007   0.32193   0.52118   0.00000  Uiso   1.00
N459   N     0.73745   0.15214   0.34617   0.00000  Uiso   1.00
N460   N     0.76256   0.18119   0.65383   0.00000  Uiso   1.00
N461   N     0.53614   0.02137   0.43431   0.00000  Uiso   1.00
O462   O     0.51646   0.31876   0.38948   0.00000  Uiso   1.00
O463   O     0.56755   0.00778   0.46936   0.00000  Uiso   1.00
N464   N     0.96386   0.31196   0.56569   0.00000  Uiso   1.00
O465   O     0.98354   0.01457   0.61052   0.00000  Uiso   1.00
O466   O     0.93246   0.32555   0.53063   0.00000  Uiso   1.00
C467   C     0.70254   0.31854   0.43320   0.00000  Uiso   1.00
O468   O     0.67192   0.29297   0.44876   0.00000  Uiso   1.00
O469   O     0.70197   0.32462   0.37300   0.00000  Uiso   1.00
H470   H     0.67498   0.30530   0.34649   0.00000  Uiso   1.00
C471   C     0.79730   0.01482   0.56689   0.00000  Uiso   1.00
O472   O     0.82812   0.04008   0.55127   0.00000  Uiso   1.00
O473   O     0.79753   0.00920   0.62726   0.00000  Uiso   1.00
H474   H     0.82450   0.02851   0.65383   0.00000  Uiso   1.00
N475   N     0.69365   0.14239   0.65400   0.00000  Uiso   1.00
O476   O     0.66513   0.17890   0.66655   0.00000  Uiso   1.00
O477   O     0.67856   0.09408   0.63103   0.00000  Uiso   1.00
N478   N     0.80636   0.19094   0.34600   0.00000  Uiso   1.00
O479   O     0.83486   0.15443   0.33345   0.00000  Uiso   1.00
O480   O     0.82145   0.23925   0.36896   0.00000  Uiso   1.00
O481   O     0.25326   0.42871   0.53992   0.00000  Uiso   1.00
O482   O     0.24675   0.57129   0.46008   0.00000  Uiso   1.00
O483   O     0.24480   0.41892   0.43612   0.00000  Uiso   1.00
O484   O     0.25520   0.58108   0.56388   0.00000  Uiso   1.00
C485   C     0.24773   0.40013   0.48473   0.00000  Uiso   1.00
C486   C     0.25224   0.59986   0.51527   0.00000  Uiso   1.00
O487   O     0.18936   0.50488   0.55191   0.00000  Uiso   1.00
O488   O     0.31065   0.49512   0.44809   0.00000  Uiso   1.00
O489   O     0.18090   0.49510   0.44810   0.00000  Uiso   1.00
O490   O     0.31910   0.50490   0.55190   0.00000  Uiso   1.00
C491   C     0.16467   0.49991   0.50110   0.00000  Uiso   1.00
C492   C     0.33533   0.50009   0.49889   0.00000  Uiso   1.00
Cu493  Cu    0.25501   0.50579   0.56146   0.00000  Uiso   1.00
Cu494  Cu    0.24500   0.49421   0.43854   0.00000  Uiso   1.00
C495   C     0.40917   0.54688   0.52325   0.00000  Uiso   1.00
C496   C     0.09083   0.45312   0.47674   0.00000  Uiso   1.00
C497   C     0.38338   0.50074   0.49647   0.00000  Uiso   1.00
C498   C     0.11662   0.49926   0.50353   0.00000  Uiso   1.00
C499   C     0.40330   0.45487   0.46951   0.00000  Uiso   1.00
C500   C     0.09670   0.54513   0.53049   0.00000  Uiso   1.00
C501   C     0.44995   0.45411   0.47155   0.00000  Uiso   1.00
C502   C     0.05005   0.54589   0.52845   0.00000  Uiso   1.00
C503   C     0.47653   0.50060   0.49854   0.00000  Uiso   1.00
C504   C     0.02348   0.49939   0.50146   0.00000  Uiso   1.00
C505   C     0.45605   0.54817   0.52267   0.00000  Uiso   1.00
C506   C     0.04395   0.45182   0.47733   0.00000  Uiso   1.00
C507   C     0.47017   0.40711   0.44868   0.00000  Uiso   1.00
C508   C     0.02983   0.59289   0.55132   0.00000  Uiso   1.00
C509   C     0.01697   0.40495   0.45273   0.00000  Uiso   1.00
C510   C     0.48303   0.59505   0.54727   0.00000  Uiso   1.00
H511   H     0.39214   0.58107   0.54516   0.00000  Uiso   1.00
H512   H     0.10786   0.41893   0.45484   0.00000  Uiso   1.00
H513   H     0.38242   0.41939   0.44932   0.00000  Uiso   1.00
H514   H     0.11758   0.58060   0.55068   0.00000  Uiso   1.00
H515   H     0.44935   0.37144   0.42951   0.00000  Uiso   1.00
H516   H     0.05065   0.62856   0.57048   0.00000  Uiso   1.00
C517   C     0.23983   0.34474   0.47884   0.00000  Uiso   1.00
C518   C     0.26007   0.65526   0.52118   0.00000  Uiso   1.00
N519   N     0.23745   0.48547   0.34617   0.00000  Uiso   1.00
N520   N     0.26256   0.51453   0.65383   0.00000  Uiso   1.00
N521   N     0.03614   0.35470   0.43431   0.00000  Uiso   1.00
O522   O     0.01646   0.65210   0.38948   0.00000  Uiso   1.00
O523   O     0.06755   0.34112   0.46936   0.00000  Uiso   1.00
N524   N     0.46386   0.64530   0.56569   0.00000  Uiso   1.00
O525   O     0.48354   0.34790   0.61052   0.00000  Uiso   1.00
O526   O     0.43246   0.65888   0.53063   0.00000  Uiso   1.00
C527   C     0.20254   0.65188   0.43320   0.00000  Uiso   1.00
O528   O     0.17192   0.62630   0.44876   0.00000  Uiso   1.00
O529   O     0.20197   0.65795   0.37300   0.00000  Uiso   1.00
H530   H     0.17498   0.63864   0.34649   0.00000  Uiso   1.00
C531   C     0.29730   0.34816   0.56689   0.00000  Uiso   1.00
O532   O     0.32812   0.37341   0.55127   0.00000  Uiso   1.00
O533   O     0.29753   0.34253   0.62726   0.00000  Uiso   1.00
H534   H     0.32450   0.36184   0.65383   0.00000  Uiso   1.00
N535   N     0.19365   0.47572   0.65400   0.00000  Uiso   1.00
O536   O     0.16513   0.51223   0.66655   0.00000  Uiso   1.00
O537   O     0.17856   0.42741   0.63103   0.00000  Uiso   1.00
N538   N     0.30636   0.52427   0.34600   0.00000  Uiso   1.00
O539   O     0.33486   0.48776   0.33345   0.00000  Uiso   1.00
O540   O     0.32145   0.57259   0.36896   0.00000  Uiso   1.00
O541   O     0.75326   0.42871   0.53992   0.00000  Uiso   1.00
O542   O     0.74675   0.57129   0.46008   0.00000  Uiso   1.00
O543   O     0.74480   0.41892   0.43612   0.00000  Uiso   1.00
O544   O     0.75520   0.58108   0.56388   0.00000  Uiso   1.00
C545   C     0.74773   0.40013   0.48473   0.00000  Uiso   1.00
C546   C     0.75224   0.59986   0.51527   0.00000  Uiso   1.00
O547   O     0.68936   0.50488   0.55191   0.00000  Uiso   1.00
O548   O     0.81065   0.49512   0.44809   0.00000  Uiso   1.00
O549   O     0.68090   0.49510   0.44810   0.00000  Uiso   1.00
O550   O     0.81910   0.50490   0.55190   0.00000  Uiso   1.00
C551   C     0.66467   0.49991   0.50110   0.00000  Uiso   1.00
C552   C     0.83533   0.50009   0.49889   0.00000  Uiso   1.00
Cu553  Cu    0.75501   0.50579   0.56146   0.00000  Uiso   1.00
Cu554  Cu    0.74500   0.49421   0.43854   0.00000  Uiso   1.00
C555   C     0.90917   0.54688   0.52325   0.00000  Uiso   1.00
C556   C     0.59083   0.45312   0.47674   0.00000  Uiso   1.00
C557   C     0.88338   0.50074   0.49647   0.00000  Uiso   1.00
C558   C     0.61662   0.49926   0.50353   0.00000  Uiso   1.00
C559   C     0.90330   0.45487   0.46951   0.00000  Uiso   1.00
C560   C     0.59670   0.54513   0.53049   0.00000  Uiso   1.00
C561   C     0.94995   0.45411   0.47155   0.00000  Uiso   1.00
C562   C     0.55005   0.54589   0.52845   0.00000  Uiso   1.00
C563   C     0.97653   0.50060   0.49854   0.00000  Uiso   1.00
C564   C     0.52348   0.49939   0.50146   0.00000  Uiso   1.00
C565   C     0.95605   0.54817   0.52267   0.00000  Uiso   1.00
C566   C     0.54395   0.45182   0.47733   0.00000  Uiso   1.00
C567   C     0.97017   0.40711   0.44868   0.00000  Uiso   1.00
C568   C     0.52983   0.59289   0.55132   0.00000  Uiso   1.00
C569   C     0.51697   0.40495   0.45273   0.00000  Uiso   1.00
C570   C     0.98303   0.59505   0.54727   0.00000  Uiso   1.00
H571   H     0.89214   0.58107   0.54516   0.00000  Uiso   1.00
H572   H     0.60786   0.41893   0.45484   0.00000  Uiso   1.00
H573   H     0.88242   0.41939   0.44932   0.00000  Uiso   1.00
H574   H     0.61758   0.58060   0.55068   0.00000  Uiso   1.00
H575   H     0.94935   0.37144   0.42951   0.00000  Uiso   1.00
H576   H     0.55065   0.62856   0.57048   0.00000  Uiso   1.00
C577   C     0.73983   0.34474   0.47884   0.00000  Uiso   1.00
C578   C     0.76007   0.65526   0.52118   0.00000  Uiso   1.00
N579   N     0.73745   0.48547   0.34617   0.00000  Uiso   1.00
N580   N     0.76256   0.51453   0.65383   0.00000  Uiso   1.00
N581   N     0.53614   0.35470   0.43431   0.00000  Uiso   1.00
O582   O     0.51646   0.65210   0.38948   0.00000  Uiso   1.00
O583   O     0.56755   0.34112   0.46936   0.00000  Uiso   1.00
N584   N     0.96386   0.64530   0.56569   0.00000  Uiso   1.00
O585   O     0.98354   0.34790   0.61052   0.00000  Uiso   1.00
O586   O     0.93246   0.65888   0.53063   0.00000  Uiso   1.00
C587   C     0.70254   0.65188   0.43320   0.00000  Uiso   1.00
O588   O     0.67192   0.62630   0.44876   0.00000  Uiso   1.00
O589   O     0.70197   0.65795   0.37300   0.00000  Uiso   1.00
H590   H     0.67498   0.63864   0.34649   0.00000  Uiso   1.00
C591   C     0.79730   0.34816   0.56689   0.00000  Uiso   1.00
O592   O     0.82812   0.37341   0.55127   0.00000  Uiso   1.00
O593   O     0.79753   0.34253   0.62726   0.00000  Uiso   1.00
H594   H     0.82450   0.36184   0.65383   0.00000  Uiso   1.00
N595   N     0.69365   0.47572   0.65400   0.00000  Uiso   1.00
O596   O     0.66513   0.51223   0.66655   0.00000  Uiso   1.00
O597   O     0.67856   0.42741   0.63103   0.00000  Uiso   1.00
N598   N     0.80636   0.52427   0.34600   0.00000  Uiso   1.00
O599   O     0.83486   0.48776   0.33345   0.00000  Uiso   1.00
O600   O     0.82145   0.57259   0.36896   0.00000  Uiso   1.00
O601   O     0.25326   0.76204   0.53992   0.00000  Uiso   1.00
O602   O     0.24675   0.90462   0.46008   0.00000  Uiso   1.00
O603   O     0.24480   0.75226   0.43612   0.00000  Uiso   1.00
O604   O     0.25520   0.91441   0.56388   0.00000  Uiso   1.00
C605   C     0.24773   0.73347   0.48473   0.00000  Uiso   1.00
C606   C     0.25224   0.93320   0.51527   0.00000  Uiso   1.00
O607   O     0.18936   0.83821   0.55191   0.00000  Uiso   1.00
O608   O     0.31065   0.82845   0.44809   0.00000  Uiso   1.00
O609   O     0.18090   0.82843   0.44810   0.00000  Uiso   1.00
O610   O     0.31910   0.83824   0.55190   0.00000  Uiso   1.00
C611   C     0.16467   0.83324   0.50110   0.00000  Uiso   1.00
C612   C     0.33533   0.83343   0.49889   0.00000  Uiso   1.00
Cu613  Cu    0.25501   0.83913   0.56146   0.00000  Uiso   1.00
Cu614  Cu    0.24500   0.82754   0.43854   0.00000  Uiso   1.00
C615   C     0.40917   0.88021   0.52325   0.00000  Uiso   1.00
C616   C     0.09083   0.78646   0.47674   0.00000  Uiso   1.00
C617   C     0.38338   0.83407   0.49647   0.00000  Uiso   1.00
C618   C     0.11662   0.83260   0.50353   0.00000  Uiso   1.00
C619   C     0.40330   0.78820   0.46951   0.00000  Uiso   1.00
C620   C     0.09670   0.87846   0.53049   0.00000  Uiso   1.00
C621   C     0.44995   0.78744   0.47155   0.00000  Uiso   1.00
C622   C     0.05005   0.87922   0.52845   0.00000  Uiso   1.00
C623   C     0.47653   0.83394   0.49854   0.00000  Uiso   1.00
C624   C     0.02348   0.83273   0.50146   0.00000  Uiso   1.00
C625   C     0.45605   0.88151   0.52267   0.00000  Uiso   1.00
C626   C     0.04395   0.78516   0.47733   0.00000  Uiso   1.00
C627   C     0.47017   0.74044   0.44868   0.00000  Uiso   1.00
C628   C     0.02983   0.92622   0.55132   0.00000  Uiso   1.00
C629   C     0.01697   0.73828   0.45273   0.00000  Uiso   1.00
C630   C     0.48303   0.92839   0.54727   0.00000  Uiso   1.00
H631   H     0.39214   0.91440   0.54516   0.00000  Uiso   1.00
H632   H     0.10786   0.75226   0.45484   0.00000  Uiso   1.00
H633   H     0.38242   0.75273   0.44932   0.00000  Uiso   1.00
H634   H     0.11758   0.91394   0.55068   0.00000  Uiso   1.00
H635   H     0.44935   0.70477   0.42951   0.00000  Uiso   1.00
H636   H     0.05065   0.96190   0.57048   0.00000  Uiso   1.00
C637   C     0.23983   0.67807   0.47884   0.00000  Uiso   1.00
C638   C     0.26007   0.98860   0.52118   0.00000  Uiso   1.00
N639   N     0.23745   0.81881   0.34617   0.00000  Uiso   1.00
N640   N     0.26256   0.84786   0.65383   0.00000  Uiso   1.00
N641   N     0.03614   0.68803   0.43431   0.00000  Uiso   1.00
O642   O     0.01646   0.98543   0.38948   0.00000  Uiso   1.00
O643   O     0.06755   0.67445   0.46936   0.00000  Uiso   1.00
N644   N     0.46386   0.97863   0.56569   0.00000  Uiso   1.00
O645   O     0.48354   0.68123   0.61052   0.00000  Uiso   1.00
O646   O     0.43246   0.99221   0.53063   0.00000  Uiso   1.00
C647   C     0.20254   0.98521   0.43320   0.00000  Uiso   1.00
O648   O     0.17192   0.95963   0.44876   0.00000  Uiso   1.00
O649   O     0.20197   0.99129   0.37300   0.00000  Uiso   1.00
H650   H     0.17498   0.97197   0.34649   0.00000  Uiso   1.00
C651   C     0.29730   0.68149   0.56689   0.00000  Uiso   1.00
O652   O     0.32812   0.70675   0.55127   0.00000  Uiso   1.00
O653   O     0.29753   0.67586   0.62726   0.00000  Uiso   1.00
H654   H     0.32450   0.69518   0.65383   0.00000  Uiso   1.00
N655   N     0.19365   0.80906   0.65400   0.00000  Uiso   1.00
O656   O     0.16513   0.84556   0.66655   0.00000  Uiso   1.00
O657   O     0.17856   0.76074   0.63103   0.00000  Uiso   1.00
N658   N     0.30636   0.85761   0.34600   0.00000  Uiso   1.00
O659   O     0.33486   0.82110   0.33345   0.00000  Uiso   1.00
O660   O     0.32145   0.90592   0.36896   0.00000  Uiso   1.00
O661   O     0.75326   0.76204   0.53992   0.00000  Uiso   1.00
O662   O     0.74675   0.90462   0.46008   0.00000  Uiso   1.00
O663   O     0.74480   0.75226   0.43612   0.00000  Uiso   1.00
O664   O     0.75520   0.91441   0.56388   0.00000  Uiso   1.00
C665   C     0.74773   0.73347   0.48473   0.00000  Uiso   1.00
C666   C     0.75224   0.93320   0.51527   0.00000  Uiso   1.00
O667   O     0.68936   0.83821   0.55191   0.00000  Uiso   1.00
O668   O     0.81065   0.82845   0.44809   0.00000  Uiso   1.00
O669   O     0.68090   0.82843   0.44810   0.00000  Uiso   1.00
O670   O     0.81910   0.83824   0.55190   0.00000  Uiso   1.00
C671   C     0.66467   0.83324   0.50110   0.00000  Uiso   1.00
C672   C     0.83533   0.83343   0.49889   0.00000  Uiso   1.00
Cu673  Cu    0.75501   0.83913   0.56146   0.00000  Uiso   1.00
Cu674  Cu    0.74500   0.82754   0.43854   0.00000  Uiso   1.00
C675   C     0.90917   0.88021   0.52325   0.00000  Uiso   1.00
C676   C     0.59083   0.78646   0.47674   0.00000  Uiso   1.00
C677   C     0.88338   0.83407   0.49647   0.00000  Uiso   1.00
C678   C     0.61662   0.83260   0.50353   0.00000  Uiso   1.00
C679   C     0.90330   0.78820   0.46951   0.00000  Uiso   1.00
C680   C     0.59670   0.87846   0.53049   0.00000  Uiso   1.00
C681   C     0.94995   0.78744   0.47155   0.00000  Uiso   1.00
C682   C     0.55005   0.87922   0.52845   0.00000  Uiso   1.00
C683   C     0.97653   0.83394   0.49854   0.00000  Uiso   1.00
C684   C     0.52348   0.83273   0.50146   0.00000  Uiso   1.00
C685   C     0.95605   0.88151   0.52267   0.00000  Uiso   1.00
C686   C     0.54395   0.78516   0.47733   0.00000  Uiso   1.00
C687   C     0.97017   0.74044   0.44868   0.00000  Uiso   1.00
C688   C     0.52983   0.92622   0.55132   0.00000  Uiso   1.00
C689   C     0.51697   0.73828   0.45273   0.00000  Uiso   1.00
C690   C     0.98303   0.92839   0.54727   0.00000  Uiso   1.00
H691   H     0.89214   0.91440   0.54516   0.00000  Uiso   1.00
H692   H     0.60786   0.75226   0.45484   0.00000  Uiso   1.00
H693   H     0.88242   0.75273   0.44932   0.00000  Uiso   1.00
H694   H     0.61758   0.91394   0.55068   0.00000  Uiso   1.00
H695   H     0.94935   0.70477   0.42951   0.00000  Uiso   1.00
H696   H     0.55065   0.96190   0.57048   0.00000  Uiso   1.00
C697   C     0.73983   0.67807   0.47884   0.00000  Uiso   1.00
C698   C     0.76007   0.98860   0.52118   0.00000  Uiso   1.00
N699   N     0.73745   0.81881   0.34617   0.00000  Uiso   1.00
N700   N     0.76256   0.84786   0.65383   0.00000  Uiso   1.00
N701   N     0.53614   0.68803   0.43431   0.00000  Uiso   1.00
O702   O     0.51646   0.98543   0.38948   0.00000  Uiso   1.00
O703   O     0.56755   0.67445   0.46936   0.00000  Uiso   1.00
N704   N     0.96386   0.97863   0.56569   0.00000  Uiso   1.00
O705   O     0.98354   0.68123   0.61052   0.00000  Uiso   1.00
O706   O     0.93246   0.99221   0.53063   0.00000  Uiso   1.00
C707   C     0.70254   0.98521   0.43320   0.00000  Uiso   1.00
O708   O     0.67192   0.95963   0.44876   0.00000  Uiso   1.00
O709   O     0.70197   0.99129   0.37300   0.00000  Uiso   1.00
H710   H     0.67498   0.97197   0.34649   0.00000  Uiso   1.00
C711   C     0.79730   0.68149   0.56689   0.00000  Uiso   1.00
O712   O     0.82812   0.70675   0.55127   0.00000  Uiso   1.00
O713   O     0.79753   0.67586   0.62726   0.00000  Uiso   1.00
H714   H     0.82450   0.69518   0.65383   0.00000  Uiso   1.00
N715   N     0.69365   0.80906   0.65400   0.00000  Uiso   1.00
O716   O     0.66513   0.84556   0.66655   0.00000  Uiso   1.00
O717   O     0.67856   0.76074   0.63103   0.00000  Uiso   1.00
N718   N     0.80636   0.85761   0.34600   0.00000  Uiso   1.00
O719   O     0.83486   0.82110   0.33345   0.00000  Uiso   1.00
O720   O     0.82145   0.90592   0.36896   0.00000  Uiso   1.00
O721   O     0.25326   0.09538   0.87326   0.00000  Uiso   1.00
O722   O     0.24675   0.23796   0.79341   0.00000  Uiso   1.00
O723   O     0.24480   0.08559   0.76945   0.00000  Uiso   1.00
O724   O     0.25520   0.24774   0.89721   0.00000  Uiso   1.00
C725   C     0.24773   0.06680   0.81806   0.00000  Uiso   1.00
C726   C     0.25224   0.26653   0.84861   0.00000  Uiso   1.00
O727   O     0.18936   0.17155   0.88524   0.00000  Uiso   1.00
O728   O     0.31065   0.16179   0.78143   0.00000  Uiso   1.00
O729   O     0.18090   0.16176   0.78143   0.00000  Uiso   1.00
O730   O     0.31910   0.17157   0.88523   0.00000  Uiso   1.00
C731   C     0.16467   0.16657   0.83444   0.00000  Uiso   1.00
C732   C     0.33533   0.16676   0.83223   0.00000  Uiso   1.00
Cu733  Cu    0.25501   0.17246   0.89479   0.00000  Uiso   1.00
Cu734  Cu    0.24500   0.16087   0.77187   0.00000  Uiso   1.00
C735   C     0.40917   0.21354   0.85659   0.00000  Uiso   1.00
C736   C     0.09083   0.11979   0.81008   0.00000  Uiso   1.00
C737   C     0.38338   0.16740   0.82980   0.00000  Uiso   1.00
C738   C     0.11662   0.16593   0.83687   0.00000  Uiso   1.00
C739   C     0.40330   0.12154   0.80284   0.00000  Uiso   1.00
C740   C     0.09670   0.21179   0.86383   0.00000  Uiso   1.00
C741   C     0.44995   0.12077   0.80488   0.00000  Uiso   1.00
C742   C     0.05005   0.21256   0.86179   0.00000  Uiso   1.00
C743   C     0.47653   0.16727   0.83187   0.00000  Uiso   1.00
C744   C     0.02348   0.16606   0.83479   0.00000  Uiso   1.00
C745   C     0.45605   0.21484   0.85600   0.00000  Uiso   1.00
C746   C     0.04395   0.11849   0.81066   0.00000  Uiso   1.00
C747   C     0.47017   0.07378   0.78201   0.00000  Uiso   1.00
C748   C     0.02983   0.25956   0.88465   0.00000  Uiso   1.00
C749   C     0.01697   0.07161   0.78607   0.00000  Uiso   1.00
C750   C     0.48303   0.26172   0.88060   0.00000  Uiso   1.00
H751   H     0.39214   0.24773   0.87849   0.00000  Uiso   1.00
H752   H     0.10786   0.08560   0.78817   0.00000  Uiso   1.00
H753   H     0.38242   0.08606   0.78266   0.00000  Uiso   1.00
H754   H     0.11758   0.24727   0.88401   0.00000  Uiso   1.00
H755   H     0.44935   0.03810   0.76285   0.00000  Uiso   1.00
H756   H     0.05065   0.29523   0.90382   0.00000  Uiso   1.00
C757   C     0.23983   0.01140   0.81217   0.00000  Uiso   1.00
C758   C     0.26007   0.32193   0.85451   0.00000  Uiso   1.00
N759   N     0.23745   0.15214   0.67951   0.00000  Uiso   1.00
N760   N     0.26256   0.18119   0.98716   0.00000  Uiso   1.00
N761   N     0.03614   0.02137   0.76764   0.00000  Uiso   1.00
O762   O     0.01646   0.31876   0.72281   0.00000  Uiso   1.00
O763   O     0.06755   0.00778   0.80269   0.00000  Uiso   1.00
N764   N     0.46386   0.31196   0.89902   0.00000  Uiso   1.00
O765   O     0.48354   0.01457   0.94385   0.00000  Uiso   1.00
O766   O     0.43246   0.32555   0.86396   0.00000  Uiso   1.00
C767   C     0.20254   0.31854   0.76653   0.00000  Uiso   1.00
O768   O     0.17192   0.29297   0.78210   0.00000  Uiso   1.00
O769   O     0.20197   0.32462   0.70633   0.00000  Uiso   1.00
H770   H     0.17498   0.30530   0.67982   0.00000  Uiso   1.00
C771   C     0.29730   0.01482   0.90022   0.00000  Uiso   1.00
O772   O     0.32812   0.04008   0.88461   0.00000  Uiso   1.00
O773   O     0.29753   0.00920   0.96059   0.00000  Uiso   1.00
H774   H     0.32450   0.02851   0.98716   0.00000  Uiso   1.00
N775   N     0.19365   0.14239   0.98733   0.00000  Uiso   1.00
O776   O     0.16513   0.17890   0.99989   0.00000  Uiso   1.00
O777   O     0.17856   0.09408   0.96436   0.00000  Uiso   1.00
N778   N     0.30636   0.19094   0.67933   0.00000  Uiso   1.00
O779   O     0.33486   0.15443   0.66678   0.00000  Uiso   1.00
O780   O     0.32145   0.23925   0.70229   0.00000  Uiso   1.00
O781   O     0.75326   0.09538   0.87326   0.00000  Uiso   1.00
O782   O     0.74675   0.23796   0.79341   0.00000  Uiso   1.00
O783   O     0.74480   0.08559   0.76945   0.00000  Uiso   1.00
O784   O     0.75520   0.24774   0.89721   0.00000  Uiso   1.00
C785   C     0.74773   0.06680   0.81806   0.00000  Uiso   1.00
C786   C     0.75224   0.26653   0.84861   0.00000  Uiso   1.00
O787   O     0.68936   0.17155   0.88524   0.00000  Uiso   1.00
O788   O     0.81065   0.16179   0.78143   0.00000  Uiso   1.00
O789   O     0.68090   0.16176   0.78143   0.00000  Uiso   1.00
O790   O     0.81910   0.17157   0.88523   0.00000  Uiso   1.00
C791   C     0.66467   0.16657   0.83444   0.00000  Uiso   1.00
C792   C     0.83533   0.16676   0.83223   0.00000  Uiso   1.00
Cu793  Cu    0.75501   0.17246   0.89479   0.00000  Uiso   1.00
Cu794  Cu    0.74500   0.16087   0.77187   0.00000  Uiso   1.00
C795   C     0.90917   0.21354   0.85659   0.00000  Uiso   1.00
C796   C     0.59083   0.11979   0.81008   0.00000  Uiso   1.00
C797   C     0.88338   0.16740   0.82980   0.00000  Uiso   1.00
C798   C     0.61662   0.16593   0.83687   0.00000  Uiso   1.00
C799   C     0.90330   0.12154   0.80284   0.00000  Uiso   1.00
C800   C     0.59670   0.21179   0.86383   0.00000  Uiso   1.00
C801   C     0.94995   0.12077   0.80488   0.00000  Uiso   1.00
C802   C     0.55005   0.21256   0.86179   0.00000  Uiso   1.00
C803   C     0.97653   0.16727   0.83187   0.00000  Uiso   1.00
C804   C     0.52348   0.16606   0.83479   0.00000  Uiso   1.00
C805   C     0.95605   0.21484   0.85600   0.00000  Uiso   1.00
C806   C     0.54395   0.11849   0.81066   0.00000  Uiso   1.00
C807   C     0.97017   0.07378   0.78201   0.00000  Uiso   1.00
C808   C     0.52983   0.25956   0.88465   0.00000  Uiso   1.00
C809   C     0.51697   0.07161   0.78607   0.00000  Uiso   1.00
C810   C     0.98303   0.26172   0.88060   0.00000  Uiso   1.00
H811   H     0.89214   0.24773   0.87849   0.00000  Uiso   1.00
H812   H     0.60786   0.08560   0.78817   0.00000  Uiso   1.00
H813   H     0.88242   0.08606   0.78266   0.00000  Uiso   1.00
H814   H     0.61758   0.24727   0.88401   0.00000  Uiso   1.00
H815   H     0.94935   0.03810   0.76285   0.00000  Uiso   1.00
H816   H     0.55065   0.29523   0.90382   0.00000  Uiso   1.00
C817   C     0.73983   0.01140   0.81217   0.00000  Uiso   1.00
C818   C     0.76007   0.32193   0.85451   0.00000  Uiso   1.00
N819   N     0.73745   0.15214   0.67951   0.00000  Uiso   1.00
N820   N     0.76256   0.18119   0.98716   0.00000  Uiso   1.00
N821   N     0.53614   0.02137   0.76764   0.00000  Uiso   1.00
O822   O     0.51646   0.31876   0.72281   0.00000  Uiso   1.00
O823   O     0.56755   0.00778   0.80269   0.00000  Uiso   1.00
N824   N     0.96386   0.31196   0.89902   0.00000  Uiso   1.00
O825   O     0.98354   0.01457   0.94385   0.00000  Uiso   1.00
O826   O     0.93246   0.32555   0.86396   0.00000  Uiso   1.00
C827   C     0.70254   0.31854   0.76653   0.00000  Uiso   1.00
O828   O     0.67192   0.29297   0.78210   0.00000  Uiso   1.00
O829   O     0.70197   0.32462   0.70633   0.00000  Uiso   1.00
H830   H     0.67498   0.30530   0.67982   0.00000  Uiso   1.00
C831   C     0.79730   0.01482   0.90022   0.00000  Uiso   1.00
O832   O     0.82812   0.04008   0.88461   0.00000  Uiso   1.00
O833   O     0.79753   0.00920   0.96059   0.00000  Uiso   1.00
H834   H     0.82450   0.02851   0.98716   0.00000  Uiso   1.00
N835   N     0.69365   0.14239   0.98733   0.00000  Uiso   1.00
O836   O     0.66513   0.17890   0.99989   0.00000  Uiso   1.00
O837   O     0.67856   0.09408   0.96436   0.00000  Uiso   1.00
N838   N     0.80636   0.19094   0.67933   0.00000  Uiso   1.00
O839   O     0.83486   0.15443   0.66678   0.00000  Uiso   1.00
O840   O     0.82145   0.23925   0.70229   0.00000  Uiso   1.00
O841   O     0.25326   0.42871   0.87326   0.00000  Uiso   1.00
O842   O     0.24675   0.57129   0.79341   0.00000  Uiso   1.00
O843   O     0.24480   0.41892   0.76945   0.00000  Uiso   1.00
O844   O     0.25520   0.58108   0.89721   0.00000  Uiso   1.00
C845   C     0.24773   0.40013   0.81806   0.00000  Uiso   1.00
C846   C     0.25224   0.59986   0.84861   0.00000  Uiso   1.00
O847   O     0.18936   0.50488   0.88524   0.00000  Uiso   1.00
O848   O     0.31065   0.49512   0.78143   0.00000  Uiso   1.00
O849   O     0.18090   0.49510   0.78143   0.00000  Uiso   1.00
O850   O     0.31910   0.50490   0.88523   0.00000  Uiso   1.00
C851   C     0.16467   0.49991   0.83444   0.00000  Uiso   1.00
C852   C     0.33533   0.50009   0.83223   0.00000  Uiso   1.00
Cu853  Cu    0.25501   0.50579   0.89479   0.00000  Uiso   1.00
Cu854  Cu    0.24500   0.49421   0.77187   0.00000  Uiso   1.00
C855   C     0.40917   0.54688   0.85659   0.00000  Uiso   1.00
C856   C     0.09083   0.45312   0.81008   0.00000  Uiso   1.00
C857   C     0.38338   0.50074   0.82980   0.00000  Uiso   1.00
C858   C     0.11662   0.49926   0.83687   0.00000  Uiso   1.00
C859   C     0.40330   0.45487   0.80284   0.00000  Uiso   1.00
C860   C     0.09670   0.54513   0.86383   0.00000  Uiso   1.00
C861   C     0.44995   0.45411   0.80488   0.00000  Uiso   1.00
C862   C     0.05005   0.54589   0.86179   0.00000  Uiso   1.00
C863   C     0.47653   0.50060   0.83187   0.00000  Uiso   1.00
C864   C     0.02348   0.49939   0.83479   0.00000  Uiso   1.00
C865   C     0.45605   0.54817   0.85600   0.00000  Uiso   1.00
C866   C     0.04395   0.45182   0.81066   0.00000  Uiso   1.00
C867   C     0.47017   0.40711   0.78201   0.00000  Uiso   1.00
C868   C     0.02983   0.59289   0.88465   0.00000  Uiso   1.00
C869   C     0.01697   0.40495   0.78607   0.00000  Uiso   1.00
C870   C     0.48303   0.59505   0.88060   0.00000  Uiso   1.00
H871   H     0.39214   0.58107   0.87849   0.00000  Uiso   1.00
H872   H     0.10786   0.41893   0.78817   0.00000  Uiso   1.00
H873   H     0.38242   0.41939   0.78266   0.00000  Uiso   1.00
H874   H     0.11758   0.58060   0.88401   0.00000  Uiso   1.00
H875   H     0.44935   0.37144   0.76285   0.00000  Uiso   1.00
H876   H     0.05065   0.62856   0.90382   0.00000  Uiso   1.00
C877   C     0.23983   0.34474   0.81217   0.00000  Uiso   1.00
C878   C     0.26007   0.65526   0.85451   0.00000  Uiso   1.00
N879   N     0.23745   0.48547   0.67951   0.00000  Uiso   1.00
N880   N     0.26256   0.51453   0.98716   0.00000  Uiso   1.00
N881   N     0.03614   0.35470   0.76764   0.00000  Uiso   1.00
O882   O     0.01646   0.65210   0.72281   0.00000  Uiso   1.00
O883   O     0.06755   0.34112   0.80269   0.00000  Uiso   1.00
N884   N     0.46386   0.64530   0.89902   0.00000  Uiso   1.00
O885   O     0.48354   0.34790   0.94385   0.00000  Uiso   1.00
O886   O     0.43246   0.65888   0.86396   0.00000  Uiso   1.00
C887   C     0.20254   0.65188   0.76653   0.00000  Uiso   1.00
O888   O     0.17192   0.62630   0.78210   0.00000  Uiso   1.00
O889   O     0.20197   0.65795   0.70633   0.00000  Uiso   1.00
H890   H     0.17498   0.63864   0.67982   0.00000  Uiso   1.00
C891   C     0.29730   0.34816   0.90022   0.00000  Uiso   1.00
O892   O     0.32812   0.37341   0.88461   0.00000  Uiso   1.00
O893   O     0.29753   0.34253   0.96059   0.00000  Uiso   1.00
H894   H     0.32450   0.36184   0.98716   0.00000  Uiso   1.00
N895   N     0.19365   0.47572   0.98733   0.00000  Uiso   1.00
O896   O     0.16513   0.51223   0.99989   0.00000  Uiso   1.00
O897   O     0.17856   0.42741   0.96436   0.00000  Uiso   1.00
N898   N     0.30636   0.52427   0.67933   0.00000  Uiso   1.00
O899   O     0.33486   0.48776   0.66678   0.00000  Uiso   1.00
O900   O     0.32145   0.57259   0.70229   0.00000  Uiso   1.00
O901   O     0.75326   0.42871   0.87326   0.00000  Uiso   1.00
O902   O     0.74675   0.57129   0.79341   0.00000  Uiso   1.00
O903   O     0.74480   0.41892   0.76945   0.00000  Uiso   1.00
O904   O     0.75520   0.58108   0.89721   0.00000  Uiso   1.00
C905   C     0.74773   0.40013   0.81806   0.00000  Uiso   1.00
C906   C     0.75224   0.59986   0.84861   0.00000  Uiso   1.00
O907   O     0.68936   0.50488   0.88524   0.00000  Uiso   1.00
O908   O     0.81065   0.49512   0.78143   0.00000  Uiso   1.00
O909   O     0.68090   0.49510   0.78143   0.00000  Uiso   1.00
O910   O     0.81910   0.50490   0.88523   0.00000  Uiso   1.00
C911   C     0.66467   0.49991   0.83444   0.00000  Uiso   1.00
C912   C     0.83533   0.50009   0.83223   0.00000  Uiso   1.00
Cu913  Cu    0.75501   0.50579   0.89479   0.00000  Uiso   1.00
Cu914  Cu    0.74500   0.49421   0.77187   0.00000  Uiso   1.00
C915   C     0.90917   0.54688   0.85659   0.00000  Uiso   1.00
C916   C     0.59083   0.45312   0.81008   0.00000  Uiso   1.00
C917   C     0.88338   0.50074   0.82980   0.00000  Uiso   1.00
C918   C     0.61662   0.49926   0.83687   0.00000  Uiso   1.00
C919   C     0.90330   0.45487   0.80284   0.00000  Uiso   1.00
C920   C     0.59670   0.54513   0.86383   0.00000  Uiso   1.00
C921   C     0.94995   0.45411   0.80488   0.00000  Uiso   1.00
C922   C     0.55005   0.54589   0.86179   0.00000  Uiso   1.00
C923   C     0.97653   0.50060   0.83187   0.00000  Uiso   1.00
C924   C     0.52348   0.49939   0.83479   0.00000  Uiso   1.00
C925   C     0.95605   0.54817   0.85600   0.00000  Uiso   1.00
C926   C     0.54395   0.45182   0.81066   0.00000  Uiso   1.00
C927   C     0.97017   0.40711   0.78201   0.00000  Uiso   1.00
C928   C     0.52983   0.59289   0.88465   0.00000  Uiso   1.00
C929   C     0.51697   0.40495   0.78607   0.00000  Uiso   1.00
C930   C     0.98303   0.59505   0.88060   0.00000  Uiso   1.00
H931   H     0.89214   0.58107   0.87849   0.00000  Uiso   1.00
H932   H     0.60786   0.41893   0.78817   0.00000  Uiso   1.00
H933   H     0.88242   0.41939   0.78266   0.00000  Uiso   1.00
H934   H     0.61758   0.58060   0.88401   0.00000  Uiso   1.00
H935   H     0.94935   0.37144   0.76285   0.00000  Uiso   1.00
H936   H     0.55065   0.62856   0.90382   0.00000  Uiso   1.00
C937   C     0.73983   0.34474   0.81217   0.00000  Uiso   1.00
C938   C     0.76007   0.65526   0.85451   0.00000  Uiso   1.00
N939   N     0.73745   0.48547   0.67951   0.00000  Uiso   1.00
N940   N     0.76256   0.51453   0.98716   0.00000  Uiso   1.00
N941   N     0.53614   0.35470   0.76764   0.00000  Uiso   1.00
O942   O     0.51646   0.65210   0.72281   0.00000  Uiso   1.00
O943   O     0.56755   0.34112   0.80269   0.00000  Uiso   1.00
N944   N     0.96386   0.64530   0.89902   0.00000  Uiso   1.00
O945   O     0.98354   0.34790   0.94385   0.00000  Uiso   1.00
O946   O     0.93246   0.65888   0.86396   0.00000  Uiso   1.00
C947   C     0.70254   0.65188   0.76653   0.00000  Uiso   1.00
O948   O     0.67192   0.62630   0.78210   0.00000  Uiso   1.00
O949   O     0.70197   0.65795   0.70633   0.00000  Uiso   1.00
H950   H     0.67498   0.63864   0.67982   0.00000  Uiso   1.00
C951   C     0.79730   0.34816   0.90022   0.00000  Uiso   1.00
O952   O     0.82812   0.37341   0.88461   0.00000  Uiso   1.00
O953   O     0.79753   0.34253   0.96059   0.00000  Uiso   1.00
H954   H     0.82450   0.36184   0.98716   0.00000  Uiso   1.00
N955   N     0.69365   0.47572   0.98733   0.00000  Uiso   1.00
O956   O     0.66513   0.51223   0.99989   0.00000  Uiso   1.00
O957   O     0.67856   0.42741   0.96436   0.00000  Uiso   1.00
N958   N     0.80636   0.52427   0.67933   0.00000  Uiso   1.00
O959   O     0.83486   0.48776   0.66678   0.00000  Uiso   1.00
O960   O     0.82145   0.57259   0.70229   0.00000  Uiso   1.00
O961   O     0.25326   0.76204   0.87326   0.00000  Uiso   1.00
O962   O     0.24675   0.90462   0.79341   0.00000  Uiso   1.00
O963   O     0.24480   0.75226   0.76945   0.00000  Uiso   1.00
O964   O     0.25520   0.91441   0.89721   0.00000  Uiso   1.00
C965   C     0.24773   0.73347   0.81806   0.00000  Uiso   1.00
C966   C     0.25224   0.93320   0.84861   0.00000  Uiso   1.00
O967   O     0.18936   0.83821   0.88524   0.00000  Uiso   1.00
O968   O     0.31065   0.82845   0.78143   0.00000  Uiso   1.00
O969   O     0.18090   0.82843   0.78143   0.00000  Uiso   1.00
O970   O     0.31910   0.83824   0.88523   0.00000  Uiso   1.00
C971   C     0.16467   0.83324   0.83444   0.00000  Uiso   1.00
C972   C     0.33533   0.83343   0.83223   0.00000  Uiso   1.00
Cu973  Cu    0.25501   0.83913   0.89479   0.00000  Uiso   1.00
Cu974  Cu    0.24500   0.82754   0.77187   0.00000  Uiso   1.00
C975   C     0.40917   0.88021   0.85659   0.00000  Uiso   1.00
C976   C     0.09083   0.78646   0.81008   0.00000  Uiso   1.00
C977   C     0.38338   0.83407   0.82980   0.00000  Uiso   1.00
C978   C     0.11662   0.83260   0.83687   0.00000  Uiso   1.00
C979   C     0.40330   0.78820   0.80284   0.00000  Uiso   1.00
C980   C     0.09670   0.87846   0.86383   0.00000  Uiso   1.00
C981   C     0.44995   0.78744   0.80488   0.00000  Uiso   1.00
C982   C     0.05005   0.87922   0.86179   0.00000  Uiso   1.00
C983   C     0.47653   0.83394   0.83187   0.00000  Uiso   1.00
C984   C     0.02348   0.83273   0.83479   0.00000  Uiso   1.00
C985   C     0.45605   0.88151   0.85600   0.00000  Uiso   1.00
C986   C     0.04395   0.78516   0.81066   0.00000  Uiso   1.00
C987   C     0.47017   0.74044   0.78201   0.00000  Uiso   1.00
C988   C     0.02983   0.92622   0.88465   0.00000  Uiso   1.00
C989   C     0.01697   0.73828   0.78607   0.00000  Uiso   1.00
C990   C     0.48303   0.92839   0.88060   0.00000  Uiso   1.00
H991   H     0.39214   0.91440   0.87849   0.00000  Uiso   1.00
H992   H     0.10786   0.75226   0.78817   0.00000  Uiso   1.00
H993   H     0.38242   0.75273   0.78266   0.00000  Uiso   1.00
H994   H     0.11758   0.91394   0.88401   0.00000  Uiso   1.00
H995   H     0.44935   0.70477   0.76285   0.00000  Uiso   1.00
H996   H     0.05065   0.96190   0.90382   0.00000  Uiso   1.00
C997   C     0.23983   0.67807   0.81217   0.00000  Uiso   1.00
C998   C     0.26007   0.98860   0.85451   0.00000  Uiso   1.00
N999   N     0.23745   0.81881   0.67951   0.00000  Uiso   1.00
N1000  N     0.26256   0.84786   0.98716   0.00000  Uiso   1.00
N1001  N     0.03614   0.68803   0.76764   0.00000  Uiso   1.00
O1002  O     0.01646   0.98543   0.72281   0.00000  Uiso   1.00
O1003  O     0.06755   0.67445   0.80269   0.00000  Uiso   1.00
N1004  N     0.46386   0.97863   0.89902   0.00000  Uiso   1.00
O1005  O     0.48354   0.68123   0.94385   0.00000  Uiso   1.00
O1006  O     0.43246   0.99221   0.86396   0.00000  Uiso   1.00
C1007  C     0.20254   0.98521   0.76653   0.00000  Uiso   1.00
O1008  O     0.17192   0.95963   0.78210   0.00000  Uiso   1.00
O1009  O     0.20197   0.99129   0.70633   0.00000  Uiso   1.00
H1010  H     0.17498   0.97197   0.67982   0.00000  Uiso   1.00
C1011  C     0.29730   0.68149   0.90022   0.00000  Uiso   1.00
O1012  O     0.32812   0.70675   0.88461   0.00000  Uiso   1.00
O1013  O     0.29753   0.67586   0.96059   0.00000  Uiso   1.00
H1014  H     0.32450   0.69518   0.98716   0.00000  Uiso   1.00
N1015  N     0.19365   0.80906   0.98733   0.00000  Uiso   1.00
O1016  O     0.16513   0.84556   0.99989   0.00000  Uiso   1.00
O1017  O     0.17856   0.76074   0.96436   0.00000  Uiso   1.00
N1018  N     0.30636   0.85761   0.67933   0.00000  Uiso   1.00
O1019  O     0.33486   0.82110   0.66678   0.00000  Uiso   1.00
O1020  O     0.32145   0.90592   0.70229   0.00000  Uiso   1.00
O1021  O     0.75326   0.76204   0.87326   0.00000  Uiso   1.00
O1022  O     0.74675   0.90462   0.79341   0.00000  Uiso   1.00
O1023  O     0.74480   0.75226   0.76945   0.00000  Uiso   1.00
O1024  O     0.75520   0.91441   0.89721   0.00000  Uiso   1.00
C1025  C     0.74773   0.73347   0.81806   0.00000  Uiso   1.00
C1026  C     0.75224   0.93320   0.84861   0.00000  Uiso   1.00
O1027  O     0.68936   0.83821   0.88524   0.00000  Uiso   1.00
O1028  O     0.81065   0.82845   0.78143   0.00000  Uiso   1.00
O1029  O     0.68090   0.82843   0.78143   0.00000  Uiso   1.00
O1030  O     0.81910   0.83824   0.88523   0.00000  Uiso   1.00
C1031  C     0.66467   0.83324   0.83444   0.00000  Uiso   1.00
C1032  C     0.83533   0.83343   0.83223   0.00000  Uiso   1.00
Cu1033 Cu    0.75501   0.83913   0.89479   0.00000  Uiso   1.00
Cu1034 Cu    0.74500   0.82754   0.77187   0.00000  Uiso   1.00
C1035  C     0.90917   0.88021   0.85659   0.00000  Uiso   1.00
C1036  C     0.59083   0.78646   0.81008   0.00000  Uiso   1.00
C1037  C     0.88338   0.83407   0.82980   0.00000  Uiso   1.00
C1038  C     0.61662   0.83260   0.83687   0.00000  Uiso   1.00
C1039  C     0.90330   0.78820   0.80284   0.00000  Uiso   1.00
C1040  C     0.59670   0.87846   0.86383   0.00000  Uiso   1.00
C1041  C     0.94995   0.78744   0.80488   0.00000  Uiso   1.00
C1042  C     0.55005   0.87922   0.86179   0.00000  Uiso   1.00
C1043  C     0.97653   0.83394   0.83187   0.00000  Uiso   1.00
C1044  C     0.52348   0.83273   0.83479   0.00000  Uiso   1.00
C1045  C     0.95605   0.88151   0.85600   0.00000  Uiso   1.00
C1046  C     0.54395   0.78516   0.81066   0.00000  Uiso   1.00
C1047  C     0.97017   0.74044   0.78201   0.00000  Uiso   1.00
C1048  C     0.52983   0.92622   0.88465   0.00000  Uiso   1.00
C1049  C     0.51697   0.73828   0.78607   0.00000  Uiso   1.00
C1050  C     0.98303   0.92839   0.88060   0.00000  Uiso   1.00
H1051  H     0.89214   0.91440   0.87849   0.00000  Uiso   1.00
H1052  H     0.60786   0.75226   0.78817   0.00000  Uiso   1.00
H1053  H     0.88242   0.75273   0.78266   0.00000  Uiso   1.00
H1054  H     0.61758   0.91394   0.88401   0.00000  Uiso   1.00
H1055  H     0.94935   0.70477   0.76285   0.00000  Uiso   1.00
H1056  H     0.55065   0.96190   0.90382   0.00000  Uiso   1.00
C1057  C     0.73983   0.67807   0.81217   0.00000  Uiso   1.00
C1058  C     0.76007   0.98860   0.85451   0.00000  Uiso   1.00
N1059  N     0.73745   0.81881   0.67951   0.00000  Uiso   1.00
N1060  N     0.76256   0.84786   0.98716   0.00000  Uiso   1.00
N1061  N     0.53614   0.68803   0.76764   0.00000  Uiso   1.00
O1062  O     0.51646   0.98543   0.72281   0.00000  Uiso   1.00
O1063  O     0.56755   0.67445   0.80269   0.00000  Uiso   1.00
N1064  N     0.96386   0.97863   0.89902   0.00000  Uiso   1.00
O1065  O     0.98354   0.68123   0.94385   0.00000  Uiso   1.00
O1066  O     0.93246   0.99221   0.86396   0.00000  Uiso   1.00
C1067  C     0.70254   0.98521   0.76653   0.00000  Uiso   1.00
O1068  O     0.67192   0.95963   0.78210   0.00000  Uiso   1.00
O1069  O     0.70197   0.99129   0.70633   0.00000  Uiso   1.00
H1070  H     0.67498   0.97197   0.67982   0.00000  Uiso   1.00
C1071  C     0.79730   0.68149   0.90022   0.00000  Uiso   1.00
O1072  O     0.82812   0.70675   0.88461   0.00000  Uiso   1.00
O1073  O     0.79753   0.67586   0.96059   0.00000  Uiso   1.00
H1074  H     0.82450   0.69518   0.98716   0.00000  Uiso   1.00
N1075  N     0.69365   0.80906   0.98733   0.00000  Uiso   1.00
O1076  O     0.66513   0.84556   0.99989   0.00000  Uiso   1.00
O1077  O     0.67856   0.76074   0.96436   0.00000  Uiso   1.00
N1078  N     0.80636   0.85761   0.67933   0.00000  Uiso   1.00
O1079  O     0.83486   0.82110   0.66678   0.00000  Uiso   1.00
O1080  O     0.82145   0.90592   0.70229   0.00000  Uiso   1.00
loop_
_geom_bond_atom_site_label_1
_geom_bond_atom_site_label_2
_geom_bond_distance
_geom_bond_site_symmetry_2
_ccdc_geom_bond_type
O1     C5      1.292   .     A
O1     Cu13    1.961   .     S
O2     C6      1.292   .     A
O2     Cu14    1.961   .     S
O3     Cu14    1.957   .     S
O3     C5      1.297   .     A
O4     C6      1.297   .     A
O4     Cu13    1.957   .     S
C5     C37     1.432   .     S
C6     C38     1.432   .     S
O7     C11     1.299   .     A
O7     Cu13    1.957   .     S
O8     C12     1.299   .     A
O8     Cu14    1.957   .     S
O9     Cu14    1.939   .     S
O9     C11     1.297   .     A
O10    C12     1.297   .     A
O10    Cu13    1.939   .     S
C11    C18     1.438   .     S
C12    C17     1.438   .     S
Cu13   N40     2.036   .     S
Cu13   Cu14    2.709   .     S
Cu14   N39     2.036   .     S
C15    H31     1.082   .     S
C15    C25     1.399   .     A
C15    C17     1.394   .     A
C16    H32     1.082   .     S
C16    C18     1.394   .     A
C16    C26     1.399   .     A
C17    C19     1.392   .     A
C18    C20     1.392   .     A
C19    C21     1.392   .     A
C19    H33     1.085   .     S
C20    H34     1.085   .     S
C20    C22     1.392   .     A
C21    C27     1.399   .     A
C21    C23     1.413   .     A
C22    C28     1.399   .     A
C22    C24     1.413   .     A
C23    C25     1.420   .     A
C23    C84     1.401   .     S
C24    C26     1.420   .     A
C24    C83     1.401   1_455 S
C25    C30     1.417   .     A
C26    C29     1.417   .     A
C27    H35     1.084   .     S
C27    C89     1.399   .     S
C28    H36     1.084   .     S
C28    C90     1.399   1_455 S
C29    N41     1.440   .     S
C29    C87     1.399   1_455 S
C30    N44     1.440   .     S
C30    C88     1.399   .     S
C37    C278    1.359   1_545 S
C37    C287    1.495   1_545 S
C38    C157    1.359   .     S
C38    C171    1.495   .     S
N39    N760    1.295   1_554 S
N39    N775    1.384   1_554 S
N40    N399    1.295   .     S
N40    N418    1.384   .     S
N41    O43     1.301   .     A
N41    O282    1.301   1_545 S
O42    N161    1.301   .     S
N44    O46     1.301   .     A
N44    O165    1.301   .     S
O45    N284    1.301   1_545 S
C47    O48     1.224   .     D
C47    O49     1.399   .     S
C47    C157    1.495   .     S
O49    H50     1.014   .     S
C51    O53     1.399   .     S
C51    O52     1.224   .     D
C51    C278    1.495   1_545 S
O53    H54     1.014   .     S
N55    O56     1.302   .     A
N55    O57     1.300   .     A
N55    N399    1.384   .     S
N58    O60     1.300   .     A
N58    O59     1.302   .     A
N58    N760    1.384   1_554 S
O61    C65     1.292   .     A
O61    Cu73    1.961   .     S
O62    C66     1.292   .     A
O62    Cu74    1.961   .     S
O63    Cu74    1.957   .     S
O63    C65     1.297   .     A
O64    C66     1.297   .     A
O64    Cu73    1.957   .     S
C65    C97     1.432   .     S
C66    C98     1.432   .     S
O67    C71     1.299   .     A
O67    Cu73    1.957   .     S
O68    C72     1.299   .     A
O68    Cu74    1.957   .     S
O69    Cu74    1.939   .     S
O69    C71     1.297   .     A
O70    C72     1.297   .     A
O70    Cu73    1.939   .     S
C71    C78     1.438   .     S
C72    C77     1.438   .     S
Cu73   N100    2.036   .     S
Cu73   Cu74    2.709   .     S
Cu74   N99     2.036   .     S
C75    H91     1.082   .     S
C75    C85     1.399   .     A
C75    C77     1.394   .     A
C76    H92     1.082   .     S
C76    C78     1.394   .     A
C76    C86     1.399   .     A
C77    C79     1.392   .     A
C78    C80     1.392   .     A
C79    C81     1.392   .     A
C79    H93     1.085   .     S
C80    H94     1.085   .     S
C80    C82     1.392   .     A
C81    C87     1.399   .     A
C81    C83     1.413   .     A
C82    C88     1.399   .     A
C82    C84     1.413   .     A
C83    C85     1.420   .     A
C83    C24     1.401   1_655 S
C84    C86     1.420   .     A
C85    C90     1.417   .     A
C86    C89     1.417   .     A
C87    H95     1.084   .     S
C87    C29     1.399   1_655 S
C88    H96     1.084   .     S
C89    N101    1.440   .     S
C90    N104    1.440   .     S
C90    C28     1.399   1_655 S
C97    C338    1.359   1_545 S
C97    C347    1.495   1_545 S
C98    C217    1.359   .     S
C98    C231    1.495   .     S
N99    N820    1.295   1_554 S
N99    N835    1.384   1_554 S
N100   N459    1.295   .     S
N100   N478    1.384   .     S
N101   O103    1.301   .     A
N101   O342    1.301   1_545 S
O102   N221    1.301   .     S
N104   O106    1.301   .     A
N104   O225    1.301   .     S
O105   N344    1.301   1_545 S
C107   O108    1.224   .     D
C107   O109    1.399   .     S
C107   C217    1.495   .     S
O109   H110    1.014   .     S
C111   O113    1.399   .     S
C111   O112    1.224   .     D
C111   C338    1.495   1_545 S
O113   H114    1.014   .     S
N115   O116    1.302   .     A
N115   O117    1.300   .     A
N115   N459    1.384   .     S
N118   O120    1.300   .     A
N118   O119    1.302   .     A
N118   N820    1.384   1_554 S
O121   C125    1.292   .     A
O121   Cu133   1.961   .     S
O122   C126    1.292   .     A
O122   Cu134   1.961   .     S
O123   Cu134   1.957   .     S
O123   C125    1.297   .     A
O124   C126    1.297   .     A
O124   Cu133   1.957   .     S
C125   C157    1.432   .     S
C126   C158    1.432   .     S
O127   C131    1.299   .     A
O127   Cu133   1.957   .     S
O128   C132    1.299   .     A
O128   Cu134   1.957   .     S
O129   Cu134   1.939   .     S
O129   C131    1.297   .     A
O130   C132    1.297   .     A
O130   Cu133   1.939   .     S
C131   C138    1.438   .     S
C132   C137    1.438   .     S
Cu133  N160    2.036   .     S
Cu133  Cu134   2.709   .     S
Cu134  N159    2.036   .     S
C135   H151    1.082   .     S
C135   C145    1.399   .     A
C135   C137    1.394   .     A
C136   H152    1.082   .     S
C136   C138    1.394   .     A
C136   C146    1.399   .     A
C137   C139    1.392   .     A
C138   C140    1.392   .     A
C139   C141    1.392   .     A
C139   H153    1.085   .     S
C140   H154    1.085   .     S
C140   C142    1.392   .     A
C141   C147    1.399   .     A
C141   C143    1.413   .     A
C142   C148    1.399   .     A
C142   C144    1.413   .     A
C143   C145    1.420   .     A
C143   C204    1.401   .     S
C144   C146    1.420   .     A
C144   C203    1.401   1_455 S
C145   C150    1.417   .     A
C146   C149    1.417   .     A
C147   H155    1.084   .     S
C147   C209    1.399   .     S
C148   H156    1.084   .     S
C148   C210    1.399   1_455 S
C149   N161    1.440   .     S
C149   C207    1.399   1_455 S
C150   N164    1.440   .     S
C150   C208    1.399   .     S
C158   C277    1.359   .     S
C158   C291    1.495   .     S
N159   N880    1.295   1_554 S
N159   N895    1.384   1_554 S
N160   N519    1.295   .     S
N160   N538    1.384   .     S
N161   O163    1.301   .     A
O162   N281    1.301   .     S
N164   O166    1.301   .     A
N164   O285    1.301   .     S
C167   O168    1.224   .     D
C167   O169    1.399   .     S
C167   C277    1.495   .     S
O169   H170    1.014   .     S
C171   O173    1.399   .     S
C171   O172    1.224   .     D
O173   H174    1.014   .     S
N175   O176    1.302   .     A
N175   O177    1.300   .     A
N175   N519    1.384   .     S
N178   O180    1.300   .     A
N178   O179    1.302   .     A
N178   N880    1.384   1_554 S
O181   C185    1.292   .     A
O181   Cu193   1.961   .     S
O182   C186    1.292   .     A
O182   Cu194   1.961   .     S
O183   Cu194   1.957   .     S
O183   C185    1.297   .     A
O184   C186    1.297   .     A
O184   Cu193   1.957   .     S
C185   C217    1.432   .     S
C186   C218    1.432   .     S
O187   C191    1.299   .     A
O187   Cu193   1.957   .     S
O188   C192    1.299   .     A
O188   Cu194   1.957   .     S
O189   Cu194   1.939   .     S
O189   C191    1.297   .     A
O190   C192    1.297   .     A
O190   Cu193   1.939   .     S
C191   C198    1.438   .     S
C192   C197    1.438   .     S
Cu193  N220    2.036   .     S
Cu193  Cu194   2.709   .     S
Cu194  N219    2.036   .     S
C195   H211    1.082   .     S
C195   C205    1.399   .     A
C195   C197    1.394   .     A
C196   H212    1.082   .     S
C196   C198    1.394   .     A
C196   C206    1.399   .     A
C197   C199    1.392   .     A
C198   C200    1.392   .     A
C199   C201    1.392   .     A
C199   H213    1.085   .     S
C200   H214    1.085   .     S
C200   C202    1.392   .     A
C201   C207    1.399   .     A
C201   C203    1.413   .     A
C202   C208    1.399   .     A
C202   C204    1.413   .     A
C203   C205    1.420   .     A
C203   C144    1.401   1_655 S
C204   C206    1.420   .     A
C205   C210    1.417   .     A
C206   C209    1.417   .     A
C207   H215    1.084   .     S
C207   C149    1.399   1_655 S
C208   H216    1.084   .     S
C209   N221    1.440   .     S
C210   N224    1.440   .     S
C210   C148    1.399   1_655 S
C218   C337    1.359   .     S
C218   C351    1.495   .     S
N219   N940    1.295   1_554 S
N219   N955    1.384   1_554 S
N220   N579    1.295   .     S
N220   N598    1.384   .     S
N221   O223    1.301   .     A
O222   N341    1.301   .     S
N224   O226    1.301   .     A
N224   O345    1.301   .     S
C227   O228    1.224   .     D
C227   O229    1.399   .     S
C227   C337    1.495   .     S
O229   H230    1.014   .     S
C231   O233    1.399   .     S
C231   O232    1.224   .     D
O233   H234    1.014   .     S
N235   O236    1.302   .     A
N235   O237    1.300   .     A
N235   N579    1.384   .     S
N238   O240    1.300   .     A
N238   O239    1.302   .     A
N238   N940    1.384   1_554 S
O241   C245    1.292   .     A
O241   Cu253   1.961   .     S
O242   C246    1.292   .     A
O242   Cu254   1.961   .     S
O243   Cu254   1.957   .     S
O243   C245    1.297   .     A
O244   C246    1.297   .     A
O244   Cu253   1.957   .     S
C245   C277    1.432   .     S
C246   C278    1.432   .     S
O247   C251    1.299   .     A
O247   Cu253   1.957   .     S
O248   C252    1.299   .     A
O248   Cu254   1.957   .     S
O249   Cu254   1.939   .     S
O249   C251    1.297   .     A
O250   C252    1.297   .     A
O250   Cu253   1.939   .     S
C251   C258    1.438   .     S
C252   C257    1.438   .     S
Cu253  N280    2.036   .     S
Cu253  Cu254   2.709   .     S
Cu254  N279    2.036   .     S
C255   H271    1.082   .     S
C255   C265    1.399   .     A
C255   C257    1.394   .     A
C256   H272    1.082   .     S
C256   C258    1.394   .     A
C256   C266    1.399   .     A
C257   C259    1.392   .     A
C258   C260    1.392   .     A
C259   C261    1.392   .     A
C259   H273    1.085   .     S
C260   H274    1.085   .     S
C260   C262    1.392   .     A
C261   C267    1.399   .     A
C261   C263    1.413   .     A
C262   C268    1.399   .     A
C262   C264    1.413   .     A
C263   C265    1.420   .     A
C263   C324    1.401   .     S
C264   C266    1.420   .     A
C264   C323    1.401   1_455 S
C265   C270    1.417   .     A
C266   C269    1.417   .     A
C267   H275    1.084   .     S
C267   C329    1.399   .     S
C268   H276    1.084   .     S
C268   C330    1.399   1_455 S
C269   N281    1.440   .     S
C269   C327    1.399   1_455 S
C270   N284    1.440   .     S
C270   C328    1.399   .     S
C278   C37     1.359   1_565 S
C278   C51     1.495   1_565 S
N279   N1000   1.295   1_554 S
N279   N1015   1.384   1_554 S
N280   N639    1.295   .     S
N280   N658    1.384   .     S
N281   O283    1.301   .     A
O282   N41     1.301   1_565 S
N284   O286    1.301   .     A
N284   O45     1.301   1_565 S
C287   O288    1.224   .     D
C287   O289    1.399   .     S
C287   C37     1.495   1_565 S
O289   H290    1.014   .     S
C291   O293    1.399   .     S
C291   O292    1.224   .     D
O293   H294    1.014   .     S
N295   O296    1.302   .     A
N295   O297    1.300   .     A
N295   N639    1.384   .     S
N298   O300    1.300   .     A
N298   O299    1.302   .     A
N298   N1000   1.384   1_554 S
O301   C305    1.292   .     A
O301   Cu313   1.961   .     S
O302   C306    1.292   .     A
O302   Cu314   1.961   .     S
O303   Cu314   1.957   .     S
O303   C305    1.297   .     A
O304   C306    1.297   .     A
O304   Cu313   1.957   .     S
C305   C337    1.432   .     S
C306   C338    1.432   .     S
O307   C311    1.299   .     A
O307   Cu313   1.957   .     S
O308   C312    1.299   .     A
O308   Cu314   1.957   .     S
O309   Cu314   1.939   .     S
O309   C311    1.297   .     A
O310   C312    1.297   .     A
O310   Cu313   1.939   .     S
C311   C318    1.438   .     S
C312   C317    1.438   .     S
Cu313  N340    2.036   .     S
Cu313  Cu314   2.709   .     S
Cu314  N339    2.036   .     S
C315   H331    1.082   .     S
C315   C325    1.399   .     A
C315   C317    1.394   .     A
C316   H332    1.082   .     S
C316   C318    1.394   .     A
C316   C326    1.399   .     A
C317   C319    1.392   .     A
C318   C320    1.392   .     A
C319   C321    1.392   .     A
C319   H333    1.085   .     S
C320   H334    1.085   .     S
C320   C322    1.392   .     A
C321   C327    1.399   .     A
C321   C323    1.413   .     A
C322   C328    1.399   .     A
C322   C324    1.413   .     A
C323   C325    1.420   .     A
C323   C264    1.401   1_655 S
C324   C326    1.420   .     A
C325   C330    1.417   .     A
C326   C329    1.417   .     A
C327   H335    1.084   .     S
C327   C269    1.399   1_655 S
C328   H336    1.084   .     S
C329   N341    1.440   .     S
C330   N344    1.440   .     S
C330   C268    1.399   1_655 S
C338   C97     1.359   1_565 S
C338   C111    1.495   1_565 S
N339   N1060   1.295   1_554 S
N339   N1075   1.384   1_554 S
N340   N699    1.295   .     S
N340   N718    1.384   .     S
N341   O343    1.301   .     A
O342   N101    1.301   1_565 S
N344   O346    1.301   .     A
N344   O105    1.301   1_565 S
C347   O348    1.224   .     D
C347   O349    1.399   .     S
C347   C97     1.495   1_565 S
O349   H350    1.014   .     S
C351   O353    1.399   .     S
C351   O352    1.224   .     D
O353   H354    1.014   .     S
N355   O356    1.302   .     A
N355   O357    1.300   .     A
N355   N699    1.384   .     S
N358   O360    1.300   .     A
N358   O359    1.302   .     A
N358   N1060   1.384   1_554 S
O361   C365    1.292   .     A
O361   Cu373   1.961   .     S
O362   C366    1.292   .     A
O362   Cu374   1.961   .     S
O363   Cu374   1.957   .     S
O363   C365    1.297   .     A
O364   C366    1.297   .     A
O364   Cu373   1.957   .     S
C365   C397    1.432   .     S
C366   C398    1.432   .     S
O367   C371    1.299   .     A
O367   Cu373   1.957   .     S
O368   C372    1.299   .     A
O368   Cu374   1.957   .     S
O369   Cu374   1.939   .     S
O369   C371    1.297   .     A
O370   C372    1.297   .     A
O370   Cu373   1.939   .     S
C371   C378    1.438   .     S
C372   C377    1.438   .     S
Cu373  N400    2.036   .     S
Cu373  Cu374   2.709   .     S
Cu374  N399    2.036   .     S
C375   H391    1.082   .     S
C375   C385    1.399   .     A
C375   C377    1.394   .     A
C376   H392    1.082   .     S
C376   C378    1.394   .     A
C376   C386    1.399   .     A
C377   C379    1.392   .     A
C378   C380    1.392   .     A
C379   C381    1.392   .     A
C379   H393    1.085   .     S
C380   H394    1.085   .     S
C380   C382    1.392   .     A
C381   C387    1.399   .     A
C381   C383    1.413   .     A
C382   C388    1.399   .     A
C382   C384    1.413   .     A
C383   C385    1.420   .     A
C383   C444    1.401   .     S
C384   C386    1.420   .     A
C384   C443    1.401   1_455 S
C385   C390    1.417   .     A
C386   C389    1.417   .     A
C387   H395    1.084   .     S
C387   C449    1.399   .     S
C388   H396    1.084   .     S
C388   C450    1.399   1_455 S
C389   N401    1.440   .     S
C389   C447    1.399   1_455 S
C390   N404    1.440   .     S
C390   C448    1.399   .     S
C397   C638    1.359   1_545 S
C397   C647    1.495   1_545 S
C398   C517    1.359   .     S
C398   C531    1.495   .     S
N400   N759    1.295   .     S
N400   N778    1.384   .     S
N401   O403    1.301   .     A
N401   O642    1.301   1_545 S
O402   N521    1.301   .     S
N404   O406    1.301   .     A
N404   O525    1.301   .     S
O405   N644    1.301   1_545 S
C407   O408    1.224   .     D
C407   O409    1.399   .     S
C407   C517    1.495   .     S
O409   H410    1.014   .     S
C411   O413    1.399   .     S
C411   O412    1.224   .     D
C411   C638    1.495   1_545 S
O413   H414    1.014   .     S
N415   O416    1.302   .     A
N415   O417    1.300   .     A
N415   N759    1.384   .     S
N418   O420    1.300   .     A
N418   O419    1.302   .     A
O421   C425    1.292   .     A
O421   Cu433   1.961   .     S
O422   C426    1.292   .     A
O422   Cu434   1.961   .     S
O423   Cu434   1.957   .     S
O423   C425    1.297   .     A
O424   C426    1.297   .     A
O424   Cu433   1.957   .     S
C425   C457    1.432   .     S
C426   C458    1.432   .     S
O427   C431    1.299   .     A
O427   Cu433   1.957   .     S
O428   C432    1.299   .     A
O428   Cu434   1.957   .     S
O429   Cu434   1.939   .     S
O429   C431    1.297   .     A
O430   C432    1.297   .     A
O430   Cu433   1.939   .     S
C431   C438    1.438   .     S
C432   C437    1.438   .     S
Cu433  N460    2.036   .     S
Cu433  Cu434   2.709   .     S
Cu434  N459    2.036   .     S
C435   H451    1.082   .     S
C435   C445    1.399   .     A
C435   C437    1.394   .     A
C436   H452    1.082   .     S
C436   C438    1.394   .     A
C436   C446    1.399   .     A
C437   C439    1.392   .     A
C438   C440    1.392   .     A
C439   C441    1.392   .     A
C439   H453    1.085   .     S
C440   H454    1.085   .     S
C440   C442    1.392   .     A
C441   C447    1.399   .     A
C441   C443    1.413   .     A
C442   C448    1.399   .     A
C442   C444    1.413   .     A
C443   C445    1.420   .     A
C443   C384    1.401   1_655 S
C444   C446    1.420   .     A
C445   C450    1.417   .     A
C446   C449    1.417   .     A
C447   H455    1.084   .     S
C447   C389    1.399   1_655 S
C448   H456    1.084   .     S
C449   N461    1.440   .     S
C450   N464    1.440   .     S
C450   C388    1.399   1_655 S
C457   C698    1.359   1_545 S
C457   C707    1.495   1_545 S
C458   C577    1.359   .     S
C458   C591    1.495   .     S
N460   N819    1.295   .     S
N460   N838    1.384   .     S
N461   O463    1.301   .     A
N461   O702    1.301   1_545 S
O462   N581    1.301   .     S
N464   O466    1.301   .     A
N464   O585    1.301   .     S
O465   N704    1.301   1_545 S
C467   O468    1.224   .     D
C467   O469    1.399   .     S
C467   C577    1.495   .     S
O469   H470    1.014   .     S
C471   O473    1.399   .     S
C471   O472    1.224   .     D
C471   C698    1.495   1_545 S
O473   H474    1.014   .     S
N475   O476    1.302   .     A
N475   O477    1.300   .     A
N475   N819    1.384   .     S
N478   O480    1.300   .     A
N478   O479    1.302   .     A
O481   C485    1.292   .     A
O481   Cu493   1.961   .     S
O482   C486    1.292   .     A
O482   Cu494   1.961   .     S
O483   Cu494   1.957   .     S
O483   C485    1.297   .     A
O484   C486    1.297   .     A
O484   Cu493   1.957   .     S
C485   C517    1.432   .     S
C486   C518    1.432   .     S
O487   C491    1.299   .     A
O487   Cu493   1.957   .     S
O488   C492    1.299   .     A
O488   Cu494   1.957   .     S
O489   Cu494   1.939   .     S
O489   C491    1.297   .     A
O490   C492    1.297   .     A
O490   Cu493   1.939   .     S
C491   C498    1.438   .     S
C492   C497    1.438   .     S
Cu493  N520    2.036   .     S
Cu493  Cu494   2.709   .     S
Cu494  N519    2.036   .     S
C495   H511    1.082   .     S
C495   C505    1.399   .     A
C495   C497    1.394   .     A
C496   H512    1.082   .     S
C496   C498    1.394   .     A
C496   C506    1.399   .     A
C497   C499    1.392   .     A
C498   C500    1.392   .     A
C499   C501    1.392   .     A
C499   H513    1.085   .     S
C500   H514    1.085   .     S
C500   C502    1.392   .     A
C501   C507    1.399   .     A
C501   C503    1.413   .     A
C502   C508    1.399   .     A
C502   C504    1.413   .     A
C503   C505    1.420   .     A
C503   C564    1.401   .     S
C504   C506    1.420   .     A
C504   C563    1.401   1_455 S
C505   C510    1.417   .     A
C506   C509    1.417   .     A
C507   H515    1.084   .     S
C507   C569    1.399   .     S
C508   H516    1.084   .     S
C508   C570    1.399   1_455 S
C509   N521    1.440   .     S
C509   C567    1.399   1_455 S
C510   N524    1.440   .     S
C510   C568    1.399   .     S
C518   C637    1.359   .     S
C518   C651    1.495   .     S
N520   N879    1.295   .     S
N520   N898    1.384   .     S
N521   O523    1.301   .     A
O522   N641    1.301   .     S
N524   O526    1.301   .     A
N524   O645    1.301   .     S
C527   O528    1.224   .     D
C527   O529    1.399   .     S
C527   C637    1.495   .     S
O529   H530    1.014   .     S
C531   O533    1.399   .     S
C531   O532    1.224   .     D
O533   H534    1.014   .     S
N535   O536    1.302   .     A
N535   O537    1.300   .     A
N535   N879    1.384   .     S
N538   O540    1.300   .     A
N538   O539    1.302   .     A
O541   C545    1.292   .     A
O541   Cu553   1.961   .     S
O542   C546    1.292   .     A
O542   Cu554   1.961   .     S
O543   Cu554   1.957   .     S
O543   C545    1.297   .     A
O544   C546    1.297   .     A
O544   Cu553   1.957   .     S
C545   C577    1.432   .     S
C546   C578    1.432   .     S
O547   C551    1.299   .     A
O547   Cu553   1.957   .     S
O548   C552    1.299   .     A
O548   Cu554   1.957   .     S
O549   Cu554   1.939   .     S
O549   C551    1.297   .     A
O550   C552    1.297   .     A
O550   Cu553   1.939   .     S
C551   C558    1.438   .     S
C552   C557    1.438   .     S
Cu553  N580    2.036   .     S
Cu553  Cu554   2.709   .     S
Cu554  N579    2.036   .     S
C555   H571    1.082   .     S
C555   C565    1.399   .     A
C555   C557    1.394   .     A
C556   H572    1.082   .     S
C556   C558    1.394   .     A
C556   C566    1.399   .     A
C557   C559    1.392   .     A
C558   C560    1.392   .     A
C559   C561    1.392   .     A
C559   H573    1.085   .     S
C560   H574    1.085   .     S
C560   C562    1.392   .     A
C561   C567    1.399   .     A
C561   C563    1.413   .     A
C562   C568    1.399   .     A
C562   C564    1.413   .     A
C563   C565    1.420   .     A
C563   C504    1.401   1_655 S
C564   C566    1.420   .     A
C565   C570    1.417   .     A
C566   C569    1.417   .     A
C567   H575    1.084   .     S
C567   C509    1.399   1_655 S
C568   H576    1.084   .     S
C569   N581    1.440   .     S
C570   N584    1.440   .     S
C570   C508    1.399   1_655 S
C578   C697    1.359   .     S
C578   C711    1.495   .     S
N580   N939    1.295   .     S
N580   N958    1.384   .     S
N581   O583    1.301   .     A
O582   N701    1.301   .     S
N584   O586    1.301   .     A
N584   O705    1.301   .     S
C587   O588    1.224   .     D
C587   O589    1.399   .     S
C587   C697    1.495   .     S
O589   H590    1.014   .     S
C591   O593    1.399   .     S
C591   O592    1.224   .     D
O593   H594    1.014   .     S
N595   O596    1.302   .     A
N595   O597    1.300   .     A
N595   N939    1.384   .     S
N598   O600    1.300   .     A
N598   O599    1.302   .     A
O601   C605    1.292   .     A
O601   Cu613   1.961   .     S
O602   C606    1.292   .     A
O602   Cu614   1.961   .     S
O603   Cu614   1.957   .     S
O603   C605    1.297   .     A
O604   C606    1.297   .     A
O604   Cu613   1.957   .     S
C605   C637    1.432   .     S
C606   C638    1.432   .     S
O607   C611    1.299   .     A
O607   Cu613   1.957   .     S
O608   C612    1.299   .     A
O608   Cu614   1.957   .     S
O609   Cu614   1.939   .     S
O609   C611    1.297   .     A
O610   C612    1.297   .     A
O610   Cu613   1.939   .     S
C611   C618    1.438   .     S
C612   C617    1.438   .     S
Cu613  N640    2.036   .     S
Cu613  Cu614   2.709   .     S
Cu614  N639    2.036   .     S
C615   H631    1.082   .     S
C615   C625    1.399   .     A
C615   C617    1.394   .     A
C616   H632    1.082   .     S
C616   C618    1.394   .     A
C616   C626    1.399   .     A
C617   C619    1.392   .     A
C618   C620    1.392   .     A
C619   C621    1.392   .     A
C619   H633    1.085   .     S
C620   H634    1.085   .     S
C620   C622    1.392   .     A
C621   C627    1.399   .     A
C621   C623    1.413   .     A
C622   C628    1.399   .     A
C622   C624    1.413   .     A
C623   C625    1.420   .     A
C623   C684    1.401   .     S
C624   C626    1.420   .     A
C624   C683    1.401   1_455 S
C625   C630    1.417   .     A
C626   C629    1.417   .     A
C627   H635    1.084   .     S
C627   C689    1.399   .     S
C628   H636    1.084   .     S
C628   C690    1.399   1_455 S
C629   N641    1.440   .     S
C629   C687    1.399   1_455 S
C630   N644    1.440   .     S
C630   C688    1.399   .     S
C638   C397    1.359   1_565 S
C638   C411    1.495   1_565 S
N640   N999    1.295   .     S
N640   N1018   1.384   .     S
N641   O643    1.301   .     A
O642   N401    1.301   1_565 S
N644   O646    1.301   .     A
N644   O405    1.301   1_565 S
C647   O648    1.224   .     D
C647   O649    1.399   .     S
C647   C397    1.495   1_565 S
O649   H650    1.014   .     S
C651   O653    1.399   .     S
C651   O652    1.224   .     D
O653   H654    1.014   .     S
N655   O656    1.302   .     A
N655   O657    1.300   .     A
N655   N999    1.384   .     S
N658   O660    1.300   .     A
N658   O659    1.302   .     A
O661   C665    1.292   .     A
O661   Cu673   1.961   .     S
O662   C666    1.292   .     A
O662   Cu674   1.961   .     S
O663   Cu674   1.957   .     S
O663   C665    1.297   .     A
O664   C666    1.297   .     A
O664   Cu673   1.957   .     S
C665   C697    1.432   .     S
C666   C698    1.432   .     S
O667   C671    1.299   .     A
O667   Cu673   1.957   .     S
O668   C672    1.299   .     A
O668   Cu674   1.957   .     S
O669   Cu674   1.939   .     S
O669   C671    1.297   .     A
O670   C672    1.297   .     A
O670   Cu673   1.939   .     S
C671   C678    1.438   .     S
C672   C677    1.438   .     S
Cu673  N700    2.036   .     S
Cu673  Cu674   2.709   .     S
Cu674  N699    2.036   .     S
C675   H691    1.082   .     S
C675   C685    1.399   .     A
C675   C677    1.394   .     A
C676   H692    1.082   .     S
C676   C678    1.394   .     A
C676   C686    1.399   .     A
C677   C679    1.392   .     A
C678   C680    1.392   .     A
C679   C681    1.392   .     A
C679   H693    1.085   .     S
C680   H694    1.085   .     S
C680   C682    1.392   .     A
C681   C687    1.399   .     A
C681   C683    1.413   .     A
C682   C688    1.399   .     A
C682   C684    1.413   .     A
C683   C685    1.420   .     A
C683   C624    1.401   1_655 S
C684   C686    1.420   .     A
C685   C690    1.417   .     A
C686   C689    1.417   .     A
C687   H695    1.084   .     S
C687   C629    1.399   1_655 S
C688   H696    1.084   .     S
C689   N701    1.440   .     S
C690   N704    1.440   .     S
C690   C628    1.399   1_655 S
C698   C457    1.359   1_565 S
C698   C471    1.495   1_565 S
N700   N1059   1.295   .     S
N700   N1078   1.384   .     S
N701   O703    1.301   .     A
O702   N461    1.301   1_565 S
N704   O706    1.301   .     A
N704   O465    1.301   1_565 S
C707   O708    1.224   .     D
C707   O709    1.399   .     S
C707   C457    1.495   1_565 S
O709   H710    1.014   .     S
C711   O713    1.399   .     S
C711   O712    1.224   .     D
O713   H714    1.014   .     S
N715   O716    1.302   .     A
N715   O717    1.300   .     A
N715   N1059   1.384   .     S
N718   O720    1.300   .     A
N718   O719    1.302   .     A
O721   C725    1.292   .     A
O721   Cu733   1.961   .     S
O722   C726    1.292   .     A
O722   Cu734   1.961   .     S
O723   Cu734   1.957   .     S
O723   C725    1.297   .     A
O724   C726    1.297   .     A
O724   Cu733   1.957   .     S
C725   C757    1.432   .     S
C726   C758    1.432   .     S
O727   C731    1.299   .     A
O727   Cu733   1.957   .     S
O728   C732    1.299   .     A
O728   Cu734   1.957   .     S
O729   Cu734   1.939   .     S
O729   C731    1.297   .     A
O730   C732    1.297   .     A
O730   Cu733   1.939   .     S
C731   C738    1.438   .     S
C732   C737    1.438   .     S
Cu733  N760    2.036   .     S
Cu733  Cu734   2.709   .     S
Cu734  N759    2.036   .     S
C735   H751    1.082   .     S
C735   C745    1.399   .     A
C735   C737    1.394   .     A
C736   H752    1.082   .     S
C736   C738    1.394   .     A
C736   C746    1.399   .     A
C737   C739    1.392   .     A
C738   C740    1.392   .     A
C739   C741    1.392   .     A
C739   H753    1.085   .     S
C740   H754    1.085   .     S
C740   C742    1.392   .     A
C741   C747    1.399   .     A
C741   C743    1.413   .     A
C742   C748    1.399   .     A
C742   C744    1.413   .     A
C743   C745    1.420   .     A
C743   C804    1.401   .     S
C744   C746    1.420   .     A
C744   C803    1.401   1_455 S
C745   C750    1.417   .     A
C746   C749    1.417   .     A
C747   H755    1.084   .     S
C747   C809    1.399   .     S
C748   H756    1.084   .     S
C748   C810    1.399   1_455 S
C749   N761    1.440   .     S
C749   C807    1.399   1_455 S
C750   N764    1.440   .     S
C750   C808    1.399   .     S
C757   C998    1.359   1_545 S
C757   C1007   1.495   1_545 S
C758   C877    1.359   .     S
C758   C891    1.495   .     S
N760   N39     1.295   1_556 S
N760   N58     1.384   1_556 S
N761   O763    1.301   .     A
N761   O1002   1.301   1_545 S
O762   N881    1.301   .     S
N764   O766    1.301   .     A
N764   O885    1.301   .     S
O765   N1004   1.301   1_545 S
C767   O768    1.224   .     D
C767   O769    1.399   .     S
C767   C877    1.495   .     S
O769   H770    1.014   .     S
C771   O773    1.399   .     S
C771   O772    1.224   .     D
C771   C998    1.495   1_545 S
O773   H774    1.014   .     S
N775   O776    1.302   .     A
N775   O777    1.300   .     A
N775   N39     1.384   1_556 S
N778   O780    1.300   .     A
N778   O779    1.302   .     A
O781   C785    1.292   .     A
O781   Cu793   1.961   .     S
O782   C786    1.292   .     A
O782   Cu794   1.961   .     S
O783   Cu794   1.957   .     S
O783   C785    1.297   .     A
O784   C786    1.297   .     A
O784   Cu793   1.957   .     S
C785   C817    1.432   .     S
C786   C818    1.432   .     S
O787   C791    1.299   .     A
O787   Cu793   1.957   .     S
O788   C792    1.299   .     A
O788   Cu794   1.957   .     S
O789   Cu794   1.939   .     S
O789   C791    1.297   .     A
O790   C792    1.297   .     A
O790   Cu793   1.939   .     S
C791   C798    1.438   .     S
C792   C797    1.438   .     S
Cu793  N820    2.036   .     S
Cu793  Cu794   2.709   .     S
Cu794  N819    2.036   .     S
C795   H811    1.082   .     S
C795   C805    1.399   .     A
C795   C797    1.394   .     A
C796   H812    1.082   .     S
C796   C798    1.394   .     A
C796   C806    1.399   .     A
C797   C799    1.392   .     A
C798   C800    1.392   .     A
C799   C801    1.392   .     A
C799   H813    1.085   .     S
C800   H814    1.085   .     S
C800   C802    1.392   .     A
C801   C807    1.399   .     A
C801   C803    1.413   .     A
C802   C808    1.399   .     A
C802   C804    1.413   .     A
C803   C805    1.420   .     A
C803   C744    1.401   1_655 S
C804   C806    1.420   .     A
C805   C810    1.417   .     A
C806   C809    1.417   .     A
C807   H815    1.084   .     S
C807   C749    1.399   1_655 S
C808   H816    1.084   .     S
C809   N821    1.440   .     S
C810   N824    1.440   .     S
C810   C748    1.399   1_655 S
C817   C1058   1.359   1_545 S
C817   C1067   1.495   1_545 S
C818   C937    1.359   .     S
C818   C951    1.495   .     S
N820   N99     1.295   1_556 S
N820   N118    1.384   1_556 S
N821   O823    1.301   .     A
N821   O1062   1.301   1_545 S
O822   N941    1.301   .     S
N824   O826    1.301   .     A
N824   O945    1.301   .     S
O825   N1064   1.301   1_545 S
C827   O828    1.224   .     D
C827   O829    1.399   .     S
C827   C937    1.495   .     S
O829   H830    1.014   .     S
C831   O833    1.399   .     S
C831   O832    1.224   .     D
C831   C1058   1.495   1_545 S
O833   H834    1.014   .     S
N835   O836    1.302   .     A
N835   O837    1.300   .     A
N835   N99     1.384   1_556 S
N838   O840    1.300   .     A
N838   O839    1.302   .     A
O841   C845    1.292   .     A
O841   Cu853   1.961   .     S
O842   C846    1.292   .     A
O842   Cu854   1.961   .     S
O843   Cu854   1.957   .     S
O843   C845    1.297   .     A
O844   C846    1.297   .     A
O844   Cu853   1.957   .     S
C845   C877    1.432   .     S
C846   C878    1.432   .     S
O847   C851    1.299   .     A
O847   Cu853   1.957   .     S
O848   C852    1.299   .     A
O848   Cu854   1.957   .     S
O849   Cu854   1.939   .     S
O849   C851    1.297   .     A
O850   C852    1.297   .     A
O850   Cu853   1.939   .     S
C851   C858    1.438   .     S
C852   C857    1.438   .     S
Cu853  N880    2.036   .     S
Cu853  Cu854   2.709   .     S
Cu854  N879    2.036   .     S
C855   H871    1.082   .     S
C855   C865    1.399   .     A
C855   C857    1.394   .     A
C856   H872    1.082   .     S
C856   C858    1.394   .     A
C856   C866    1.399   .     A
C857   C859    1.392   .     A
C858   C860    1.392   .     A
C859   C861    1.392   .     A
C859   H873    1.085   .     S
C860   H874    1.085   .     S
C860   C862    1.392   .     A
C861   C867    1.399   .     A
C861   C863    1.413   .     A
C862   C868    1.399   .     A
C862   C864    1.413   .     A
C863   C865    1.420   .     A
C863   C924    1.401   .     S
C864   C866    1.420   .     A
C864   C923    1.401   1_455 S
C865   C870    1.417   .     A
C866   C869    1.417   .     A
C867   H875    1.084   .     S
C867   C929    1.399   .     S
C868   H876    1.084   .     S
C868   C930    1.399   1_455 S
C869   N881    1.440   .     S
C869   C927    1.399   1_455 S
C870   N884    1.440   .     S
C870   C928    1.399   .     S
C878   C997    1.359   .     S
C878   C1011   1.495   .     S
N880   N159    1.295   1_556 S
N880   N178    1.384   1_556 S
N881   O883    1.301   .     A
O882   N1001   1.301   .     S
N884   O886    1.301   .     A
N884   O1005   1.301   .     S
C887   O888    1.224   .     D
C887   O889    1.399   .     S
C887   C997    1.495   .     S
O889   H890    1.014   .     S
C891   O893    1.399   .     S
C891   O892    1.224   .     D
O893   H894    1.014   .     S
N895   O896    1.302   .     A
N895   O897    1.300   .     A
N895   N159    1.384   1_556 S
N898   O900    1.300   .     A
N898   O899    1.302   .     A
O901   C905    1.292   .     A
O901   Cu913   1.961   .     S
O902   C906    1.292   .     A
O902   Cu914   1.961   .     S
O903   Cu914   1.957   .     S
O903   C905    1.297   .     A
O904   C906    1.297   .     A
O904   Cu913   1.957   .     S
C905   C937    1.432   .     S
C906   C938    1.432   .     S
O907   C911    1.299   .     A
O907   Cu913   1.957   .     S
O908   C912    1.299   .     A
O908   Cu914   1.957   .     S
O909   Cu914   1.939   .     S
O909   C911    1.297   .     A
O910   C912    1.297   .     A
O910   Cu913   1.939   .     S
C911   C918    1.438   .     S
C912   C917    1.438   .     S
Cu913  N940    2.036   .     S
Cu913  Cu914   2.709   .     S
Cu914  N939    2.036   .     S
C915   H931    1.082   .     S
C915   C925    1.399   .     A
C915   C917    1.394   .     A
C916   H932    1.082   .     S
C916   C918    1.394   .     A
C916   C926    1.399   .     A
C917   C919    1.392   .     A
C918   C920    1.392   .     A
C919   C921    1.392   .     A
C919   H933    1.085   .     S
C920   H934    1.085   .     S
C920   C922    1.392   .     A
C921   C927    1.399   .     A
C921   C923    1.413   .     A
C922   C928    1.399   .     A
C922   C924    1.413   .     A
C923   C925    1.420   .     A
C923   C864    1.401   1_655 S
C924   C926    1.420   .     A
C925   C930    1.417   .     A
C926   C929    1.417   .     A
C927   H935    1.084   .     S
C927   C869    1.399   1_655 S
C928   H936    1.084   .     S
C929   N941    1.440   .     S
C930   N944    1.440   .     S
C930   C868    1.399   1_655 S
C938   C1057   1.359   .     S
C938   C1071   1.495   .     S
N940   N219    1.295   1_556 S
N940   N238    1.384   1_556 S
N941   O943    1.301   .     A
O942   N1061   1.301   .     S
N944   O946    1.301   .     A
N944   O1065   1.301   .     S
C947   O948    1.224   .     D
C947   O949    1.399   .     S
C947   C1057   1.495   .     S
O949   H950    1.014   .     S
C951   O953    1.399   .     S
C951   O952    1.224   .     D
O953   H954    1.014   .     S
N955   O956    1.302   .     A
N955   O957    1.300   .     A
N955   N219    1.384   1_556 S
N958   O960    1.300   .     A
N958   O959    1.302   .     A
O961   C965    1.292   .     A
O961   Cu973   1.961   .     S
O962   C966    1.292   .     A
O962   Cu974   1.961   .     S
O963   Cu974   1.957   .     S
O963   C965    1.297   .     A
O964   C966    1.297   .     A
O964   Cu973   1.957   .     S
C965   C997    1.432   .     S
C966   C998    1.432   .     S
O967   C971    1.299   .     A
O967   Cu973   1.957   .     S
O968   C972    1.299   .     A
O968   Cu974   1.957   .     S
O969   Cu974   1.939   .     S
O969   C971    1.297   .     A
O970   C972    1.297   .     A
O970   Cu973   1.939   .     S
C971   C978    1.438   .     S
C972   C977    1.438   .     S
Cu973  N1000   2.036   .     S
Cu973  Cu974   2.709   .     S
Cu974  N999    2.036   .     S
C975   H991    1.082   .     S
C975   C985    1.399   .     A
C975   C977    1.394   .     A
C976   H992    1.082   .     S
C976   C978    1.394   .     A
C976   C986    1.399   .     A
C977   C979    1.392   .     A
C978   C980    1.392   .     A
C979   C981    1.392   .     A
C979   H993    1.085   .     S
C980   H994    1.085   .     S
C980   C982    1.392   .     A
C981   C987    1.399   .     A
C981   C983    1.413   .     A
C982   C988    1.399   .     A
C982   C984    1.413   .     A
C983   C985    1.420   .     A
C983   C1044   1.401   .     S
C984   C986    1.420   .     A
C984   C1043   1.401   1_455 S
C985   C990    1.417   .     A
C986   C989    1.417   .     A
C987   H995    1.084   .     S
C987   C1049   1.399   .     S
C988   H996    1.084   .     S
C988   C1050   1.399   1_455 S
C989   N1001   1.440   .     S
C989   C1047   1.399   1_455 S
C990   N1004   1.440   .     S
C990   C1048   1.399   .     S
C998   C757    1.359   1_565 S
C998   C771    1.495   1_565 S
N1000  N279    1.295   1_556 S
N1000  N298    1.384   1_556 S
N1001  O1003   1.301   .     A
O1002  N761    1.301   1_565 S
N1004  O1006   1.301   .     A
N1004  O765    1.301   1_565 S
C1007  O1008   1.224   .     D
C1007  O1009   1.399   .     S
C1007  C757    1.495   1_565 S
O1009  H1010   1.014   .     S
C1011  O1013   1.399   .     S
C1011  O1012   1.224   .     D
O1013  H1014   1.014   .     S
N1015  O1016   1.302   .     A
N1015  O1017   1.300   .     A
N1015  N279    1.384   1_556 S
N1018  O1020   1.300   .     A
N1018  O1019   1.302   .     A
O1021  C1025   1.292   .     A
O1021  Cu1033  1.961   .     S
O1022  C1026   1.292   .     A
O1022  Cu1034  1.961   .     S
O1023  Cu1034  1.957   .     S
O1023  C1025   1.297   .     A
O1024  C1026   1.297   .     A
O1024  Cu1033  1.957   .     S
C1025  C1057   1.432   .     S
C1026  C1058   1.432   .     S
O1027  C1031   1.299   .     A
O1027  Cu1033  1.957   .     S
O1028  C1032   1.299   .     A
O1028  Cu1034  1.957   .     S
O1029  Cu1034  1.939   .     S
O1029  C1031   1.297   .     A
O1030  C1032   1.297   .     A
O1030  Cu1033  1.939   .     S
C1031  C1038   1.438   .     S
C1032  C1037   1.438   .     S
Cu1033 N1060   2.036   .     S
Cu1033 Cu1034  2.709   .     S
Cu1034 N1059   2.036   .     S
C1035  H1051   1.082   .     S
C1035  C1045   1.399   .     A
C1035  C1037   1.394   .     A
C1036  H1052   1.082   .     S
C1036  C1038   1.394   .     A
C1036  C1046   1.399   .     A
C1037  C1039   1.392   .     A
C1038  C1040   1.392   .     A
C1039  C1041   1.392   .     A
C1039  H1053   1.085   .     S
C1040  H1054   1.085   .     S
C1040  C1042   1.392   .     A
C1041  C1047   1.399   .     A
C1041  C1043   1.413   .     A
C1042  C1048   1.399   .     A
C1042  C1044   1.413   .     A
C1043  C1045   1.420   .     A
C1043  C984    1.401   1_655 S
C1044  C1046   1.420   .     A
C1045  C1050   1.417   .     A
C1046  C1049   1.417   .     A
C1047  H1055   1.084   .     S
C1047  C989    1.399   1_655 S
C1048  H1056   1.084   .     S
C1049  N1061   1.440   .     S
C1050  N1064   1.440   .     S
C1050  C988    1.399   1_655 S
C1058  C817    1.359   1_565 S
C1058  C831    1.495   1_565 S
N1060  N339    1.295   1_556 S
N1060  N358    1.384   1_556 S
N1061  O1063   1.301   .     A
O1062  N821    1.301   1_565 S
N1064  O1066   1.301   .     A
N1064  O825    1.301   1_565 S
C1067  O1068   1.224   .     D
C1067  O1069   1.399   .     S
C1067  C817    1.495   1_565 S
O1069  H1070   1.014   .     S
C1071  O1073   1.399   .     S
C1071  O1072   1.224   .     D
O1073  H1074   1.014   .     S
N1075  O1076   1.302   .     A
N1075  O1077   1.300   .     A
N1075  N339    1.384   1_556 S
N1078  O1080   1.300   .     A
N1078  O1079   1.302   .     A
