data_str_m2_o10_o18_pcu_sym.139
_audit_creation_date              2020-01-03
_audit_creation_method            'Materials Studio'
_symmetry_space_group_name_H-M    'P1'
_symmetry_Int_Tables_number       1
_symmetry_cell_setting            triclinic
loop_
_symmetry_equiv_pos_as_xyz
  x,y,z
_cell_length_a                    22.3064
_cell_length_b                    26.0838
_cell_length_c                    31.6418
_cell_angle_alpha                 94.2771
_cell_angle_beta                  75.0570
_cell_angle_gamma                 103.1385
loop_
_atom_site_label
_atom_site_type_symbol
_atom_site_fract_x
_atom_site_fract_y
_atom_site_fract_z
_atom_site_U_iso_or_equiv
_atom_site_adp_type
_atom_site_occupancy
C1     C     0.18169   0.26672   0.25130   0.00000  Uiso   1.00
C2     C     0.15164   0.06662   0.24871   0.00000  Uiso   1.00
C3     C     0.09656   0.12287   0.03748   0.00000  Uiso   1.00
C4     C     0.24185   0.19396   0.45921   0.00000  Uiso   1.00
C5     C     0.05356   0.10979   0.01158   0.00000  Uiso   1.00
C6     C     0.28513   0.20609   0.48494   0.00000  Uiso   1.00
C7     C     0.19015   0.32267   0.25194   0.00000  Uiso   1.00
C8     C     0.14317   0.01066   0.24808   0.00000  Uiso   1.00
C9     C     0.12799   0.16261   0.33312   0.00000  Uiso   1.00
C10    C     0.20532   0.17035   0.16684   0.00000  Uiso   1.00
C11    C     0.10452   0.15503   0.38051   0.00000  Uiso   1.00
C12    C     0.22881   0.17473   0.11910   0.00000  Uiso   1.00
C13    C     0.02609   0.11221   0.44261   0.00000  Uiso   1.00
C14    C     0.31098   0.20734   0.05489   0.00000  Uiso   1.00
C15    C     0.04324   0.12653   0.39885   0.00000  Uiso   1.00
C16    C     0.29215   0.19746   0.09958   0.00000  Uiso   1.00
C17    C     0.14749   0.17123   0.40668   0.00000  Uiso   1.00
C18    C     0.18529   0.15929   0.09320   0.00000  Uiso   1.00
C19    C     0.13260   0.15570   0.45045   0.00000  Uiso   1.00
C20    C     0.20304   0.16770   0.04787   0.00000  Uiso   1.00
C21    C     0.07044   0.12603   0.46839   0.00000  Uiso   1.00
C22    C     0.26667   0.19359   0.02907   0.00000  Uiso   1.00
C23    C     0.17786   0.16806   0.47652   0.00000  Uiso   1.00
C24    C     0.15883   0.15293   0.02117   0.00000  Uiso   1.00
Cu25   Cu    0.10737   0.16108   0.24517   0.00000  Uiso   1.00
Cu26   Cu    0.22596   0.17225   0.25484   0.00000  Uiso   1.00
H27    H     0.00654   0.08666   0.02573   0.00000  Uiso   1.00
H28    H     0.00027   0.22564   0.46993   0.00000  Uiso   1.00
H29    H     0.13694   0.14266   0.10973   0.00000  Uiso   1.00
H30    H     0.19282   0.19537   0.39148   0.00000  Uiso   1.00
H31    H     0.32645   0.20958   0.11914   0.00000  Uiso   1.00
H32    H     0.00947   0.11365   0.37898   0.00000  Uiso   1.00
H33    H     0.07953   0.10738   0.07001   0.00000  Uiso   1.00
H34    H     0.26107   0.20461   0.42544   0.00000  Uiso   1.00
H35    H     0.23545   0.01312   0.25558   0.00000  Uiso   1.00
H36    H     0.09788   0.32022   0.24444   0.00000  Uiso   1.00
H37    H     0.00132   0.20505   0.28443   0.00000  Uiso   1.00
H38    H     0.33201   0.12828   0.21557   0.00000  Uiso   1.00
N39    N     0.31506   0.18068   0.26212   0.00000  Uiso   1.00
N40    N     0.01827   0.15265   0.23788   0.00000  Uiso   1.00
O41    O     0.12815   0.23809   0.24686   0.00000  Uiso   1.00
O42    O     0.20518   0.09524   0.25314   0.00000  Uiso   1.00
O43    O     0.22829   0.24753   0.25503   0.00000  Uiso   1.00
O44    O     0.10504   0.08580   0.24498   0.00000  Uiso   1.00
O45    O     0.08851   0.15930   0.30855   0.00000  Uiso   1.00
O46    O     0.24482   0.17403   0.19146   0.00000  Uiso   1.00
O47    O     0.18866   0.16874   0.31671   0.00000  Uiso   1.00
O48    O     0.14468   0.16460   0.18329   0.00000  Uiso   1.00
F49    F     0.29991   0.08363   0.45942   0.00000  Uiso   1.00
F50    F     0.03887   0.23157   0.03709   0.00000  Uiso   1.00
C51    C     0.51502   0.26672   0.25130   0.00000  Uiso   1.00
C52    C     0.48497   0.06662   0.24871   0.00000  Uiso   1.00
C53    C     0.42989   0.12287   0.03748   0.00000  Uiso   1.00
C54    C     0.57518   0.19396   0.45921   0.00000  Uiso   1.00
C55    C     0.38690   0.10979   0.01158   0.00000  Uiso   1.00
C56    C     0.61847   0.20609   0.48494   0.00000  Uiso   1.00
C57    C     0.52349   0.32267   0.25194   0.00000  Uiso   1.00
C58    C     0.47650   0.01066   0.24808   0.00000  Uiso   1.00
C59    C     0.46132   0.16261   0.33312   0.00000  Uiso   1.00
C60    C     0.53865   0.17035   0.16684   0.00000  Uiso   1.00
C61    C     0.43786   0.15503   0.38051   0.00000  Uiso   1.00
C62    C     0.56214   0.17473   0.11910   0.00000  Uiso   1.00
C63    C     0.35942   0.11221   0.44261   0.00000  Uiso   1.00
C64    C     0.64432   0.20734   0.05489   0.00000  Uiso   1.00
C65    C     0.37657   0.12653   0.39885   0.00000  Uiso   1.00
C66    C     0.62549   0.19746   0.09958   0.00000  Uiso   1.00
C67    C     0.48082   0.17123   0.40668   0.00000  Uiso   1.00
C68    C     0.51862   0.15929   0.09320   0.00000  Uiso   1.00
C69    C     0.46594   0.15570   0.45045   0.00000  Uiso   1.00
C70    C     0.53638   0.16770   0.04787   0.00000  Uiso   1.00
C71    C     0.40378   0.12603   0.46839   0.00000  Uiso   1.00
C72    C     0.60001   0.19359   0.02907   0.00000  Uiso   1.00
C73    C     0.51119   0.16806   0.47652   0.00000  Uiso   1.00
C74    C     0.49216   0.15293   0.02117   0.00000  Uiso   1.00
Cu75   Cu    0.44071   0.16108   0.24517   0.00000  Uiso   1.00
Cu76   Cu    0.55929   0.17225   0.25484   0.00000  Uiso   1.00
H77    H     0.33987   0.08666   0.02573   0.00000  Uiso   1.00
H78    H     0.33360   0.22564   0.46993   0.00000  Uiso   1.00
H79    H     0.47028   0.14266   0.10973   0.00000  Uiso   1.00
H80    H     0.52616   0.19537   0.39148   0.00000  Uiso   1.00
H81    H     0.65978   0.20958   0.11914   0.00000  Uiso   1.00
H82    H     0.34280   0.11365   0.37898   0.00000  Uiso   1.00
H83    H     0.41286   0.10738   0.07001   0.00000  Uiso   1.00
H84    H     0.59440   0.20461   0.42544   0.00000  Uiso   1.00
H85    H     0.56878   0.01312   0.25558   0.00000  Uiso   1.00
H86    H     0.43121   0.32022   0.24444   0.00000  Uiso   1.00
H87    H     0.33465   0.20505   0.28443   0.00000  Uiso   1.00
H88    H     0.66535   0.12828   0.21557   0.00000  Uiso   1.00
N89    N     0.64839   0.18068   0.26212   0.00000  Uiso   1.00
N90    N     0.35161   0.15265   0.23788   0.00000  Uiso   1.00
O91    O     0.46148   0.23809   0.24686   0.00000  Uiso   1.00
O92    O     0.53852   0.09524   0.25314   0.00000  Uiso   1.00
O93    O     0.56163   0.24753   0.25503   0.00000  Uiso   1.00
O94    O     0.43837   0.08580   0.24498   0.00000  Uiso   1.00
O95    O     0.42185   0.15930   0.30855   0.00000  Uiso   1.00
O96    O     0.57815   0.17403   0.19146   0.00000  Uiso   1.00
O97    O     0.52199   0.16874   0.31671   0.00000  Uiso   1.00
O98    O     0.47801   0.16460   0.18329   0.00000  Uiso   1.00
F99    F     0.63325   0.08363   0.45942   0.00000  Uiso   1.00
F100   F     0.37221   0.23157   0.03709   0.00000  Uiso   1.00
C101   C     0.84836   0.26672   0.25130   0.00000  Uiso   1.00
C102   C     0.81831   0.06662   0.24871   0.00000  Uiso   1.00
C103   C     0.76323   0.12287   0.03748   0.00000  Uiso   1.00
C104   C     0.90851   0.19396   0.45921   0.00000  Uiso   1.00
C105   C     0.72023   0.10979   0.01158   0.00000  Uiso   1.00
C106   C     0.95180   0.20609   0.48494   0.00000  Uiso   1.00
C107   C     0.85682   0.32267   0.25194   0.00000  Uiso   1.00
C108   C     0.80984   0.01066   0.24808   0.00000  Uiso   1.00
C109   C     0.79465   0.16261   0.33312   0.00000  Uiso   1.00
C110   C     0.87199   0.17035   0.16684   0.00000  Uiso   1.00
C111   C     0.77119   0.15503   0.38051   0.00000  Uiso   1.00
C112   C     0.89548   0.17473   0.11910   0.00000  Uiso   1.00
C113   C     0.69275   0.11221   0.44261   0.00000  Uiso   1.00
C114   C     0.97765   0.20734   0.05489   0.00000  Uiso   1.00
C115   C     0.70991   0.12653   0.39885   0.00000  Uiso   1.00
C116   C     0.95882   0.19746   0.09958   0.00000  Uiso   1.00
C117   C     0.81416   0.17123   0.40668   0.00000  Uiso   1.00
C118   C     0.85195   0.15929   0.09320   0.00000  Uiso   1.00
C119   C     0.79927   0.15570   0.45045   0.00000  Uiso   1.00
C120   C     0.86971   0.16770   0.04787   0.00000  Uiso   1.00
C121   C     0.73711   0.12603   0.46839   0.00000  Uiso   1.00
C122   C     0.93334   0.19359   0.02907   0.00000  Uiso   1.00
C123   C     0.84452   0.16806   0.47652   0.00000  Uiso   1.00
C124   C     0.82550   0.15293   0.02117   0.00000  Uiso   1.00
Cu125  Cu    0.77404   0.16108   0.24517   0.00000  Uiso   1.00
Cu126  Cu    0.89263   0.17225   0.25484   0.00000  Uiso   1.00
H127   H     0.67321   0.08666   0.02573   0.00000  Uiso   1.00
H128   H     0.66693   0.22564   0.46993   0.00000  Uiso   1.00
H129   H     0.80361   0.14266   0.10973   0.00000  Uiso   1.00
H130   H     0.85949   0.19537   0.39148   0.00000  Uiso   1.00
H131   H     0.99311   0.20958   0.11914   0.00000  Uiso   1.00
H132   H     0.67614   0.11365   0.37898   0.00000  Uiso   1.00
H133   H     0.74620   0.10738   0.07001   0.00000  Uiso   1.00
H134   H     0.92774   0.20461   0.42544   0.00000  Uiso   1.00
H135   H     0.90211   0.01312   0.25558   0.00000  Uiso   1.00
H136   H     0.76454   0.32022   0.24444   0.00000  Uiso   1.00
H137   H     0.66799   0.20505   0.28443   0.00000  Uiso   1.00
H138   H     0.99868   0.12828   0.21557   0.00000  Uiso   1.00
N139   N     0.98173   0.18068   0.26212   0.00000  Uiso   1.00
N140   N     0.68494   0.15265   0.23788   0.00000  Uiso   1.00
O141   O     0.79482   0.23809   0.24686   0.00000  Uiso   1.00
O142   O     0.87185   0.09524   0.25314   0.00000  Uiso   1.00
O143   O     0.89496   0.24753   0.25503   0.00000  Uiso   1.00
O144   O     0.77171   0.08580   0.24498   0.00000  Uiso   1.00
O145   O     0.75518   0.15930   0.30855   0.00000  Uiso   1.00
O146   O     0.91149   0.17403   0.19146   0.00000  Uiso   1.00
O147   O     0.85532   0.16874   0.31671   0.00000  Uiso   1.00
O148   O     0.81134   0.16460   0.18329   0.00000  Uiso   1.00
F149   F     0.96658   0.08363   0.45942   0.00000  Uiso   1.00
F150   F     0.70554   0.23157   0.03709   0.00000  Uiso   1.00
C151   C     0.18169   0.60005   0.25130   0.00000  Uiso   1.00
C152   C     0.15164   0.39995   0.24871   0.00000  Uiso   1.00
C153   C     0.09656   0.45621   0.03748   0.00000  Uiso   1.00
C154   C     0.24185   0.52729   0.45921   0.00000  Uiso   1.00
C155   C     0.05356   0.44312   0.01158   0.00000  Uiso   1.00
C156   C     0.28513   0.53942   0.48494   0.00000  Uiso   1.00
C157   C     0.19015   0.65601   0.25194   0.00000  Uiso   1.00
C158   C     0.14317   0.34399   0.24808   0.00000  Uiso   1.00
C159   C     0.12799   0.49594   0.33312   0.00000  Uiso   1.00
C160   C     0.20532   0.50368   0.16684   0.00000  Uiso   1.00
C161   C     0.10452   0.48836   0.38051   0.00000  Uiso   1.00
C162   C     0.22881   0.50806   0.11910   0.00000  Uiso   1.00
C163   C     0.02609   0.44554   0.44261   0.00000  Uiso   1.00
C164   C     0.31098   0.54068   0.05489   0.00000  Uiso   1.00
C165   C     0.04324   0.45987   0.39885   0.00000  Uiso   1.00
C166   C     0.29215   0.53080   0.09958   0.00000  Uiso   1.00
C167   C     0.14749   0.50456   0.40668   0.00000  Uiso   1.00
C168   C     0.18529   0.49262   0.09320   0.00000  Uiso   1.00
C169   C     0.13260   0.48904   0.45045   0.00000  Uiso   1.00
C170   C     0.20304   0.50103   0.04787   0.00000  Uiso   1.00
C171   C     0.07044   0.45936   0.46839   0.00000  Uiso   1.00
C172   C     0.26667   0.52693   0.02907   0.00000  Uiso   1.00
C173   C     0.17786   0.50139   0.47652   0.00000  Uiso   1.00
C174   C     0.15883   0.48626   0.02117   0.00000  Uiso   1.00
Cu175  Cu    0.10737   0.49441   0.24517   0.00000  Uiso   1.00
Cu176  Cu    0.22596   0.50559   0.25484   0.00000  Uiso   1.00
H177   H     0.00654   0.42000   0.02573   0.00000  Uiso   1.00
H178   H     0.00027   0.55898   0.46993   0.00000  Uiso   1.00
H179   H     0.13694   0.47600   0.10973   0.00000  Uiso   1.00
H180   H     0.19282   0.52870   0.39148   0.00000  Uiso   1.00
H181   H     0.32645   0.54291   0.11914   0.00000  Uiso   1.00
H182   H     0.00947   0.44699   0.37898   0.00000  Uiso   1.00
H183   H     0.07953   0.44071   0.07001   0.00000  Uiso   1.00
H184   H     0.26107   0.53794   0.42544   0.00000  Uiso   1.00
H185   H     0.23545   0.34645   0.25558   0.00000  Uiso   1.00
H186   H     0.09788   0.65355   0.24444   0.00000  Uiso   1.00
H187   H     0.00132   0.53838   0.28443   0.00000  Uiso   1.00
H188   H     0.33201   0.46162   0.21557   0.00000  Uiso   1.00
N189   N     0.31506   0.51401   0.26212   0.00000  Uiso   1.00
N190   N     0.01827   0.48599   0.23788   0.00000  Uiso   1.00
O191   O     0.12815   0.57142   0.24686   0.00000  Uiso   1.00
O192   O     0.20518   0.42858   0.25314   0.00000  Uiso   1.00
O193   O     0.22829   0.58086   0.25503   0.00000  Uiso   1.00
O194   O     0.10504   0.41914   0.24498   0.00000  Uiso   1.00
O195   O     0.08851   0.49263   0.30855   0.00000  Uiso   1.00
O196   O     0.24482   0.50737   0.19146   0.00000  Uiso   1.00
O197   O     0.18866   0.50207   0.31671   0.00000  Uiso   1.00
O198   O     0.14468   0.49793   0.18329   0.00000  Uiso   1.00
F199   F     0.29991   0.41696   0.45942   0.00000  Uiso   1.00
F200   F     0.03887   0.56491   0.03709   0.00000  Uiso   1.00
C201   C     0.51502   0.60005   0.25130   0.00000  Uiso   1.00
C202   C     0.48497   0.39995   0.24871   0.00000  Uiso   1.00
C203   C     0.42989   0.45621   0.03748   0.00000  Uiso   1.00
C204   C     0.57518   0.52729   0.45921   0.00000  Uiso   1.00
C205   C     0.38690   0.44312   0.01158   0.00000  Uiso   1.00
C206   C     0.61847   0.53942   0.48494   0.00000  Uiso   1.00
C207   C     0.52349   0.65601   0.25194   0.00000  Uiso   1.00
C208   C     0.47650   0.34399   0.24808   0.00000  Uiso   1.00
C209   C     0.46132   0.49594   0.33312   0.00000  Uiso   1.00
C210   C     0.53865   0.50368   0.16684   0.00000  Uiso   1.00
C211   C     0.43786   0.48836   0.38051   0.00000  Uiso   1.00
C212   C     0.56214   0.50806   0.11910   0.00000  Uiso   1.00
C213   C     0.35942   0.44554   0.44261   0.00000  Uiso   1.00
C214   C     0.64432   0.54068   0.05489   0.00000  Uiso   1.00
C215   C     0.37657   0.45987   0.39885   0.00000  Uiso   1.00
C216   C     0.62549   0.53080   0.09958   0.00000  Uiso   1.00
C217   C     0.48082   0.50456   0.40668   0.00000  Uiso   1.00
C218   C     0.51862   0.49262   0.09320   0.00000  Uiso   1.00
C219   C     0.46594   0.48904   0.45045   0.00000  Uiso   1.00
C220   C     0.53638   0.50103   0.04787   0.00000  Uiso   1.00
C221   C     0.40378   0.45936   0.46839   0.00000  Uiso   1.00
C222   C     0.60001   0.52693   0.02907   0.00000  Uiso   1.00
C223   C     0.51119   0.50139   0.47652   0.00000  Uiso   1.00
C224   C     0.49216   0.48626   0.02117   0.00000  Uiso   1.00
Cu225  Cu    0.44071   0.49441   0.24517   0.00000  Uiso   1.00
Cu226  Cu    0.55929   0.50559   0.25484   0.00000  Uiso   1.00
H227   H     0.33987   0.42000   0.02573   0.00000  Uiso   1.00
H228   H     0.33360   0.55898   0.46993   0.00000  Uiso   1.00
H229   H     0.47028   0.47600   0.10973   0.00000  Uiso   1.00
H230   H     0.52616   0.52870   0.39148   0.00000  Uiso   1.00
H231   H     0.65978   0.54291   0.11914   0.00000  Uiso   1.00
H232   H     0.34280   0.44699   0.37898   0.00000  Uiso   1.00
H233   H     0.41286   0.44071   0.07001   0.00000  Uiso   1.00
H234   H     0.59440   0.53794   0.42544   0.00000  Uiso   1.00
H235   H     0.56878   0.34645   0.25558   0.00000  Uiso   1.00
H236   H     0.43121   0.65355   0.24444   0.00000  Uiso   1.00
H237   H     0.33465   0.53838   0.28443   0.00000  Uiso   1.00
H238   H     0.66535   0.46162   0.21557   0.00000  Uiso   1.00
N239   N     0.64839   0.51401   0.26212   0.00000  Uiso   1.00
N240   N     0.35161   0.48599   0.23788   0.00000  Uiso   1.00
O241   O     0.46148   0.57142   0.24686   0.00000  Uiso   1.00
O242   O     0.53852   0.42858   0.25314   0.00000  Uiso   1.00
O243   O     0.56163   0.58086   0.25503   0.00000  Uiso   1.00
O244   O     0.43837   0.41914   0.24498   0.00000  Uiso   1.00
O245   O     0.42185   0.49263   0.30855   0.00000  Uiso   1.00
O246   O     0.57815   0.50737   0.19146   0.00000  Uiso   1.00
O247   O     0.52199   0.50207   0.31671   0.00000  Uiso   1.00
O248   O     0.47801   0.49793   0.18329   0.00000  Uiso   1.00
F249   F     0.63325   0.41696   0.45942   0.00000  Uiso   1.00
F250   F     0.37221   0.56491   0.03709   0.00000  Uiso   1.00
C251   C     0.84836   0.60005   0.25130   0.00000  Uiso   1.00
C252   C     0.81831   0.39995   0.24871   0.00000  Uiso   1.00
C253   C     0.76323   0.45621   0.03748   0.00000  Uiso   1.00
C254   C     0.90851   0.52729   0.45921   0.00000  Uiso   1.00
C255   C     0.72023   0.44312   0.01158   0.00000  Uiso   1.00
C256   C     0.95180   0.53942   0.48494   0.00000  Uiso   1.00
C257   C     0.85682   0.65601   0.25194   0.00000  Uiso   1.00
C258   C     0.80984   0.34399   0.24808   0.00000  Uiso   1.00
C259   C     0.79465   0.49594   0.33312   0.00000  Uiso   1.00
C260   C     0.87199   0.50368   0.16684   0.00000  Uiso   1.00
C261   C     0.77119   0.48836   0.38051   0.00000  Uiso   1.00
C262   C     0.89548   0.50806   0.11910   0.00000  Uiso   1.00
C263   C     0.69275   0.44554   0.44261   0.00000  Uiso   1.00
C264   C     0.97765   0.54068   0.05489   0.00000  Uiso   1.00
C265   C     0.70991   0.45987   0.39885   0.00000  Uiso   1.00
C266   C     0.95882   0.53080   0.09958   0.00000  Uiso   1.00
C267   C     0.81416   0.50456   0.40668   0.00000  Uiso   1.00
C268   C     0.85195   0.49262   0.09320   0.00000  Uiso   1.00
C269   C     0.79927   0.48904   0.45045   0.00000  Uiso   1.00
C270   C     0.86971   0.50103   0.04787   0.00000  Uiso   1.00
C271   C     0.73711   0.45936   0.46839   0.00000  Uiso   1.00
C272   C     0.93334   0.52693   0.02907   0.00000  Uiso   1.00
C273   C     0.84452   0.50139   0.47652   0.00000  Uiso   1.00
C274   C     0.82550   0.48626   0.02117   0.00000  Uiso   1.00
Cu275  Cu    0.77404   0.49441   0.24517   0.00000  Uiso   1.00
Cu276  Cu    0.89263   0.50559   0.25484   0.00000  Uiso   1.00
H277   H     0.67321   0.42000   0.02573   0.00000  Uiso   1.00
H278   H     0.66693   0.55898   0.46993   0.00000  Uiso   1.00
H279   H     0.80361   0.47600   0.10973   0.00000  Uiso   1.00
H280   H     0.85949   0.52870   0.39148   0.00000  Uiso   1.00
H281   H     0.99311   0.54291   0.11914   0.00000  Uiso   1.00
H282   H     0.67614   0.44699   0.37898   0.00000  Uiso   1.00
H283   H     0.74620   0.44071   0.07001   0.00000  Uiso   1.00
H284   H     0.92774   0.53794   0.42544   0.00000  Uiso   1.00
H285   H     0.90211   0.34645   0.25558   0.00000  Uiso   1.00
H286   H     0.76454   0.65355   0.24444   0.00000  Uiso   1.00
H287   H     0.66799   0.53838   0.28443   0.00000  Uiso   1.00
H288   H     0.99868   0.46162   0.21557   0.00000  Uiso   1.00
N289   N     0.98173   0.51401   0.26212   0.00000  Uiso   1.00
N290   N     0.68494   0.48599   0.23788   0.00000  Uiso   1.00
O291   O     0.79482   0.57142   0.24686   0.00000  Uiso   1.00
O292   O     0.87185   0.42858   0.25314   0.00000  Uiso   1.00
O293   O     0.89496   0.58086   0.25503   0.00000  Uiso   1.00
O294   O     0.77171   0.41914   0.24498   0.00000  Uiso   1.00
O295   O     0.75518   0.49263   0.30855   0.00000  Uiso   1.00
O296   O     0.91149   0.50737   0.19146   0.00000  Uiso   1.00
O297   O     0.85532   0.50207   0.31671   0.00000  Uiso   1.00
O298   O     0.81134   0.49793   0.18329   0.00000  Uiso   1.00
F299   F     0.96658   0.41696   0.45942   0.00000  Uiso   1.00
F300   F     0.70554   0.56491   0.03709   0.00000  Uiso   1.00
C301   C     0.18169   0.93338   0.25130   0.00000  Uiso   1.00
C302   C     0.15164   0.73328   0.24871   0.00000  Uiso   1.00
C303   C     0.09656   0.78954   0.03748   0.00000  Uiso   1.00
C304   C     0.24185   0.86063   0.45921   0.00000  Uiso   1.00
C305   C     0.05356   0.77645   0.01158   0.00000  Uiso   1.00
C306   C     0.28513   0.87275   0.48494   0.00000  Uiso   1.00
C307   C     0.19015   0.98934   0.25194   0.00000  Uiso   1.00
C308   C     0.14317   0.67733   0.24808   0.00000  Uiso   1.00
C309   C     0.12799   0.82928   0.33312   0.00000  Uiso   1.00
C310   C     0.20532   0.83702   0.16684   0.00000  Uiso   1.00
C311   C     0.10452   0.82170   0.38051   0.00000  Uiso   1.00
C312   C     0.22881   0.84140   0.11910   0.00000  Uiso   1.00
C313   C     0.02609   0.77888   0.44261   0.00000  Uiso   1.00
C314   C     0.31098   0.87401   0.05489   0.00000  Uiso   1.00
C315   C     0.04324   0.79320   0.39885   0.00000  Uiso   1.00
C316   C     0.29215   0.86413   0.09958   0.00000  Uiso   1.00
C317   C     0.14749   0.83790   0.40668   0.00000  Uiso   1.00
C318   C     0.18529   0.82596   0.09320   0.00000  Uiso   1.00
C319   C     0.13260   0.82237   0.45045   0.00000  Uiso   1.00
C320   C     0.20304   0.83436   0.04787   0.00000  Uiso   1.00
C321   C     0.07044   0.79270   0.46839   0.00000  Uiso   1.00
C322   C     0.26667   0.86026   0.02907   0.00000  Uiso   1.00
C323   C     0.17786   0.83472   0.47652   0.00000  Uiso   1.00
C324   C     0.15883   0.81960   0.02117   0.00000  Uiso   1.00
Cu325  Cu    0.10737   0.82775   0.24517   0.00000  Uiso   1.00
Cu326  Cu    0.22596   0.83892   0.25484   0.00000  Uiso   1.00
H327   H     0.00654   0.75333   0.02573   0.00000  Uiso   1.00
H328   H     0.00027   0.89231   0.46993   0.00000  Uiso   1.00
H329   H     0.13694   0.80933   0.10973   0.00000  Uiso   1.00
H330   H     0.19282   0.86204   0.39148   0.00000  Uiso   1.00
H331   H     0.32645   0.87625   0.11914   0.00000  Uiso   1.00
H332   H     0.00947   0.78032   0.37898   0.00000  Uiso   1.00
H333   H     0.07953   0.77405   0.07001   0.00000  Uiso   1.00
H334   H     0.26107   0.87128   0.42544   0.00000  Uiso   1.00
H335   H     0.23545   0.67978   0.25558   0.00000  Uiso   1.00
H336   H     0.09788   0.98689   0.24444   0.00000  Uiso   1.00
H337   H     0.00132   0.87172   0.28443   0.00000  Uiso   1.00
H338   H     0.33201   0.79495   0.21557   0.00000  Uiso   1.00
N339   N     0.31506   0.84735   0.26212   0.00000  Uiso   1.00
N340   N     0.01827   0.81932   0.23788   0.00000  Uiso   1.00
O341   O     0.12815   0.90476   0.24686   0.00000  Uiso   1.00
O342   O     0.20518   0.76191   0.25314   0.00000  Uiso   1.00
O343   O     0.22829   0.91420   0.25503   0.00000  Uiso   1.00
O344   O     0.10504   0.75247   0.24498   0.00000  Uiso   1.00
O345   O     0.08851   0.82597   0.30855   0.00000  Uiso   1.00
O346   O     0.24482   0.84070   0.19146   0.00000  Uiso   1.00
O347   O     0.18866   0.83540   0.31671   0.00000  Uiso   1.00
O348   O     0.14468   0.83126   0.18329   0.00000  Uiso   1.00
F349   F     0.29991   0.75029   0.45942   0.00000  Uiso   1.00
F350   F     0.03887   0.89824   0.03709   0.00000  Uiso   1.00
C351   C     0.51502   0.93338   0.25130   0.00000  Uiso   1.00
C352   C     0.48497   0.73328   0.24871   0.00000  Uiso   1.00
C353   C     0.42989   0.78954   0.03748   0.00000  Uiso   1.00
C354   C     0.57518   0.86063   0.45921   0.00000  Uiso   1.00
C355   C     0.38690   0.77645   0.01158   0.00000  Uiso   1.00
C356   C     0.61847   0.87275   0.48494   0.00000  Uiso   1.00
C357   C     0.52349   0.98934   0.25194   0.00000  Uiso   1.00
C358   C     0.47650   0.67733   0.24808   0.00000  Uiso   1.00
C359   C     0.46132   0.82928   0.33312   0.00000  Uiso   1.00
C360   C     0.53865   0.83702   0.16684   0.00000  Uiso   1.00
C361   C     0.43786   0.82170   0.38051   0.00000  Uiso   1.00
C362   C     0.56214   0.84140   0.11910   0.00000  Uiso   1.00
C363   C     0.35942   0.77888   0.44261   0.00000  Uiso   1.00
C364   C     0.64432   0.87401   0.05489   0.00000  Uiso   1.00
C365   C     0.37657   0.79320   0.39885   0.00000  Uiso   1.00
C366   C     0.62549   0.86413   0.09958   0.00000  Uiso   1.00
C367   C     0.48082   0.83790   0.40668   0.00000  Uiso   1.00
C368   C     0.51862   0.82596   0.09320   0.00000  Uiso   1.00
C369   C     0.46594   0.82237   0.45045   0.00000  Uiso   1.00
C370   C     0.53638   0.83436   0.04787   0.00000  Uiso   1.00
C371   C     0.40378   0.79270   0.46839   0.00000  Uiso   1.00
C372   C     0.60001   0.86026   0.02907   0.00000  Uiso   1.00
C373   C     0.51119   0.83472   0.47652   0.00000  Uiso   1.00
C374   C     0.49216   0.81960   0.02117   0.00000  Uiso   1.00
Cu375  Cu    0.44071   0.82775   0.24517   0.00000  Uiso   1.00
Cu376  Cu    0.55929   0.83892   0.25484   0.00000  Uiso   1.00
H377   H     0.33987   0.75333   0.02573   0.00000  Uiso   1.00
H378   H     0.33360   0.89231   0.46993   0.00000  Uiso   1.00
H379   H     0.47028   0.80933   0.10973   0.00000  Uiso   1.00
H380   H     0.52616   0.86204   0.39148   0.00000  Uiso   1.00
H381   H     0.65978   0.87625   0.11914   0.00000  Uiso   1.00
H382   H     0.34280   0.78032   0.37898   0.00000  Uiso   1.00
H383   H     0.41286   0.77405   0.07001   0.00000  Uiso   1.00
H384   H     0.59440   0.87128   0.42544   0.00000  Uiso   1.00
H385   H     0.56878   0.67978   0.25558   0.00000  Uiso   1.00
H386   H     0.43121   0.98689   0.24444   0.00000  Uiso   1.00
H387   H     0.33465   0.87172   0.28443   0.00000  Uiso   1.00
H388   H     0.66535   0.79495   0.21557   0.00000  Uiso   1.00
N389   N     0.64839   0.84735   0.26212   0.00000  Uiso   1.00
N390   N     0.35161   0.81932   0.23788   0.00000  Uiso   1.00
O391   O     0.46148   0.90476   0.24686   0.00000  Uiso   1.00
O392   O     0.53852   0.76191   0.25314   0.00000  Uiso   1.00
O393   O     0.56163   0.91420   0.25503   0.00000  Uiso   1.00
O394   O     0.43837   0.75247   0.24498   0.00000  Uiso   1.00
O395   O     0.42185   0.82597   0.30855   0.00000  Uiso   1.00
O396   O     0.57815   0.84070   0.19146   0.00000  Uiso   1.00
O397   O     0.52199   0.83540   0.31671   0.00000  Uiso   1.00
O398   O     0.47801   0.83126   0.18329   0.00000  Uiso   1.00
F399   F     0.63325   0.75029   0.45942   0.00000  Uiso   1.00
F400   F     0.37221   0.89824   0.03709   0.00000  Uiso   1.00
C401   C     0.84836   0.93338   0.25130   0.00000  Uiso   1.00
C402   C     0.81831   0.73328   0.24871   0.00000  Uiso   1.00
C403   C     0.76323   0.78954   0.03748   0.00000  Uiso   1.00
C404   C     0.90851   0.86063   0.45921   0.00000  Uiso   1.00
C405   C     0.72023   0.77645   0.01158   0.00000  Uiso   1.00
C406   C     0.95180   0.87275   0.48494   0.00000  Uiso   1.00
C407   C     0.85682   0.98934   0.25194   0.00000  Uiso   1.00
C408   C     0.80984   0.67733   0.24808   0.00000  Uiso   1.00
C409   C     0.79465   0.82928   0.33312   0.00000  Uiso   1.00
C410   C     0.87199   0.83702   0.16684   0.00000  Uiso   1.00
C411   C     0.77119   0.82170   0.38051   0.00000  Uiso   1.00
C412   C     0.89548   0.84140   0.11910   0.00000  Uiso   1.00
C413   C     0.69275   0.77888   0.44261   0.00000  Uiso   1.00
C414   C     0.97765   0.87401   0.05489   0.00000  Uiso   1.00
C415   C     0.70991   0.79320   0.39885   0.00000  Uiso   1.00
C416   C     0.95882   0.86413   0.09958   0.00000  Uiso   1.00
C417   C     0.81416   0.83790   0.40668   0.00000  Uiso   1.00
C418   C     0.85195   0.82596   0.09320   0.00000  Uiso   1.00
C419   C     0.79927   0.82237   0.45045   0.00000  Uiso   1.00
C420   C     0.86971   0.83436   0.04787   0.00000  Uiso   1.00
C421   C     0.73711   0.79270   0.46839   0.00000  Uiso   1.00
C422   C     0.93334   0.86026   0.02907   0.00000  Uiso   1.00
C423   C     0.84452   0.83472   0.47652   0.00000  Uiso   1.00
C424   C     0.82550   0.81960   0.02117   0.00000  Uiso   1.00
Cu425  Cu    0.77404   0.82775   0.24517   0.00000  Uiso   1.00
Cu426  Cu    0.89263   0.83892   0.25484   0.00000  Uiso   1.00
H427   H     0.67321   0.75333   0.02573   0.00000  Uiso   1.00
H428   H     0.66693   0.89231   0.46993   0.00000  Uiso   1.00
H429   H     0.80361   0.80933   0.10973   0.00000  Uiso   1.00
H430   H     0.85949   0.86204   0.39148   0.00000  Uiso   1.00
H431   H     0.99311   0.87625   0.11914   0.00000  Uiso   1.00
H432   H     0.67614   0.78032   0.37898   0.00000  Uiso   1.00
H433   H     0.74620   0.77405   0.07001   0.00000  Uiso   1.00
H434   H     0.92774   0.87128   0.42544   0.00000  Uiso   1.00
H435   H     0.90211   0.67978   0.25558   0.00000  Uiso   1.00
H436   H     0.76454   0.98689   0.24444   0.00000  Uiso   1.00
H437   H     0.66799   0.87172   0.28443   0.00000  Uiso   1.00
H438   H     0.99868   0.79495   0.21557   0.00000  Uiso   1.00
N439   N     0.98173   0.84735   0.26212   0.00000  Uiso   1.00
N440   N     0.68494   0.81932   0.23788   0.00000  Uiso   1.00
O441   O     0.79482   0.90476   0.24686   0.00000  Uiso   1.00
O442   O     0.87185   0.76191   0.25314   0.00000  Uiso   1.00
O443   O     0.89496   0.91420   0.25503   0.00000  Uiso   1.00
O444   O     0.77171   0.75247   0.24498   0.00000  Uiso   1.00
O445   O     0.75518   0.82597   0.30855   0.00000  Uiso   1.00
O446   O     0.91149   0.84070   0.19146   0.00000  Uiso   1.00
O447   O     0.85532   0.83540   0.31671   0.00000  Uiso   1.00
O448   O     0.81134   0.83126   0.18329   0.00000  Uiso   1.00
F449   F     0.96658   0.75029   0.45942   0.00000  Uiso   1.00
F450   F     0.70554   0.89824   0.03709   0.00000  Uiso   1.00
C451   C     0.18169   0.26672   0.75130   0.00000  Uiso   1.00
C452   C     0.15164   0.06662   0.74871   0.00000  Uiso   1.00
C453   C     0.09656   0.12287   0.53748   0.00000  Uiso   1.00
C454   C     0.24185   0.19396   0.95921   0.00000  Uiso   1.00
C455   C     0.05356   0.10979   0.51158   0.00000  Uiso   1.00
C456   C     0.28513   0.20609   0.98494   0.00000  Uiso   1.00
C457   C     0.19015   0.32267   0.75194   0.00000  Uiso   1.00
C458   C     0.14317   0.01066   0.74808   0.00000  Uiso   1.00
C459   C     0.12799   0.16261   0.83312   0.00000  Uiso   1.00
C460   C     0.20532   0.17035   0.66684   0.00000  Uiso   1.00
C461   C     0.10452   0.15503   0.88051   0.00000  Uiso   1.00
C462   C     0.22881   0.17473   0.61910   0.00000  Uiso   1.00
C463   C     0.02609   0.11221   0.94261   0.00000  Uiso   1.00
C464   C     0.31098   0.20734   0.55489   0.00000  Uiso   1.00
C465   C     0.04324   0.12653   0.89885   0.00000  Uiso   1.00
C466   C     0.29215   0.19746   0.59958   0.00000  Uiso   1.00
C467   C     0.14749   0.17123   0.90668   0.00000  Uiso   1.00
C468   C     0.18529   0.15929   0.59320   0.00000  Uiso   1.00
C469   C     0.13260   0.15570   0.95045   0.00000  Uiso   1.00
C470   C     0.20304   0.16770   0.54787   0.00000  Uiso   1.00
C471   C     0.07044   0.12603   0.96839   0.00000  Uiso   1.00
C472   C     0.26667   0.19359   0.52907   0.00000  Uiso   1.00
C473   C     0.17786   0.16806   0.97652   0.00000  Uiso   1.00
C474   C     0.15883   0.15293   0.52117   0.00000  Uiso   1.00
Cu475  Cu    0.10737   0.16108   0.74517   0.00000  Uiso   1.00
Cu476  Cu    0.22596   0.17225   0.75484   0.00000  Uiso   1.00
H477   H     0.00654   0.08666   0.52573   0.00000  Uiso   1.00
H478   H     0.00027   0.22564   0.96993   0.00000  Uiso   1.00
H479   H     0.13694   0.14266   0.60973   0.00000  Uiso   1.00
H480   H     0.19282   0.19537   0.89148   0.00000  Uiso   1.00
H481   H     0.32645   0.20958   0.61914   0.00000  Uiso   1.00
H482   H     0.00947   0.11365   0.87898   0.00000  Uiso   1.00
H483   H     0.07953   0.10738   0.57001   0.00000  Uiso   1.00
H484   H     0.26107   0.20461   0.92544   0.00000  Uiso   1.00
H485   H     0.23545   0.01312   0.75558   0.00000  Uiso   1.00
H486   H     0.09788   0.32022   0.74444   0.00000  Uiso   1.00
H487   H     0.00132   0.20505   0.78443   0.00000  Uiso   1.00
H488   H     0.33201   0.12828   0.71557   0.00000  Uiso   1.00
N489   N     0.31506   0.18068   0.76212   0.00000  Uiso   1.00
N490   N     0.01827   0.15265   0.73788   0.00000  Uiso   1.00
O491   O     0.12815   0.23809   0.74686   0.00000  Uiso   1.00
O492   O     0.20518   0.09524   0.75314   0.00000  Uiso   1.00
O493   O     0.22829   0.24753   0.75503   0.00000  Uiso   1.00
O494   O     0.10504   0.08580   0.74498   0.00000  Uiso   1.00
O495   O     0.08851   0.15930   0.80855   0.00000  Uiso   1.00
O496   O     0.24482   0.17403   0.69146   0.00000  Uiso   1.00
O497   O     0.18866   0.16874   0.81671   0.00000  Uiso   1.00
O498   O     0.14468   0.16460   0.68329   0.00000  Uiso   1.00
F499   F     0.29991   0.08363   0.95942   0.00000  Uiso   1.00
F500   F     0.03887   0.23157   0.53709   0.00000  Uiso   1.00
C501   C     0.51502   0.26672   0.75130   0.00000  Uiso   1.00
C502   C     0.48497   0.06662   0.74871   0.00000  Uiso   1.00
C503   C     0.42989   0.12287   0.53748   0.00000  Uiso   1.00
C504   C     0.57518   0.19396   0.95921   0.00000  Uiso   1.00
C505   C     0.38690   0.10979   0.51158   0.00000  Uiso   1.00
C506   C     0.61847   0.20609   0.98494   0.00000  Uiso   1.00
C507   C     0.52349   0.32267   0.75194   0.00000  Uiso   1.00
C508   C     0.47650   0.01066   0.74808   0.00000  Uiso   1.00
C509   C     0.46132   0.16261   0.83312   0.00000  Uiso   1.00
C510   C     0.53865   0.17035   0.66684   0.00000  Uiso   1.00
C511   C     0.43786   0.15503   0.88051   0.00000  Uiso   1.00
C512   C     0.56214   0.17473   0.61910   0.00000  Uiso   1.00
C513   C     0.35942   0.11221   0.94261   0.00000  Uiso   1.00
C514   C     0.64432   0.20734   0.55489   0.00000  Uiso   1.00
C515   C     0.37657   0.12653   0.89885   0.00000  Uiso   1.00
C516   C     0.62549   0.19746   0.59958   0.00000  Uiso   1.00
C517   C     0.48082   0.17123   0.90668   0.00000  Uiso   1.00
C518   C     0.51862   0.15929   0.59320   0.00000  Uiso   1.00
C519   C     0.46594   0.15570   0.95045   0.00000  Uiso   1.00
C520   C     0.53638   0.16770   0.54787   0.00000  Uiso   1.00
C521   C     0.40378   0.12603   0.96839   0.00000  Uiso   1.00
C522   C     0.60001   0.19359   0.52907   0.00000  Uiso   1.00
C523   C     0.51119   0.16806   0.97652   0.00000  Uiso   1.00
C524   C     0.49216   0.15293   0.52117   0.00000  Uiso   1.00
Cu525  Cu    0.44071   0.16108   0.74517   0.00000  Uiso   1.00
Cu526  Cu    0.55929   0.17225   0.75484   0.00000  Uiso   1.00
H527   H     0.33987   0.08666   0.52573   0.00000  Uiso   1.00
H528   H     0.33360   0.22564   0.96993   0.00000  Uiso   1.00
H529   H     0.47028   0.14266   0.60973   0.00000  Uiso   1.00
H530   H     0.52616   0.19537   0.89148   0.00000  Uiso   1.00
H531   H     0.65978   0.20958   0.61914   0.00000  Uiso   1.00
H532   H     0.34280   0.11365   0.87898   0.00000  Uiso   1.00
H533   H     0.41286   0.10738   0.57001   0.00000  Uiso   1.00
H534   H     0.59440   0.20461   0.92544   0.00000  Uiso   1.00
H535   H     0.56878   0.01312   0.75558   0.00000  Uiso   1.00
H536   H     0.43121   0.32022   0.74444   0.00000  Uiso   1.00
H537   H     0.33465   0.20505   0.78443   0.00000  Uiso   1.00
H538   H     0.66535   0.12828   0.71557   0.00000  Uiso   1.00
N539   N     0.64839   0.18068   0.76212   0.00000  Uiso   1.00
N540   N     0.35161   0.15265   0.73788   0.00000  Uiso   1.00
O541   O     0.46148   0.23809   0.74686   0.00000  Uiso   1.00
O542   O     0.53852   0.09524   0.75314   0.00000  Uiso   1.00
O543   O     0.56163   0.24753   0.75503   0.00000  Uiso   1.00
O544   O     0.43837   0.08580   0.74498   0.00000  Uiso   1.00
O545   O     0.42185   0.15930   0.80855   0.00000  Uiso   1.00
O546   O     0.57815   0.17403   0.69146   0.00000  Uiso   1.00
O547   O     0.52199   0.16874   0.81671   0.00000  Uiso   1.00
O548   O     0.47801   0.16460   0.68329   0.00000  Uiso   1.00
F549   F     0.63325   0.08363   0.95942   0.00000  Uiso   1.00
F550   F     0.37221   0.23157   0.53709   0.00000  Uiso   1.00
C551   C     0.84836   0.26672   0.75130   0.00000  Uiso   1.00
C552   C     0.81831   0.06662   0.74871   0.00000  Uiso   1.00
C553   C     0.76323   0.12287   0.53748   0.00000  Uiso   1.00
C554   C     0.90851   0.19396   0.95921   0.00000  Uiso   1.00
C555   C     0.72023   0.10979   0.51158   0.00000  Uiso   1.00
C556   C     0.95180   0.20609   0.98494   0.00000  Uiso   1.00
C557   C     0.85682   0.32267   0.75194   0.00000  Uiso   1.00
C558   C     0.80984   0.01066   0.74808   0.00000  Uiso   1.00
C559   C     0.79465   0.16261   0.83312   0.00000  Uiso   1.00
C560   C     0.87199   0.17035   0.66684   0.00000  Uiso   1.00
C561   C     0.77119   0.15503   0.88051   0.00000  Uiso   1.00
C562   C     0.89548   0.17473   0.61910   0.00000  Uiso   1.00
C563   C     0.69275   0.11221   0.94261   0.00000  Uiso   1.00
C564   C     0.97765   0.20734   0.55489   0.00000  Uiso   1.00
C565   C     0.70991   0.12653   0.89885   0.00000  Uiso   1.00
C566   C     0.95882   0.19746   0.59958   0.00000  Uiso   1.00
C567   C     0.81416   0.17123   0.90668   0.00000  Uiso   1.00
C568   C     0.85195   0.15929   0.59320   0.00000  Uiso   1.00
C569   C     0.79927   0.15570   0.95045   0.00000  Uiso   1.00
C570   C     0.86971   0.16770   0.54787   0.00000  Uiso   1.00
C571   C     0.73711   0.12603   0.96839   0.00000  Uiso   1.00
C572   C     0.93334   0.19359   0.52907   0.00000  Uiso   1.00
C573   C     0.84452   0.16806   0.97652   0.00000  Uiso   1.00
C574   C     0.82550   0.15293   0.52117   0.00000  Uiso   1.00
Cu575  Cu    0.77404   0.16108   0.74517   0.00000  Uiso   1.00
Cu576  Cu    0.89263   0.17225   0.75484   0.00000  Uiso   1.00
H577   H     0.67321   0.08666   0.52573   0.00000  Uiso   1.00
H578   H     0.66693   0.22564   0.96993   0.00000  Uiso   1.00
H579   H     0.80361   0.14266   0.60973   0.00000  Uiso   1.00
H580   H     0.85949   0.19537   0.89148   0.00000  Uiso   1.00
H581   H     0.99311   0.20958   0.61914   0.00000  Uiso   1.00
H582   H     0.67614   0.11365   0.87898   0.00000  Uiso   1.00
H583   H     0.74620   0.10738   0.57001   0.00000  Uiso   1.00
H584   H     0.92774   0.20461   0.92544   0.00000  Uiso   1.00
H585   H     0.90211   0.01312   0.75558   0.00000  Uiso   1.00
H586   H     0.76454   0.32022   0.74444   0.00000  Uiso   1.00
H587   H     0.66799   0.20505   0.78443   0.00000  Uiso   1.00
H588   H     0.99868   0.12828   0.71557   0.00000  Uiso   1.00
N589   N     0.98173   0.18068   0.76212   0.00000  Uiso   1.00
N590   N     0.68494   0.15265   0.73788   0.00000  Uiso   1.00
O591   O     0.79482   0.23809   0.74686   0.00000  Uiso   1.00
O592   O     0.87185   0.09524   0.75314   0.00000  Uiso   1.00
O593   O     0.89496   0.24753   0.75503   0.00000  Uiso   1.00
O594   O     0.77171   0.08580   0.74498   0.00000  Uiso   1.00
O595   O     0.75518   0.15930   0.80855   0.00000  Uiso   1.00
O596   O     0.91149   0.17403   0.69146   0.00000  Uiso   1.00
O597   O     0.85532   0.16874   0.81671   0.00000  Uiso   1.00
O598   O     0.81134   0.16460   0.68329   0.00000  Uiso   1.00
F599   F     0.96658   0.08363   0.95942   0.00000  Uiso   1.00
F600   F     0.70554   0.23157   0.53709   0.00000  Uiso   1.00
C601   C     0.18169   0.60005   0.75130   0.00000  Uiso   1.00
C602   C     0.15164   0.39995   0.74871   0.00000  Uiso   1.00
C603   C     0.09656   0.45621   0.53748   0.00000  Uiso   1.00
C604   C     0.24185   0.52729   0.95921   0.00000  Uiso   1.00
C605   C     0.05356   0.44312   0.51158   0.00000  Uiso   1.00
C606   C     0.28513   0.53942   0.98494   0.00000  Uiso   1.00
C607   C     0.19015   0.65601   0.75194   0.00000  Uiso   1.00
C608   C     0.14317   0.34399   0.74808   0.00000  Uiso   1.00
C609   C     0.12799   0.49594   0.83312   0.00000  Uiso   1.00
C610   C     0.20532   0.50368   0.66684   0.00000  Uiso   1.00
C611   C     0.10452   0.48836   0.88051   0.00000  Uiso   1.00
C612   C     0.22881   0.50806   0.61910   0.00000  Uiso   1.00
C613   C     0.02609   0.44554   0.94261   0.00000  Uiso   1.00
C614   C     0.31098   0.54068   0.55489   0.00000  Uiso   1.00
C615   C     0.04324   0.45987   0.89885   0.00000  Uiso   1.00
C616   C     0.29215   0.53080   0.59958   0.00000  Uiso   1.00
C617   C     0.14749   0.50456   0.90668   0.00000  Uiso   1.00
C618   C     0.18529   0.49262   0.59320   0.00000  Uiso   1.00
C619   C     0.13260   0.48904   0.95045   0.00000  Uiso   1.00
C620   C     0.20304   0.50103   0.54787   0.00000  Uiso   1.00
C621   C     0.07044   0.45936   0.96839   0.00000  Uiso   1.00
C622   C     0.26667   0.52693   0.52907   0.00000  Uiso   1.00
C623   C     0.17786   0.50139   0.97652   0.00000  Uiso   1.00
C624   C     0.15883   0.48626   0.52117   0.00000  Uiso   1.00
Cu625  Cu    0.10737   0.49441   0.74517   0.00000  Uiso   1.00
Cu626  Cu    0.22596   0.50559   0.75484   0.00000  Uiso   1.00
H627   H     0.00654   0.42000   0.52573   0.00000  Uiso   1.00
H628   H     0.00027   0.55898   0.96993   0.00000  Uiso   1.00
H629   H     0.13694   0.47600   0.60973   0.00000  Uiso   1.00
H630   H     0.19282   0.52870   0.89148   0.00000  Uiso   1.00
H631   H     0.32645   0.54291   0.61914   0.00000  Uiso   1.00
H632   H     0.00947   0.44699   0.87898   0.00000  Uiso   1.00
H633   H     0.07953   0.44071   0.57001   0.00000  Uiso   1.00
H634   H     0.26107   0.53794   0.92544   0.00000  Uiso   1.00
H635   H     0.23545   0.34645   0.75558   0.00000  Uiso   1.00
H636   H     0.09788   0.65355   0.74444   0.00000  Uiso   1.00
H637   H     0.00132   0.53838   0.78443   0.00000  Uiso   1.00
H638   H     0.33201   0.46162   0.71557   0.00000  Uiso   1.00
N639   N     0.31506   0.51401   0.76212   0.00000  Uiso   1.00
N640   N     0.01827   0.48599   0.73788   0.00000  Uiso   1.00
O641   O     0.12815   0.57142   0.74686   0.00000  Uiso   1.00
O642   O     0.20518   0.42858   0.75314   0.00000  Uiso   1.00
O643   O     0.22829   0.58086   0.75503   0.00000  Uiso   1.00
O644   O     0.10504   0.41914   0.74498   0.00000  Uiso   1.00
O645   O     0.08851   0.49263   0.80855   0.00000  Uiso   1.00
O646   O     0.24482   0.50737   0.69146   0.00000  Uiso   1.00
O647   O     0.18866   0.50207   0.81671   0.00000  Uiso   1.00
O648   O     0.14468   0.49793   0.68329   0.00000  Uiso   1.00
F649   F     0.29991   0.41696   0.95942   0.00000  Uiso   1.00
F650   F     0.03887   0.56491   0.53709   0.00000  Uiso   1.00
C651   C     0.51502   0.60005   0.75130   0.00000  Uiso   1.00
C652   C     0.48497   0.39995   0.74871   0.00000  Uiso   1.00
C653   C     0.42989   0.45621   0.53748   0.00000  Uiso   1.00
C654   C     0.57518   0.52729   0.95921   0.00000  Uiso   1.00
C655   C     0.38690   0.44312   0.51158   0.00000  Uiso   1.00
C656   C     0.61847   0.53942   0.98494   0.00000  Uiso   1.00
C657   C     0.52349   0.65601   0.75194   0.00000  Uiso   1.00
C658   C     0.47650   0.34399   0.74808   0.00000  Uiso   1.00
C659   C     0.46132   0.49594   0.83312   0.00000  Uiso   1.00
C660   C     0.53865   0.50368   0.66684   0.00000  Uiso   1.00
C661   C     0.43786   0.48836   0.88051   0.00000  Uiso   1.00
C662   C     0.56214   0.50806   0.61910   0.00000  Uiso   1.00
C663   C     0.35942   0.44554   0.94261   0.00000  Uiso   1.00
C664   C     0.64432   0.54068   0.55489   0.00000  Uiso   1.00
C665   C     0.37657   0.45987   0.89885   0.00000  Uiso   1.00
C666   C     0.62549   0.53080   0.59958   0.00000  Uiso   1.00
C667   C     0.48082   0.50456   0.90668   0.00000  Uiso   1.00
C668   C     0.51862   0.49262   0.59320   0.00000  Uiso   1.00
C669   C     0.46594   0.48904   0.95045   0.00000  Uiso   1.00
C670   C     0.53638   0.50103   0.54787   0.00000  Uiso   1.00
C671   C     0.40378   0.45936   0.96839   0.00000  Uiso   1.00
C672   C     0.60001   0.52693   0.52907   0.00000  Uiso   1.00
C673   C     0.51119   0.50139   0.97652   0.00000  Uiso   1.00
C674   C     0.49216   0.48626   0.52117   0.00000  Uiso   1.00
Cu675  Cu    0.44071   0.49441   0.74517   0.00000  Uiso   1.00
Cu676  Cu    0.55929   0.50559   0.75484   0.00000  Uiso   1.00
H677   H     0.33987   0.42000   0.52573   0.00000  Uiso   1.00
H678   H     0.33360   0.55898   0.96993   0.00000  Uiso   1.00
H679   H     0.47028   0.47600   0.60973   0.00000  Uiso   1.00
H680   H     0.52616   0.52870   0.89148   0.00000  Uiso   1.00
H681   H     0.65978   0.54291   0.61914   0.00000  Uiso   1.00
H682   H     0.34280   0.44699   0.87898   0.00000  Uiso   1.00
H683   H     0.41286   0.44071   0.57001   0.00000  Uiso   1.00
H684   H     0.59440   0.53794   0.92544   0.00000  Uiso   1.00
H685   H     0.56878   0.34645   0.75558   0.00000  Uiso   1.00
H686   H     0.43121   0.65355   0.74444   0.00000  Uiso   1.00
H687   H     0.33465   0.53838   0.78443   0.00000  Uiso   1.00
H688   H     0.66535   0.46162   0.71557   0.00000  Uiso   1.00
N689   N     0.64839   0.51401   0.76212   0.00000  Uiso   1.00
N690   N     0.35161   0.48599   0.73788   0.00000  Uiso   1.00
O691   O     0.46148   0.57142   0.74686   0.00000  Uiso   1.00
O692   O     0.53852   0.42858   0.75314   0.00000  Uiso   1.00
O693   O     0.56163   0.58086   0.75503   0.00000  Uiso   1.00
O694   O     0.43837   0.41914   0.74498   0.00000  Uiso   1.00
O695   O     0.42185   0.49263   0.80855   0.00000  Uiso   1.00
O696   O     0.57815   0.50737   0.69146   0.00000  Uiso   1.00
O697   O     0.52199   0.50207   0.81671   0.00000  Uiso   1.00
O698   O     0.47801   0.49793   0.68329   0.00000  Uiso   1.00
F699   F     0.63325   0.41696   0.95942   0.00000  Uiso   1.00
F700   F     0.37221   0.56491   0.53709   0.00000  Uiso   1.00
C701   C     0.84836   0.60005   0.75130   0.00000  Uiso   1.00
C702   C     0.81831   0.39995   0.74871   0.00000  Uiso   1.00
C703   C     0.76323   0.45621   0.53748   0.00000  Uiso   1.00
C704   C     0.90851   0.52729   0.95921   0.00000  Uiso   1.00
C705   C     0.72023   0.44312   0.51158   0.00000  Uiso   1.00
C706   C     0.95180   0.53942   0.98494   0.00000  Uiso   1.00
C707   C     0.85682   0.65601   0.75194   0.00000  Uiso   1.00
C708   C     0.80984   0.34399   0.74808   0.00000  Uiso   1.00
C709   C     0.79465   0.49594   0.83312   0.00000  Uiso   1.00
C710   C     0.87199   0.50368   0.66684   0.00000  Uiso   1.00
C711   C     0.77119   0.48836   0.88051   0.00000  Uiso   1.00
C712   C     0.89548   0.50806   0.61910   0.00000  Uiso   1.00
C713   C     0.69275   0.44554   0.94261   0.00000  Uiso   1.00
C714   C     0.97765   0.54068   0.55489   0.00000  Uiso   1.00
C715   C     0.70991   0.45987   0.89885   0.00000  Uiso   1.00
C716   C     0.95882   0.53080   0.59958   0.00000  Uiso   1.00
C717   C     0.81416   0.50456   0.90668   0.00000  Uiso   1.00
C718   C     0.85195   0.49262   0.59320   0.00000  Uiso   1.00
C719   C     0.79927   0.48904   0.95045   0.00000  Uiso   1.00
C720   C     0.86971   0.50103   0.54787   0.00000  Uiso   1.00
C721   C     0.73711   0.45936   0.96839   0.00000  Uiso   1.00
C722   C     0.93334   0.52693   0.52907   0.00000  Uiso   1.00
C723   C     0.84452   0.50139   0.97652   0.00000  Uiso   1.00
C724   C     0.82550   0.48626   0.52117   0.00000  Uiso   1.00
Cu725  Cu    0.77404   0.49441   0.74517   0.00000  Uiso   1.00
Cu726  Cu    0.89263   0.50559   0.75484   0.00000  Uiso   1.00
H727   H     0.67321   0.42000   0.52573   0.00000  Uiso   1.00
H728   H     0.66693   0.55898   0.96993   0.00000  Uiso   1.00
H729   H     0.80361   0.47600   0.60973   0.00000  Uiso   1.00
H730   H     0.85949   0.52870   0.89148   0.00000  Uiso   1.00
H731   H     0.99311   0.54291   0.61914   0.00000  Uiso   1.00
H732   H     0.67614   0.44699   0.87898   0.00000  Uiso   1.00
H733   H     0.74620   0.44071   0.57001   0.00000  Uiso   1.00
H734   H     0.92774   0.53794   0.92544   0.00000  Uiso   1.00
H735   H     0.90211   0.34645   0.75558   0.00000  Uiso   1.00
H736   H     0.76454   0.65355   0.74444   0.00000  Uiso   1.00
H737   H     0.66799   0.53838   0.78443   0.00000  Uiso   1.00
H738   H     0.99868   0.46162   0.71557   0.00000  Uiso   1.00
N739   N     0.98173   0.51401   0.76212   0.00000  Uiso   1.00
N740   N     0.68494   0.48599   0.73788   0.00000  Uiso   1.00
O741   O     0.79482   0.57142   0.74686   0.00000  Uiso   1.00
O742   O     0.87185   0.42858   0.75314   0.00000  Uiso   1.00
O743   O     0.89496   0.58086   0.75503   0.00000  Uiso   1.00
O744   O     0.77171   0.41914   0.74498   0.00000  Uiso   1.00
O745   O     0.75518   0.49263   0.80855   0.00000  Uiso   1.00
O746   O     0.91149   0.50737   0.69146   0.00000  Uiso   1.00
O747   O     0.85532   0.50207   0.81671   0.00000  Uiso   1.00
O748   O     0.81134   0.49793   0.68329   0.00000  Uiso   1.00
F749   F     0.96658   0.41696   0.95942   0.00000  Uiso   1.00
F750   F     0.70554   0.56491   0.53709   0.00000  Uiso   1.00
C751   C     0.18169   0.93338   0.75130   0.00000  Uiso   1.00
C752   C     0.15164   0.73328   0.74871   0.00000  Uiso   1.00
C753   C     0.09656   0.78954   0.53748   0.00000  Uiso   1.00
C754   C     0.24185   0.86063   0.95921   0.00000  Uiso   1.00
C755   C     0.05356   0.77645   0.51158   0.00000  Uiso   1.00
C756   C     0.28513   0.87275   0.98494   0.00000  Uiso   1.00
C757   C     0.19015   0.98934   0.75194   0.00000  Uiso   1.00
C758   C     0.14317   0.67733   0.74808   0.00000  Uiso   1.00
C759   C     0.12799   0.82928   0.83312   0.00000  Uiso   1.00
C760   C     0.20532   0.83702   0.66684   0.00000  Uiso   1.00
C761   C     0.10452   0.82170   0.88051   0.00000  Uiso   1.00
C762   C     0.22881   0.84140   0.61910   0.00000  Uiso   1.00
C763   C     0.02609   0.77888   0.94261   0.00000  Uiso   1.00
C764   C     0.31098   0.87401   0.55489   0.00000  Uiso   1.00
C765   C     0.04324   0.79320   0.89885   0.00000  Uiso   1.00
C766   C     0.29215   0.86413   0.59958   0.00000  Uiso   1.00
C767   C     0.14749   0.83790   0.90668   0.00000  Uiso   1.00
C768   C     0.18529   0.82596   0.59320   0.00000  Uiso   1.00
C769   C     0.13260   0.82237   0.95045   0.00000  Uiso   1.00
C770   C     0.20304   0.83436   0.54787   0.00000  Uiso   1.00
C771   C     0.07044   0.79270   0.96839   0.00000  Uiso   1.00
C772   C     0.26667   0.86026   0.52907   0.00000  Uiso   1.00
C773   C     0.17786   0.83472   0.97652   0.00000  Uiso   1.00
C774   C     0.15883   0.81960   0.52117   0.00000  Uiso   1.00
Cu775  Cu    0.10737   0.82775   0.74517   0.00000  Uiso   1.00
Cu776  Cu    0.22596   0.83892   0.75484   0.00000  Uiso   1.00
H777   H     0.00654   0.75333   0.52573   0.00000  Uiso   1.00
H778   H     0.00027   0.89231   0.96993   0.00000  Uiso   1.00
H779   H     0.13694   0.80933   0.60973   0.00000  Uiso   1.00
H780   H     0.19282   0.86204   0.89148   0.00000  Uiso   1.00
H781   H     0.32645   0.87625   0.61914   0.00000  Uiso   1.00
H782   H     0.00947   0.78032   0.87898   0.00000  Uiso   1.00
H783   H     0.07953   0.77405   0.57001   0.00000  Uiso   1.00
H784   H     0.26107   0.87128   0.92544   0.00000  Uiso   1.00
H785   H     0.23545   0.67978   0.75558   0.00000  Uiso   1.00
H786   H     0.09788   0.98689   0.74444   0.00000  Uiso   1.00
H787   H     0.00132   0.87172   0.78443   0.00000  Uiso   1.00
H788   H     0.33201   0.79495   0.71557   0.00000  Uiso   1.00
N789   N     0.31506   0.84735   0.76212   0.00000  Uiso   1.00
N790   N     0.01827   0.81932   0.73788   0.00000  Uiso   1.00
O791   O     0.12815   0.90476   0.74686   0.00000  Uiso   1.00
O792   O     0.20518   0.76191   0.75314   0.00000  Uiso   1.00
O793   O     0.22829   0.91420   0.75503   0.00000  Uiso   1.00
O794   O     0.10504   0.75247   0.74498   0.00000  Uiso   1.00
O795   O     0.08851   0.82597   0.80855   0.00000  Uiso   1.00
O796   O     0.24482   0.84070   0.69146   0.00000  Uiso   1.00
O797   O     0.18866   0.83540   0.81671   0.00000  Uiso   1.00
O798   O     0.14468   0.83126   0.68329   0.00000  Uiso   1.00
F799   F     0.29991   0.75029   0.95942   0.00000  Uiso   1.00
F800   F     0.03887   0.89824   0.53709   0.00000  Uiso   1.00
C801   C     0.51502   0.93338   0.75130   0.00000  Uiso   1.00
C802   C     0.48497   0.73328   0.74871   0.00000  Uiso   1.00
C803   C     0.42989   0.78954   0.53748   0.00000  Uiso   1.00
C804   C     0.57518   0.86063   0.95921   0.00000  Uiso   1.00
C805   C     0.38690   0.77645   0.51158   0.00000  Uiso   1.00
C806   C     0.61847   0.87275   0.98494   0.00000  Uiso   1.00
C807   C     0.52349   0.98934   0.75194   0.00000  Uiso   1.00
C808   C     0.47650   0.67733   0.74808   0.00000  Uiso   1.00
C809   C     0.46132   0.82928   0.83312   0.00000  Uiso   1.00
C810   C     0.53865   0.83702   0.66684   0.00000  Uiso   1.00
C811   C     0.43786   0.82170   0.88051   0.00000  Uiso   1.00
C812   C     0.56214   0.84140   0.61910   0.00000  Uiso   1.00
C813   C     0.35942   0.77888   0.94261   0.00000  Uiso   1.00
C814   C     0.64432   0.87401   0.55489   0.00000  Uiso   1.00
C815   C     0.37657   0.79320   0.89885   0.00000  Uiso   1.00
C816   C     0.62549   0.86413   0.59958   0.00000  Uiso   1.00
C817   C     0.48082   0.83790   0.90668   0.00000  Uiso   1.00
C818   C     0.51862   0.82596   0.59320   0.00000  Uiso   1.00
C819   C     0.46594   0.82237   0.95045   0.00000  Uiso   1.00
C820   C     0.53638   0.83436   0.54787   0.00000  Uiso   1.00
C821   C     0.40378   0.79270   0.96839   0.00000  Uiso   1.00
C822   C     0.60001   0.86026   0.52907   0.00000  Uiso   1.00
C823   C     0.51119   0.83472   0.97652   0.00000  Uiso   1.00
C824   C     0.49216   0.81960   0.52117   0.00000  Uiso   1.00
Cu825  Cu    0.44071   0.82775   0.74517   0.00000  Uiso   1.00
Cu826  Cu    0.55929   0.83892   0.75484   0.00000  Uiso   1.00
H827   H     0.33987   0.75333   0.52573   0.00000  Uiso   1.00
H828   H     0.33360   0.89231   0.96993   0.00000  Uiso   1.00
H829   H     0.47028   0.80933   0.60973   0.00000  Uiso   1.00
H830   H     0.52616   0.86204   0.89148   0.00000  Uiso   1.00
H831   H     0.65978   0.87625   0.61914   0.00000  Uiso   1.00
H832   H     0.34280   0.78032   0.87898   0.00000  Uiso   1.00
H833   H     0.41286   0.77405   0.57001   0.00000  Uiso   1.00
H834   H     0.59440   0.87128   0.92544   0.00000  Uiso   1.00
H835   H     0.56878   0.67978   0.75558   0.00000  Uiso   1.00
H836   H     0.43121   0.98689   0.74444   0.00000  Uiso   1.00
H837   H     0.33465   0.87172   0.78443   0.00000  Uiso   1.00
H838   H     0.66535   0.79495   0.71557   0.00000  Uiso   1.00
N839   N     0.64839   0.84735   0.76212   0.00000  Uiso   1.00
N840   N     0.35161   0.81932   0.73788   0.00000  Uiso   1.00
O841   O     0.46148   0.90476   0.74686   0.00000  Uiso   1.00
O842   O     0.53852   0.76191   0.75314   0.00000  Uiso   1.00
O843   O     0.56163   0.91420   0.75503   0.00000  Uiso   1.00
O844   O     0.43837   0.75247   0.74498   0.00000  Uiso   1.00
O845   O     0.42185   0.82597   0.80855   0.00000  Uiso   1.00
O846   O     0.57815   0.84070   0.69146   0.00000  Uiso   1.00
O847   O     0.52199   0.83540   0.81671   0.00000  Uiso   1.00
O848   O     0.47801   0.83126   0.68329   0.00000  Uiso   1.00
F849   F     0.63325   0.75029   0.95942   0.00000  Uiso   1.00
F850   F     0.37221   0.89824   0.53709   0.00000  Uiso   1.00
C851   C     0.84836   0.93338   0.75130   0.00000  Uiso   1.00
C852   C     0.81831   0.73328   0.74871   0.00000  Uiso   1.00
C853   C     0.76323   0.78954   0.53748   0.00000  Uiso   1.00
C854   C     0.90851   0.86063   0.95921   0.00000  Uiso   1.00
C855   C     0.72023   0.77645   0.51158   0.00000  Uiso   1.00
C856   C     0.95180   0.87275   0.98494   0.00000  Uiso   1.00
C857   C     0.85682   0.98934   0.75194   0.00000  Uiso   1.00
C858   C     0.80984   0.67733   0.74808   0.00000  Uiso   1.00
C859   C     0.79465   0.82928   0.83312   0.00000  Uiso   1.00
C860   C     0.87199   0.83702   0.66684   0.00000  Uiso   1.00
C861   C     0.77119   0.82170   0.88051   0.00000  Uiso   1.00
C862   C     0.89548   0.84140   0.61910   0.00000  Uiso   1.00
C863   C     0.69275   0.77888   0.94261   0.00000  Uiso   1.00
C864   C     0.97765   0.87401   0.55489   0.00000  Uiso   1.00
C865   C     0.70991   0.79320   0.89885   0.00000  Uiso   1.00
C866   C     0.95882   0.86413   0.59958   0.00000  Uiso   1.00
C867   C     0.81416   0.83790   0.90668   0.00000  Uiso   1.00
C868   C     0.85195   0.82596   0.59320   0.00000  Uiso   1.00
C869   C     0.79927   0.82237   0.95045   0.00000  Uiso   1.00
C870   C     0.86971   0.83436   0.54787   0.00000  Uiso   1.00
C871   C     0.73711   0.79270   0.96839   0.00000  Uiso   1.00
C872   C     0.93334   0.86026   0.52907   0.00000  Uiso   1.00
C873   C     0.84452   0.83472   0.97652   0.00000  Uiso   1.00
C874   C     0.82550   0.81960   0.52117   0.00000  Uiso   1.00
Cu875  Cu    0.77404   0.82775   0.74517   0.00000  Uiso   1.00
Cu876  Cu    0.89263   0.83892   0.75484   0.00000  Uiso   1.00
H877   H     0.67321   0.75333   0.52573   0.00000  Uiso   1.00
H878   H     0.66693   0.89231   0.96993   0.00000  Uiso   1.00
H879   H     0.80361   0.80933   0.60973   0.00000  Uiso   1.00
H880   H     0.85949   0.86204   0.89148   0.00000  Uiso   1.00
H881   H     0.99311   0.87625   0.61914   0.00000  Uiso   1.00
H882   H     0.67614   0.78032   0.87898   0.00000  Uiso   1.00
H883   H     0.74620   0.77405   0.57001   0.00000  Uiso   1.00
H884   H     0.92774   0.87128   0.92544   0.00000  Uiso   1.00
H885   H     0.90211   0.67978   0.75558   0.00000  Uiso   1.00
H886   H     0.76454   0.98689   0.74444   0.00000  Uiso   1.00
H887   H     0.66799   0.87172   0.78443   0.00000  Uiso   1.00
H888   H     0.99868   0.79495   0.71557   0.00000  Uiso   1.00
N889   N     0.98173   0.84735   0.76212   0.00000  Uiso   1.00
N890   N     0.68494   0.81932   0.73788   0.00000  Uiso   1.00
O891   O     0.79482   0.90476   0.74686   0.00000  Uiso   1.00
O892   O     0.87185   0.76191   0.75314   0.00000  Uiso   1.00
O893   O     0.89496   0.91420   0.75503   0.00000  Uiso   1.00
O894   O     0.77171   0.75247   0.74498   0.00000  Uiso   1.00
O895   O     0.75518   0.82597   0.80855   0.00000  Uiso   1.00
O896   O     0.91149   0.84070   0.69146   0.00000  Uiso   1.00
O897   O     0.85532   0.83540   0.81671   0.00000  Uiso   1.00
O898   O     0.81134   0.83126   0.68329   0.00000  Uiso   1.00
F899   F     0.96658   0.75029   0.95942   0.00000  Uiso   1.00
F900   F     0.70554   0.89824   0.53709   0.00000  Uiso   1.00
loop_
_geom_bond_atom_site_label_1
_geom_bond_atom_site_label_2
_geom_bond_distance
_geom_bond_site_symmetry_2
_ccdc_geom_bond_type
C1     C7      1.428   .     S
C1     O41     1.292   .     A
C1     O43     1.286   .     A
C2     O42     1.292   .     A
C2     C8      1.428   .     S
C2     O44     1.286   .     A
C3     C24     1.416   .     A
C3     H33     1.076   .     S
C3     C5      1.387   .     A
C4     H34     1.075   .     S
C4     C6      1.387   .     A
C4     C23     1.417   .     A
C5     H27     1.084   .     S
C5     C471    1.392   1_554 S
C6     C472    1.392   .     S
C6     H78     1.084   .     S
C7     C158    1.328   .     S
C7     H185    1.088   .     S
C8     C307    1.328   1_545 S
C8     H336    1.088   1_545 S
C9     O45     1.302   .     A
C9     C11     1.468   .     S
C9     O47     1.296   .     A
C10    O46     1.303   .     A
C10    C12     1.470   .     S
C10    O48     1.296   .     A
C11    C17     1.398   .     A
C11    C15     1.397   .     A
C12    C18     1.400   .     A
C12    C16     1.398   .     A
C13    C21     1.409   .     A
C13    C15     1.393   .     A
C13    F149    1.359   1_455 S
C14    C16     1.393   .     A
C14    C22     1.409   .     A
C14    F100    1.359   .     S
C15    H32     1.083   .     S
C16    H31     1.083   .     S
C17    H30     1.075   .     S
C17    C19     1.406   .     A
C18    H29     1.075   .     S
C18    C20     1.406   .     A
C19    C23     1.430   .     A
C19    C21     1.420   .     A
C20    C22     1.419   .     A
C20    C24     1.429   .     A
C21    C455    1.392   .     S
C22    C456    1.392   1_554 S
C23    C474    1.425   .     S
C24    C473    1.425   1_554 S
Cu25   O48     1.920   .     S
Cu25   O44     1.952   .     S
Cu25   N40     2.020   .     S
Cu25   O41     1.956   .     S
Cu25   O45     1.942   .     S
Cu25   Cu26    2.689   .     S
Cu26   O47     1.920   .     S
Cu26   O43     1.952   .     S
Cu26   N39     2.020   .     S
Cu26   O42     1.956   .     S
Cu26   O46     1.942   .     S
H28    C106    1.084   1_455 S
H35    C307    1.088   1_545 S
H36    C158    1.088   .     S
H37    N139    1.029   1_455 S
H38    N90     1.029   .     S
N39    H87     1.029   .     S
N39    N90     1.285   .     S
N40    H138    1.029   1_455 S
N40    N139    1.285   1_455 S
F49    C63     1.359   .     S
F50    C114    1.359   1_455 S
C51    C57     1.428   .     S
C51    O91     1.292   .     A
C51    O93     1.286   .     A
C52    O92     1.292   .     A
C52    C58     1.428   .     S
C52    O94     1.286   .     A
C53    C74     1.416   .     A
C53    H83     1.076   .     S
C53    C55     1.387   .     A
C54    H84     1.075   .     S
C54    C56     1.387   .     A
C54    C73     1.417   .     A
C55    H77     1.084   .     S
C55    C521    1.392   1_554 S
C56    C522    1.392   .     S
C56    H128    1.084   .     S
C57    C208    1.328   .     S
C57    H235    1.088   .     S
C58    C357    1.328   1_545 S
C58    H386    1.088   1_545 S
C59    O95     1.302   .     A
C59    C61     1.468   .     S
C59    O97     1.296   .     A
C60    O96     1.303   .     A
C60    C62     1.470   .     S
C60    O98     1.296   .     A
C61    C67     1.398   .     A
C61    C65     1.397   .     A
C62    C68     1.400   .     A
C62    C66     1.398   .     A
C63    C71     1.409   .     A
C63    C65     1.393   .     A
C64    C66     1.393   .     A
C64    C72     1.409   .     A
C64    F150    1.359   .     S
C65    H82     1.083   .     S
C66    H81     1.083   .     S
C67    H80     1.075   .     S
C67    C69     1.406   .     A
C68    H79     1.075   .     S
C68    C70     1.406   .     A
C69    C73     1.430   .     A
C69    C71     1.420   .     A
C70    C72     1.419   .     A
C70    C74     1.429   .     A
C71    C505    1.392   .     S
C72    C506    1.392   1_554 S
C73    C524    1.425   .     S
C74    C523    1.425   1_554 S
Cu75   O98     1.920   .     S
Cu75   O94     1.952   .     S
Cu75   N90     2.020   .     S
Cu75   O91     1.956   .     S
Cu75   O95     1.942   .     S
Cu75   Cu76    2.689   .     S
Cu76   O97     1.920   .     S
Cu76   O93     1.952   .     S
Cu76   N89     2.020   .     S
Cu76   O92     1.956   .     S
Cu76   O96     1.942   .     S
H85    C357    1.088   1_545 S
H86    C208    1.088   .     S
H88    N140    1.029   .     S
N89    H137    1.029   .     S
N89    N140    1.285   .     S
F99    C113    1.359   .     S
C101   C107    1.428   .     S
C101   O141    1.292   .     A
C101   O143    1.286   .     A
C102   O142    1.292   .     A
C102   C108    1.428   .     S
C102   O144    1.286   .     A
C103   C124    1.416   .     A
C103   H133    1.076   .     S
C103   C105    1.387   .     A
C104   H134    1.075   .     S
C104   C106    1.387   .     A
C104   C123    1.417   .     A
C105   H127    1.084   .     S
C105   C571    1.392   1_554 S
C106   C572    1.392   .     S
C106   H28     1.084   1_655 S
C107   C258    1.328   .     S
C107   H285    1.088   .     S
C108   C407    1.328   1_545 S
C108   H436    1.088   1_545 S
C109   O145    1.302   .     A
C109   C111    1.468   .     S
C109   O147    1.296   .     A
C110   O146    1.303   .     A
C110   C112    1.470   .     S
C110   O148    1.296   .     A
C111   C117    1.398   .     A
C111   C115    1.397   .     A
C112   C118    1.400   .     A
C112   C116    1.398   .     A
C113   C121    1.409   .     A
C113   C115    1.393   .     A
C114   C116    1.393   .     A
C114   C122    1.409   .     A
C114   F50     1.359   1_655 S
C115   H132    1.083   .     S
C116   H131    1.083   .     S
C117   H130    1.075   .     S
C117   C119    1.406   .     A
C118   H129    1.075   .     S
C118   C120    1.406   .     A
C119   C123    1.430   .     A
C119   C121    1.420   .     A
C120   C122    1.419   .     A
C120   C124    1.429   .     A
C121   C555    1.392   .     S
C122   C556    1.392   1_554 S
C123   C574    1.425   .     S
C124   C573    1.425   1_554 S
Cu125  O148    1.920   .     S
Cu125  O144    1.952   .     S
Cu125  N140    2.020   .     S
Cu125  O141    1.956   .     S
Cu125  O145    1.942   .     S
Cu125  Cu126   2.689   .     S
Cu126  O147    1.920   .     S
Cu126  O143    1.952   .     S
Cu126  N139    2.020   .     S
Cu126  O142    1.956   .     S
Cu126  O146    1.942   .     S
H135   C407    1.088   1_545 S
H136   C258    1.088   .     S
H138   N40     1.029   1_655 S
N139   H37     1.029   1_655 S
N139   N40     1.285   1_655 S
F149   C13     1.359   1_655 S
C151   C157    1.428   .     S
C151   O191    1.292   .     A
C151   O193    1.286   .     A
C152   O192    1.292   .     A
C152   C158    1.428   .     S
C152   O194    1.286   .     A
C153   C174    1.416   .     A
C153   H183    1.076   .     S
C153   C155    1.387   .     A
C154   H184    1.075   .     S
C154   C156    1.387   .     A
C154   C173    1.417   .     A
C155   H177    1.084   .     S
C155   C621    1.392   1_554 S
C156   C622    1.392   .     S
C156   H228    1.084   .     S
C157   C308    1.328   .     S
C157   H335    1.088   .     S
C159   O195    1.302   .     A
C159   C161    1.468   .     S
C159   O197    1.296   .     A
C160   O196    1.303   .     A
C160   C162    1.470   .     S
C160   O198    1.296   .     A
C161   C167    1.398   .     A
C161   C165    1.397   .     A
C162   C168    1.400   .     A
C162   C166    1.398   .     A
C163   C171    1.409   .     A
C163   C165    1.393   .     A
C163   F299    1.359   1_455 S
C164   C166    1.393   .     A
C164   C172    1.409   .     A
C164   F250    1.359   .     S
C165   H182    1.083   .     S
C166   H181    1.083   .     S
C167   H180    1.075   .     S
C167   C169    1.406   .     A
C168   H179    1.075   .     S
C168   C170    1.406   .     A
C169   C173    1.430   .     A
C169   C171    1.420   .     A
C170   C172    1.419   .     A
C170   C174    1.429   .     A
C171   C605    1.392   .     S
C172   C606    1.392   1_554 S
C173   C624    1.425   .     S
C174   C623    1.425   1_554 S
Cu175  O198    1.920   .     S
Cu175  O194    1.952   .     S
Cu175  N190    2.020   .     S
Cu175  O191    1.956   .     S
Cu175  O195    1.942   .     S
Cu175  Cu176   2.689   .     S
Cu176  O197    1.920   .     S
Cu176  O193    1.952   .     S
Cu176  N189    2.020   .     S
Cu176  O192    1.956   .     S
Cu176  O196    1.942   .     S
H178   C256    1.084   1_455 S
H186   C308    1.088   .     S
H187   N289    1.029   1_455 S
H188   N240    1.029   .     S
N189   H237    1.029   .     S
N189   N240    1.285   .     S
N190   H288    1.029   1_455 S
N190   N289    1.285   1_455 S
F199   C213    1.359   .     S
F200   C264    1.359   1_455 S
C201   C207    1.428   .     S
C201   O241    1.292   .     A
C201   O243    1.286   .     A
C202   O242    1.292   .     A
C202   C208    1.428   .     S
C202   O244    1.286   .     A
C203   C224    1.416   .     A
C203   H233    1.076   .     S
C203   C205    1.387   .     A
C204   H234    1.075   .     S
C204   C206    1.387   .     A
C204   C223    1.417   .     A
C205   H227    1.084   .     S
C205   C671    1.392   1_554 S
C206   C672    1.392   .     S
C206   H278    1.084   .     S
C207   C358    1.328   .     S
C207   H385    1.088   .     S
C209   O245    1.302   .     A
C209   C211    1.468   .     S
C209   O247    1.296   .     A
C210   O246    1.303   .     A
C210   C212    1.470   .     S
C210   O248    1.296   .     A
C211   C217    1.398   .     A
C211   C215    1.397   .     A
C212   C218    1.400   .     A
C212   C216    1.398   .     A
C213   C221    1.409   .     A
C213   C215    1.393   .     A
C214   C216    1.393   .     A
C214   C222    1.409   .     A
C214   F300    1.359   .     S
C215   H232    1.083   .     S
C216   H231    1.083   .     S
C217   H230    1.075   .     S
C217   C219    1.406   .     A
C218   H229    1.075   .     S
C218   C220    1.406   .     A
C219   C223    1.430   .     A
C219   C221    1.420   .     A
C220   C222    1.419   .     A
C220   C224    1.429   .     A
C221   C655    1.392   .     S
C222   C656    1.392   1_554 S
C223   C674    1.425   .     S
C224   C673    1.425   1_554 S
Cu225  O248    1.920   .     S
Cu225  O244    1.952   .     S
Cu225  N240    2.020   .     S
Cu225  O241    1.956   .     S
Cu225  O245    1.942   .     S
Cu225  Cu226   2.689   .     S
Cu226  O247    1.920   .     S
Cu226  O243    1.952   .     S
Cu226  N239    2.020   .     S
Cu226  O242    1.956   .     S
Cu226  O246    1.942   .     S
H236   C358    1.088   .     S
H238   N290    1.029   .     S
N239   H287    1.029   .     S
N239   N290    1.285   .     S
F249   C263    1.359   .     S
C251   C257    1.428   .     S
C251   O291    1.292   .     A
C251   O293    1.286   .     A
C252   O292    1.292   .     A
C252   C258    1.428   .     S
C252   O294    1.286   .     A
C253   C274    1.416   .     A
C253   H283    1.076   .     S
C253   C255    1.387   .     A
C254   H284    1.075   .     S
C254   C256    1.387   .     A
C254   C273    1.417   .     A
C255   H277    1.084   .     S
C255   C721    1.392   1_554 S
C256   C722    1.392   .     S
C256   H178    1.084   1_655 S
C257   C408    1.328   .     S
C257   H435    1.088   .     S
C259   O295    1.302   .     A
C259   C261    1.468   .     S
C259   O297    1.296   .     A
C260   O296    1.303   .     A
C260   C262    1.470   .     S
C260   O298    1.296   .     A
C261   C267    1.398   .     A
C261   C265    1.397   .     A
C262   C268    1.400   .     A
C262   C266    1.398   .     A
C263   C271    1.409   .     A
C263   C265    1.393   .     A
C264   C266    1.393   .     A
C264   C272    1.409   .     A
C264   F200    1.359   1_655 S
C265   H282    1.083   .     S
C266   H281    1.083   .     S
C267   H280    1.075   .     S
C267   C269    1.406   .     A
C268   H279    1.075   .     S
C268   C270    1.406   .     A
C269   C273    1.430   .     A
C269   C271    1.420   .     A
C270   C272    1.419   .     A
C270   C274    1.429   .     A
C271   C705    1.392   .     S
C272   C706    1.392   1_554 S
C273   C724    1.425   .     S
C274   C723    1.425   1_554 S
Cu275  O298    1.920   .     S
Cu275  O294    1.952   .     S
Cu275  N290    2.020   .     S
Cu275  O291    1.956   .     S
Cu275  O295    1.942   .     S
Cu275  Cu276   2.689   .     S
Cu276  O297    1.920   .     S
Cu276  O293    1.952   .     S
Cu276  N289    2.020   .     S
Cu276  O292    1.956   .     S
Cu276  O296    1.942   .     S
H286   C408    1.088   .     S
H288   N190    1.029   1_655 S
N289   H187    1.029   1_655 S
N289   N190    1.285   1_655 S
F299   C163    1.359   1_655 S
C301   C307    1.428   .     S
C301   O341    1.292   .     A
C301   O343    1.286   .     A
C302   O342    1.292   .     A
C302   C308    1.428   .     S
C302   O344    1.286   .     A
C303   C324    1.416   .     A
C303   H333    1.076   .     S
C303   C305    1.387   .     A
C304   H334    1.075   .     S
C304   C306    1.387   .     A
C304   C323    1.417   .     A
C305   H327    1.084   .     S
C305   C771    1.392   1_554 S
C306   C772    1.392   .     S
C306   H378    1.084   .     S
C307   C8      1.328   1_565 S
C307   H35     1.088   1_565 S
C309   O345    1.302   .     A
C309   C311    1.468   .     S
C309   O347    1.296   .     A
C310   O346    1.303   .     A
C310   C312    1.470   .     S
C310   O348    1.296   .     A
C311   C317    1.398   .     A
C311   C315    1.397   .     A
C312   C318    1.400   .     A
C312   C316    1.398   .     A
C313   C321    1.409   .     A
C313   C315    1.393   .     A
C313   F449    1.359   1_455 S
C314   C316    1.393   .     A
C314   C322    1.409   .     A
C314   F400    1.359   .     S
C315   H332    1.083   .     S
C316   H331    1.083   .     S
C317   H330    1.075   .     S
C317   C319    1.406   .     A
C318   H329    1.075   .     S
C318   C320    1.406   .     A
C319   C323    1.430   .     A
C319   C321    1.420   .     A
C320   C322    1.419   .     A
C320   C324    1.429   .     A
C321   C755    1.392   .     S
C322   C756    1.392   1_554 S
C323   C774    1.425   .     S
C324   C773    1.425   1_554 S
Cu325  O348    1.920   .     S
Cu325  O344    1.952   .     S
Cu325  N340    2.020   .     S
Cu325  O341    1.956   .     S
Cu325  O345    1.942   .     S
Cu325  Cu326   2.689   .     S
Cu326  O347    1.920   .     S
Cu326  O343    1.952   .     S
Cu326  N339    2.020   .     S
Cu326  O342    1.956   .     S
Cu326  O346    1.942   .     S
H328   C406    1.084   1_455 S
H336   C8      1.088   1_565 S
H337   N439    1.029   1_455 S
H338   N390    1.029   .     S
N339   H387    1.029   .     S
N339   N390    1.285   .     S
N340   H438    1.029   1_455 S
N340   N439    1.285   1_455 S
F349   C363    1.359   .     S
F350   C414    1.359   1_455 S
C351   C357    1.428   .     S
C351   O391    1.292   .     A
C351   O393    1.286   .     A
C352   O392    1.292   .     A
C352   C358    1.428   .     S
C352   O394    1.286   .     A
C353   C374    1.416   .     A
C353   H383    1.076   .     S
C353   C355    1.387   .     A
C354   H384    1.075   .     S
C354   C356    1.387   .     A
C354   C373    1.417   .     A
C355   H377    1.084   .     S
C355   C821    1.392   1_554 S
C356   C822    1.392   .     S
C356   H428    1.084   .     S
C357   C58     1.328   1_565 S
C357   H85     1.088   1_565 S
C359   O395    1.302   .     A
C359   C361    1.468   .     S
C359   O397    1.296   .     A
C360   O396    1.303   .     A
C360   C362    1.470   .     S
C360   O398    1.296   .     A
C361   C367    1.398   .     A
C361   C365    1.397   .     A
C362   C368    1.400   .     A
C362   C366    1.398   .     A
C363   C371    1.409   .     A
C363   C365    1.393   .     A
C364   C366    1.393   .     A
C364   C372    1.409   .     A
C364   F450    1.359   .     S
C365   H382    1.083   .     S
C366   H381    1.083   .     S
C367   H380    1.075   .     S
C367   C369    1.406   .     A
C368   H379    1.075   .     S
C368   C370    1.406   .     A
C369   C373    1.430   .     A
C369   C371    1.420   .     A
C370   C372    1.419   .     A
C370   C374    1.429   .     A
C371   C805    1.392   .     S
C372   C806    1.392   1_554 S
C373   C824    1.425   .     S
C374   C823    1.425   1_554 S
Cu375  O398    1.920   .     S
Cu375  O394    1.952   .     S
Cu375  N390    2.020   .     S
Cu375  O391    1.956   .     S
Cu375  O395    1.942   .     S
Cu375  Cu376   2.689   .     S
Cu376  O397    1.920   .     S
Cu376  O393    1.952   .     S
Cu376  N389    2.020   .     S
Cu376  O392    1.956   .     S
Cu376  O396    1.942   .     S
H386   C58     1.088   1_565 S
H388   N440    1.029   .     S
N389   H437    1.029   .     S
N389   N440    1.285   .     S
F399   C413    1.359   .     S
C401   C407    1.428   .     S
C401   O441    1.292   .     A
C401   O443    1.286   .     A
C402   O442    1.292   .     A
C402   C408    1.428   .     S
C402   O444    1.286   .     A
C403   C424    1.416   .     A
C403   H433    1.076   .     S
C403   C405    1.387   .     A
C404   H434    1.075   .     S
C404   C406    1.387   .     A
C404   C423    1.417   .     A
C405   H427    1.084   .     S
C405   C871    1.392   1_554 S
C406   C872    1.392   .     S
C406   H328    1.084   1_655 S
C407   C108    1.328   1_565 S
C407   H135    1.088   1_565 S
C409   O445    1.302   .     A
C409   C411    1.468   .     S
C409   O447    1.296   .     A
C410   O446    1.303   .     A
C410   C412    1.470   .     S
C410   O448    1.296   .     A
C411   C417    1.398   .     A
C411   C415    1.397   .     A
C412   C418    1.400   .     A
C412   C416    1.398   .     A
C413   C421    1.409   .     A
C413   C415    1.393   .     A
C414   C416    1.393   .     A
C414   C422    1.409   .     A
C414   F350    1.359   1_655 S
C415   H432    1.083   .     S
C416   H431    1.083   .     S
C417   H430    1.075   .     S
C417   C419    1.406   .     A
C418   H429    1.075   .     S
C418   C420    1.406   .     A
C419   C423    1.430   .     A
C419   C421    1.420   .     A
C420   C422    1.419   .     A
C420   C424    1.429   .     A
C421   C855    1.392   .     S
C422   C856    1.392   1_554 S
C423   C874    1.425   .     S
C424   C873    1.425   1_554 S
Cu425  O448    1.920   .     S
Cu425  O444    1.952   .     S
Cu425  N440    2.020   .     S
Cu425  O441    1.956   .     S
Cu425  O445    1.942   .     S
Cu425  Cu426   2.689   .     S
Cu426  O447    1.920   .     S
Cu426  O443    1.952   .     S
Cu426  N439    2.020   .     S
Cu426  O442    1.956   .     S
Cu426  O446    1.942   .     S
H436   C108    1.088   1_565 S
H438   N340    1.029   1_655 S
N439   H337    1.029   1_655 S
N439   N340    1.285   1_655 S
F449   C313    1.359   1_655 S
C451   C457    1.428   .     S
C451   O491    1.292   .     A
C451   O493    1.286   .     A
C452   O492    1.292   .     A
C452   C458    1.428   .     S
C452   O494    1.286   .     A
C453   C474    1.416   .     A
C453   H483    1.076   .     S
C453   C455    1.387   .     A
C454   H484    1.075   .     S
C454   C456    1.387   .     A
C454   C473    1.417   .     A
C455   H477    1.084   .     S
C456   C22     1.392   1_556 S
C456   H528    1.084   .     S
C457   C608    1.328   .     S
C457   H635    1.088   .     S
C458   C757    1.328   1_545 S
C458   H786    1.088   1_545 S
C459   O495    1.302   .     A
C459   C461    1.468   .     S
C459   O497    1.296   .     A
C460   O496    1.303   .     A
C460   C462    1.470   .     S
C460   O498    1.296   .     A
C461   C467    1.398   .     A
C461   C465    1.397   .     A
C462   C468    1.400   .     A
C462   C466    1.398   .     A
C463   C471    1.409   .     A
C463   C465    1.393   .     A
C463   F599    1.359   1_455 S
C464   C466    1.393   .     A
C464   C472    1.409   .     A
C464   F550    1.359   .     S
C465   H482    1.083   .     S
C466   H481    1.083   .     S
C467   H480    1.075   .     S
C467   C469    1.406   .     A
C468   H479    1.075   .     S
C468   C470    1.406   .     A
C469   C473    1.430   .     A
C469   C471    1.420   .     A
C470   C472    1.419   .     A
C470   C474    1.429   .     A
C471   C5      1.392   1_556 S
C473   C24     1.425   1_556 S
Cu475  O498    1.920   .     S
Cu475  O494    1.952   .     S
Cu475  N490    2.020   .     S
Cu475  O491    1.956   .     S
Cu475  O495    1.942   .     S
Cu475  Cu476   2.689   .     S
Cu476  O497    1.920   .     S
Cu476  O493    1.952   .     S
Cu476  N489    2.020   .     S
Cu476  O492    1.956   .     S
Cu476  O496    1.942   .     S
H478   C556    1.084   1_455 S
H485   C757    1.088   1_545 S
H486   C608    1.088   .     S
H487   N589    1.029   1_455 S
H488   N540    1.029   .     S
N489   H537    1.029   .     S
N489   N540    1.285   .     S
N490   H588    1.029   1_455 S
N490   N589    1.285   1_455 S
F499   C513    1.359   .     S
F500   C564    1.359   1_455 S
C501   C507    1.428   .     S
C501   O541    1.292   .     A
C501   O543    1.286   .     A
C502   O542    1.292   .     A
C502   C508    1.428   .     S
C502   O544    1.286   .     A
C503   C524    1.416   .     A
C503   H533    1.076   .     S
C503   C505    1.387   .     A
C504   H534    1.075   .     S
C504   C506    1.387   .     A
C504   C523    1.417   .     A
C505   H527    1.084   .     S
C506   C72     1.392   1_556 S
C506   H578    1.084   .     S
C507   C658    1.328   .     S
C507   H685    1.088   .     S
C508   C807    1.328   1_545 S
C508   H836    1.088   1_545 S
C509   O545    1.302   .     A
C509   C511    1.468   .     S
C509   O547    1.296   .     A
C510   O546    1.303   .     A
C510   C512    1.470   .     S
C510   O548    1.296   .     A
C511   C517    1.398   .     A
C511   C515    1.397   .     A
C512   C518    1.400   .     A
C512   C516    1.398   .     A
C513   C521    1.409   .     A
C513   C515    1.393   .     A
C514   C516    1.393   .     A
C514   C522    1.409   .     A
C514   F600    1.359   .     S
C515   H532    1.083   .     S
C516   H531    1.083   .     S
C517   H530    1.075   .     S
C517   C519    1.406   .     A
C518   H529    1.075   .     S
C518   C520    1.406   .     A
C519   C523    1.430   .     A
C519   C521    1.420   .     A
C520   C522    1.419   .     A
C520   C524    1.429   .     A
C521   C55     1.392   1_556 S
C523   C74     1.425   1_556 S
Cu525  O548    1.920   .     S
Cu525  O544    1.952   .     S
Cu525  N540    2.020   .     S
Cu525  O541    1.956   .     S
Cu525  O545    1.942   .     S
Cu525  Cu526   2.689   .     S
Cu526  O547    1.920   .     S
Cu526  O543    1.952   .     S
Cu526  N539    2.020   .     S
Cu526  O542    1.956   .     S
Cu526  O546    1.942   .     S
H535   C807    1.088   1_545 S
H536   C658    1.088   .     S
H538   N590    1.029   .     S
N539   H587    1.029   .     S
N539   N590    1.285   .     S
F549   C563    1.359   .     S
C551   C557    1.428   .     S
C551   O591    1.292   .     A
C551   O593    1.286   .     A
C552   O592    1.292   .     A
C552   C558    1.428   .     S
C552   O594    1.286   .     A
C553   C574    1.416   .     A
C553   H583    1.076   .     S
C553   C555    1.387   .     A
C554   H584    1.075   .     S
C554   C556    1.387   .     A
C554   C573    1.417   .     A
C555   H577    1.084   .     S
C556   C122    1.392   1_556 S
C556   H478    1.084   1_655 S
C557   C708    1.328   .     S
C557   H735    1.088   .     S
C558   C857    1.328   1_545 S
C558   H886    1.088   1_545 S
C559   O595    1.302   .     A
C559   C561    1.468   .     S
C559   O597    1.296   .     A
C560   O596    1.303   .     A
C560   C562    1.470   .     S
C560   O598    1.296   .     A
C561   C567    1.398   .     A
C561   C565    1.397   .     A
C562   C568    1.400   .     A
C562   C566    1.398   .     A
C563   C571    1.409   .     A
C563   C565    1.393   .     A
C564   C566    1.393   .     A
C564   C572    1.409   .     A
C564   F500    1.359   1_655 S
C565   H582    1.083   .     S
C566   H581    1.083   .     S
C567   H580    1.075   .     S
C567   C569    1.406   .     A
C568   H579    1.075   .     S
C568   C570    1.406   .     A
C569   C573    1.430   .     A
C569   C571    1.420   .     A
C570   C572    1.419   .     A
C570   C574    1.429   .     A
C571   C105    1.392   1_556 S
C573   C124    1.425   1_556 S
Cu575  O598    1.920   .     S
Cu575  O594    1.952   .     S
Cu575  N590    2.020   .     S
Cu575  O591    1.956   .     S
Cu575  O595    1.942   .     S
Cu575  Cu576   2.689   .     S
Cu576  O597    1.920   .     S
Cu576  O593    1.952   .     S
Cu576  N589    2.020   .     S
Cu576  O592    1.956   .     S
Cu576  O596    1.942   .     S
H585   C857    1.088   1_545 S
H586   C708    1.088   .     S
H588   N490    1.029   1_655 S
N589   H487    1.029   1_655 S
N589   N490    1.285   1_655 S
F599   C463    1.359   1_655 S
C601   C607    1.428   .     S
C601   O641    1.292   .     A
C601   O643    1.286   .     A
C602   O642    1.292   .     A
C602   C608    1.428   .     S
C602   O644    1.286   .     A
C603   C624    1.416   .     A
C603   H633    1.076   .     S
C603   C605    1.387   .     A
C604   H634    1.075   .     S
C604   C606    1.387   .     A
C604   C623    1.417   .     A
C605   H627    1.084   .     S
C606   C172    1.392   1_556 S
C606   H678    1.084   .     S
C607   C758    1.328   .     S
C607   H785    1.088   .     S
C609   O645    1.302   .     A
C609   C611    1.468   .     S
C609   O647    1.296   .     A
C610   O646    1.303   .     A
C610   C612    1.470   .     S
C610   O648    1.296   .     A
C611   C617    1.398   .     A
C611   C615    1.397   .     A
C612   C618    1.400   .     A
C612   C616    1.398   .     A
C613   C621    1.409   .     A
C613   C615    1.393   .     A
C613   F749    1.359   1_455 S
C614   C616    1.393   .     A
C614   C622    1.409   .     A
C614   F700    1.359   .     S
C615   H632    1.083   .     S
C616   H631    1.083   .     S
C617   H630    1.075   .     S
C617   C619    1.406   .     A
C618   H629    1.075   .     S
C618   C620    1.406   .     A
C619   C623    1.430   .     A
C619   C621    1.420   .     A
C620   C622    1.419   .     A
C620   C624    1.429   .     A
C621   C155    1.392   1_556 S
C623   C174    1.425   1_556 S
Cu625  O648    1.920   .     S
Cu625  O644    1.952   .     S
Cu625  N640    2.020   .     S
Cu625  O641    1.956   .     S
Cu625  O645    1.942   .     S
Cu625  Cu626   2.689   .     S
Cu626  O647    1.920   .     S
Cu626  O643    1.952   .     S
Cu626  N639    2.020   .     S
Cu626  O642    1.956   .     S
Cu626  O646    1.942   .     S
H628   C706    1.084   1_455 S
H636   C758    1.088   .     S
H637   N739    1.029   1_455 S
H638   N690    1.029   .     S
N639   H687    1.029   .     S
N639   N690    1.285   .     S
N640   H738    1.029   1_455 S
N640   N739    1.285   1_455 S
F649   C663    1.359   .     S
F650   C714    1.359   1_455 S
C651   C657    1.428   .     S
C651   O691    1.292   .     A
C651   O693    1.286   .     A
C652   O692    1.292   .     A
C652   C658    1.428   .     S
C652   O694    1.286   .     A
C653   C674    1.416   .     A
C653   H683    1.076   .     S
C653   C655    1.387   .     A
C654   H684    1.075   .     S
C654   C656    1.387   .     A
C654   C673    1.417   .     A
C655   H677    1.084   .     S
C656   C222    1.392   1_556 S
C656   H728    1.084   .     S
C657   C808    1.328   .     S
C657   H835    1.088   .     S
C659   O695    1.302   .     A
C659   C661    1.468   .     S
C659   O697    1.296   .     A
C660   O696    1.303   .     A
C660   C662    1.470   .     S
C660   O698    1.296   .     A
C661   C667    1.398   .     A
C661   C665    1.397   .     A
C662   C668    1.400   .     A
C662   C666    1.398   .     A
C663   C671    1.409   .     A
C663   C665    1.393   .     A
C664   C666    1.393   .     A
C664   C672    1.409   .     A
C664   F750    1.359   .     S
C665   H682    1.083   .     S
C666   H681    1.083   .     S
C667   H680    1.075   .     S
C667   C669    1.406   .     A
C668   H679    1.075   .     S
C668   C670    1.406   .     A
C669   C673    1.430   .     A
C669   C671    1.420   .     A
C670   C672    1.419   .     A
C670   C674    1.429   .     A
C671   C205    1.392   1_556 S
C673   C224    1.425   1_556 S
Cu675  O698    1.920   .     S
Cu675  O694    1.952   .     S
Cu675  N690    2.020   .     S
Cu675  O691    1.956   .     S
Cu675  O695    1.942   .     S
Cu675  Cu676   2.689   .     S
Cu676  O697    1.920   .     S
Cu676  O693    1.952   .     S
Cu676  N689    2.020   .     S
Cu676  O692    1.956   .     S
Cu676  O696    1.942   .     S
H686   C808    1.088   .     S
H688   N740    1.029   .     S
N689   H737    1.029   .     S
N689   N740    1.285   .     S
F699   C713    1.359   .     S
C701   C707    1.428   .     S
C701   O741    1.292   .     A
C701   O743    1.286   .     A
C702   O742    1.292   .     A
C702   C708    1.428   .     S
C702   O744    1.286   .     A
C703   C724    1.416   .     A
C703   H733    1.076   .     S
C703   C705    1.387   .     A
C704   H734    1.075   .     S
C704   C706    1.387   .     A
C704   C723    1.417   .     A
C705   H727    1.084   .     S
C706   C272    1.392   1_556 S
C706   H628    1.084   1_655 S
C707   C858    1.328   .     S
C707   H885    1.088   .     S
C709   O745    1.302   .     A
C709   C711    1.468   .     S
C709   O747    1.296   .     A
C710   O746    1.303   .     A
C710   C712    1.470   .     S
C710   O748    1.296   .     A
C711   C717    1.398   .     A
C711   C715    1.397   .     A
C712   C718    1.400   .     A
C712   C716    1.398   .     A
C713   C721    1.409   .     A
C713   C715    1.393   .     A
C714   C716    1.393   .     A
C714   C722    1.409   .     A
C714   F650    1.359   1_655 S
C715   H732    1.083   .     S
C716   H731    1.083   .     S
C717   H730    1.075   .     S
C717   C719    1.406   .     A
C718   H729    1.075   .     S
C718   C720    1.406   .     A
C719   C723    1.430   .     A
C719   C721    1.420   .     A
C720   C722    1.419   .     A
C720   C724    1.429   .     A
C721   C255    1.392   1_556 S
C723   C274    1.425   1_556 S
Cu725  O748    1.920   .     S
Cu725  O744    1.952   .     S
Cu725  N740    2.020   .     S
Cu725  O741    1.956   .     S
Cu725  O745    1.942   .     S
Cu725  Cu726   2.689   .     S
Cu726  O747    1.920   .     S
Cu726  O743    1.952   .     S
Cu726  N739    2.020   .     S
Cu726  O742    1.956   .     S
Cu726  O746    1.942   .     S
H736   C858    1.088   .     S
H738   N640    1.029   1_655 S
N739   H637    1.029   1_655 S
N739   N640    1.285   1_655 S
F749   C613    1.359   1_655 S
C751   C757    1.428   .     S
C751   O791    1.292   .     A
C751   O793    1.286   .     A
C752   O792    1.292   .     A
C752   C758    1.428   .     S
C752   O794    1.286   .     A
C753   C774    1.416   .     A
C753   H783    1.076   .     S
C753   C755    1.387   .     A
C754   H784    1.075   .     S
C754   C756    1.387   .     A
C754   C773    1.417   .     A
C755   H777    1.084   .     S
C756   C322    1.392   1_556 S
C756   H828    1.084   .     S
C757   C458    1.328   1_565 S
C757   H485    1.088   1_565 S
C759   O795    1.302   .     A
C759   C761    1.468   .     S
C759   O797    1.296   .     A
C760   O796    1.303   .     A
C760   C762    1.470   .     S
C760   O798    1.296   .     A
C761   C767    1.398   .     A
C761   C765    1.397   .     A
C762   C768    1.400   .     A
C762   C766    1.398   .     A
C763   C771    1.409   .     A
C763   C765    1.393   .     A
C763   F899    1.359   1_455 S
C764   C766    1.393   .     A
C764   C772    1.409   .     A
C764   F850    1.359   .     S
C765   H782    1.083   .     S
C766   H781    1.083   .     S
C767   H780    1.075   .     S
C767   C769    1.406   .     A
C768   H779    1.075   .     S
C768   C770    1.406   .     A
C769   C773    1.430   .     A
C769   C771    1.420   .     A
C770   C772    1.419   .     A
C770   C774    1.429   .     A
C771   C305    1.392   1_556 S
C773   C324    1.425   1_556 S
Cu775  O798    1.920   .     S
Cu775  O794    1.952   .     S
Cu775  N790    2.020   .     S
Cu775  O791    1.956   .     S
Cu775  O795    1.942   .     S
Cu775  Cu776   2.689   .     S
Cu776  O797    1.920   .     S
Cu776  O793    1.952   .     S
Cu776  N789    2.020   .     S
Cu776  O792    1.956   .     S
Cu776  O796    1.942   .     S
H778   C856    1.084   1_455 S
H786   C458    1.088   1_565 S
H787   N889    1.029   1_455 S
H788   N840    1.029   .     S
N789   H837    1.029   .     S
N789   N840    1.285   .     S
N790   H888    1.029   1_455 S
N790   N889    1.285   1_455 S
F799   C813    1.359   .     S
F800   C864    1.359   1_455 S
C801   C807    1.428   .     S
C801   O841    1.292   .     A
C801   O843    1.286   .     A
C802   O842    1.292   .     A
C802   C808    1.428   .     S
C802   O844    1.286   .     A
C803   C824    1.416   .     A
C803   H833    1.076   .     S
C803   C805    1.387   .     A
C804   H834    1.075   .     S
C804   C806    1.387   .     A
C804   C823    1.417   .     A
C805   H827    1.084   .     S
C806   C372    1.392   1_556 S
C806   H878    1.084   .     S
C807   C508    1.328   1_565 S
C807   H535    1.088   1_565 S
C809   O845    1.302   .     A
C809   C811    1.468   .     S
C809   O847    1.296   .     A
C810   O846    1.303   .     A
C810   C812    1.470   .     S
C810   O848    1.296   .     A
C811   C817    1.398   .     A
C811   C815    1.397   .     A
C812   C818    1.400   .     A
C812   C816    1.398   .     A
C813   C821    1.409   .     A
C813   C815    1.393   .     A
C814   C816    1.393   .     A
C814   C822    1.409   .     A
C814   F900    1.359   .     S
C815   H832    1.083   .     S
C816   H831    1.083   .     S
C817   H830    1.075   .     S
C817   C819    1.406   .     A
C818   H829    1.075   .     S
C818   C820    1.406   .     A
C819   C823    1.430   .     A
C819   C821    1.420   .     A
C820   C822    1.419   .     A
C820   C824    1.429   .     A
C821   C355    1.392   1_556 S
C823   C374    1.425   1_556 S
Cu825  O848    1.920   .     S
Cu825  O844    1.952   .     S
Cu825  N840    2.020   .     S
Cu825  O841    1.956   .     S
Cu825  O845    1.942   .     S
Cu825  Cu826   2.689   .     S
Cu826  O847    1.920   .     S
Cu826  O843    1.952   .     S
Cu826  N839    2.020   .     S
Cu826  O842    1.956   .     S
Cu826  O846    1.942   .     S
H836   C508    1.088   1_565 S
H838   N890    1.029   .     S
N839   H887    1.029   .     S
N839   N890    1.285   .     S
F849   C863    1.359   .     S
C851   C857    1.428   .     S
C851   O891    1.292   .     A
C851   O893    1.286   .     A
C852   O892    1.292   .     A
C852   C858    1.428   .     S
C852   O894    1.286   .     A
C853   C874    1.416   .     A
C853   H883    1.076   .     S
C853   C855    1.387   .     A
C854   H884    1.075   .     S
C854   C856    1.387   .     A
C854   C873    1.417   .     A
C855   H877    1.084   .     S
C856   C422    1.392   1_556 S
C856   H778    1.084   1_655 S
C857   C558    1.328   1_565 S
C857   H585    1.088   1_565 S
C859   O895    1.302   .     A
C859   C861    1.468   .     S
C859   O897    1.296   .     A
C860   O896    1.303   .     A
C860   C862    1.470   .     S
C860   O898    1.296   .     A
C861   C867    1.398   .     A
C861   C865    1.397   .     A
C862   C868    1.400   .     A
C862   C866    1.398   .     A
C863   C871    1.409   .     A
C863   C865    1.393   .     A
C864   C866    1.393   .     A
C864   C872    1.409   .     A
C864   F800    1.359   1_655 S
C865   H882    1.083   .     S
C866   H881    1.083   .     S
C867   H880    1.075   .     S
C867   C869    1.406   .     A
C868   H879    1.075   .     S
C868   C870    1.406   .     A
C869   C873    1.430   .     A
C869   C871    1.420   .     A
C870   C872    1.419   .     A
C870   C874    1.429   .     A
C871   C405    1.392   1_556 S
C873   C424    1.425   1_556 S
Cu875  O898    1.920   .     S
Cu875  O894    1.952   .     S
Cu875  N890    2.020   .     S
Cu875  O891    1.956   .     S
Cu875  O895    1.942   .     S
Cu875  Cu876   2.689   .     S
Cu876  O897    1.920   .     S
Cu876  O893    1.952   .     S
Cu876  N889    2.020   .     S
Cu876  O892    1.956   .     S
Cu876  O896    1.942   .     S
H886   C558    1.088   1_565 S
H888   N790    1.029   1_655 S
N889   H787    1.029   1_655 S
N889   N790    1.285   1_655 S
F899   C763    1.359   1_655 S
