data_str_m2_o10_o16_pcu_sym.123
_audit_creation_date              2020-01-03
_audit_creation_method            'Materials Studio'
_symmetry_space_group_name_H-M    'P1'
_symmetry_Int_Tables_number       1
_symmetry_cell_setting            triclinic
loop_
_symmetry_equiv_pos_as_xyz
  x,y,z
_cell_length_a                    22.3441
_cell_length_b                    26.1959
_cell_length_c                    26.8690
_cell_angle_alpha                 94.0927
_cell_angle_beta                  78.2156
_cell_angle_gamma                 103.0237
loop_
_atom_site_label
_atom_site_type_symbol
_atom_site_fract_x
_atom_site_fract_y
_atom_site_fract_z
_atom_site_U_iso_or_equiv
_atom_site_adp_type
_atom_site_occupancy
C1     C     0.18192   0.26661   0.25005   0.00000  Uiso   1.00
C2     C     0.14147   0.14129   0.48430   0.00000  Uiso   1.00
C3     C     0.16122   0.14201   0.43073   0.00000  Uiso   1.00
C4     C     0.18753   0.15904   0.01517   0.00000  Uiso   1.00
C5     C     0.25058   0.17920   0.49165   0.00000  Uiso   1.00
C6     C     0.26901   0.17348   0.43937   0.00000  Uiso   1.00
C7     C     0.22593   0.14662   0.41093   0.00000  Uiso   1.00
C8     C     0.17345   0.15729   0.06830   0.00000  Uiso   1.00
C9     C     0.28133   0.19814   0.07357   0.00000  Uiso   1.00
C10    C     0.11583   0.13699   0.39913   0.00000  Uiso   1.00
C11    C     0.18929   0.32231   0.24981   0.00000  Uiso   1.00
C12    C     0.13334   0.15542   0.34576   0.00000  Uiso   1.00
C13    C     0.14454   0.01124   0.24025   0.00000  Uiso   1.00
C14    C     0.15225   0.06681   0.24643   0.00000  Uiso   1.00
C15    C     0.20029   0.17131   0.15312   0.00000  Uiso   1.00
C16    C     0.29606   0.20002   0.02081   0.00000  Uiso   1.00
C17    C     0.21969   0.17551   0.09767   0.00000  Uiso   1.00
C18    C     0.05378   0.11425   0.41957   0.00000  Uiso   1.00
C19    C     0.03477   0.10581   0.47151   0.00000  Uiso   1.00
C20    C     0.07710   0.12199   0.00407   0.00000  Uiso   1.00
Cu21   Cu    0.10710   0.16105   0.24436   0.00000  Uiso   1.00
Cu22   Cu    0.22623   0.17228   0.25565   0.00000  Uiso   1.00
H23    H     0.00401   0.20632   0.28926   0.00000  Uiso   1.00
H24    H     0.32936   0.12710   0.21067   0.00000  Uiso   1.00
H25    H     0.31799   0.18433   0.42170   0.00000  Uiso   1.00
H26    H     0.01061   0.21602   0.00238   0.00000  Uiso   1.00
H27    H     0.12677   0.14050   0.08771   0.00000  Uiso   1.00
H28    H     0.01999   0.10319   0.39532   0.00000  Uiso   1.00
H29    H     0.05804   0.11802   0.04414   0.00000  Uiso   1.00
H30    H     0.31948   0.08902   0.48695   0.00000  Uiso   1.00
H31    H     0.23216   0.01250   0.25954   0.00000  Uiso   1.00
N32    N     0.31574   0.18074   0.26416   0.00000  Uiso   1.00
N33    N     0.01759   0.15259   0.23584   0.00000  Uiso   1.00
O34    O     0.12797   0.23807   0.24633   0.00000  Uiso   1.00
O35    O     0.22858   0.24755   0.25587   0.00000  Uiso   1.00
O36    O     0.09181   0.15960   0.31840   0.00000  Uiso   1.00
O37    O     0.19242   0.16908   0.32793   0.00000  Uiso   1.00
O38    O     0.10476   0.08578   0.24414   0.00000  Uiso   1.00
O39    O     0.20536   0.09526   0.25367   0.00000  Uiso   1.00
O40    O     0.14092   0.16425   0.17207   0.00000  Uiso   1.00
O41    O     0.24152   0.17373   0.18161   0.00000  Uiso   1.00
Cl42   Cl    0.00859   0.22496   0.10698   0.00000  Uiso   1.00
Cl43   Cl    0.07580   0.31100   0.21802   0.00000  Uiso   1.00
N44    N     0.24734   0.11600   0.36770   0.00000  Uiso   1.00
H45    H     0.29352   0.12861   0.35059   0.00000  Uiso   1.00
C46    C     0.22866   0.05990   0.37413   0.00000  Uiso   1.00
H47    H     0.25143   0.03955   0.34043   0.00000  Uiso   1.00
H48    H     0.17710   0.04672   0.37809   0.00000  Uiso   1.00
H49    H     0.24333   0.04888   0.40827   0.00000  Uiso   1.00
C50    C     0.51525   0.26661   0.25005   0.00000  Uiso   1.00
C51    C     0.47481   0.14129   0.48430   0.00000  Uiso   1.00
C52    C     0.49456   0.14201   0.43073   0.00000  Uiso   1.00
C53    C     0.52086   0.15904   0.01517   0.00000  Uiso   1.00
C54    C     0.58391   0.17920   0.49165   0.00000  Uiso   1.00
C55    C     0.60235   0.17348   0.43937   0.00000  Uiso   1.00
C56    C     0.55926   0.14662   0.41093   0.00000  Uiso   1.00
C57    C     0.50678   0.15729   0.06830   0.00000  Uiso   1.00
C58    C     0.61466   0.19814   0.07357   0.00000  Uiso   1.00
C59    C     0.44916   0.13699   0.39913   0.00000  Uiso   1.00
C60    C     0.52263   0.32231   0.24981   0.00000  Uiso   1.00
C61    C     0.46667   0.15542   0.34576   0.00000  Uiso   1.00
C62    C     0.47787   0.01124   0.24025   0.00000  Uiso   1.00
C63    C     0.48559   0.06681   0.24643   0.00000  Uiso   1.00
C64    C     0.53363   0.17131   0.15312   0.00000  Uiso   1.00
C65    C     0.62940   0.20002   0.02081   0.00000  Uiso   1.00
C66    C     0.55303   0.17551   0.09767   0.00000  Uiso   1.00
C67    C     0.38711   0.11425   0.41957   0.00000  Uiso   1.00
C68    C     0.36810   0.10581   0.47151   0.00000  Uiso   1.00
C69    C     0.41044   0.12199   0.00407   0.00000  Uiso   1.00
Cu70   Cu    0.44043   0.16105   0.24436   0.00000  Uiso   1.00
Cu71   Cu    0.55957   0.17228   0.25565   0.00000  Uiso   1.00
H72    H     0.33734   0.20632   0.28926   0.00000  Uiso   1.00
H73    H     0.66269   0.12710   0.21067   0.00000  Uiso   1.00
H74    H     0.65132   0.18433   0.42170   0.00000  Uiso   1.00
H75    H     0.34394   0.21602   0.00238   0.00000  Uiso   1.00
H76    H     0.46011   0.14050   0.08771   0.00000  Uiso   1.00
H77    H     0.35333   0.10319   0.39532   0.00000  Uiso   1.00
H78    H     0.39138   0.11802   0.04414   0.00000  Uiso   1.00
H79    H     0.65282   0.08902   0.48695   0.00000  Uiso   1.00
H80    H     0.56550   0.01250   0.25954   0.00000  Uiso   1.00
N81    N     0.64908   0.18074   0.26416   0.00000  Uiso   1.00
N82    N     0.35092   0.15259   0.23584   0.00000  Uiso   1.00
O83    O     0.46131   0.23807   0.24633   0.00000  Uiso   1.00
O84    O     0.56191   0.24755   0.25587   0.00000  Uiso   1.00
O85    O     0.42515   0.15960   0.31840   0.00000  Uiso   1.00
O86    O     0.52575   0.16908   0.32793   0.00000  Uiso   1.00
O87    O     0.43809   0.08578   0.24414   0.00000  Uiso   1.00
O88    O     0.53869   0.09526   0.25367   0.00000  Uiso   1.00
O89    O     0.47425   0.16425   0.17207   0.00000  Uiso   1.00
O90    O     0.57485   0.17373   0.18161   0.00000  Uiso   1.00
Cl91   Cl    0.34192   0.22496   0.10698   0.00000  Uiso   1.00
Cl92   Cl    0.40913   0.31100   0.21802   0.00000  Uiso   1.00
N93    N     0.58067   0.11600   0.36770   0.00000  Uiso   1.00
H94    H     0.62686   0.12861   0.35059   0.00000  Uiso   1.00
C95    C     0.56199   0.05990   0.37413   0.00000  Uiso   1.00
H96    H     0.58476   0.03955   0.34043   0.00000  Uiso   1.00
H97    H     0.51044   0.04672   0.37809   0.00000  Uiso   1.00
H98    H     0.57667   0.04888   0.40827   0.00000  Uiso   1.00
C99    C     0.84858   0.26661   0.25005   0.00000  Uiso   1.00
C100   C     0.80814   0.14129   0.48430   0.00000  Uiso   1.00
C101   C     0.82789   0.14201   0.43073   0.00000  Uiso   1.00
C102   C     0.85419   0.15904   0.01517   0.00000  Uiso   1.00
C103   C     0.91724   0.17920   0.49165   0.00000  Uiso   1.00
C104   C     0.93568   0.17348   0.43937   0.00000  Uiso   1.00
C105   C     0.89259   0.14662   0.41093   0.00000  Uiso   1.00
C106   C     0.84012   0.15729   0.06830   0.00000  Uiso   1.00
C107   C     0.94799   0.19814   0.07357   0.00000  Uiso   1.00
C108   C     0.78249   0.13699   0.39913   0.00000  Uiso   1.00
C109   C     0.85596   0.32231   0.24981   0.00000  Uiso   1.00
C110   C     0.80001   0.15542   0.34576   0.00000  Uiso   1.00
C111   C     0.81121   0.01124   0.24025   0.00000  Uiso   1.00
C112   C     0.81892   0.06681   0.24643   0.00000  Uiso   1.00
C113   C     0.86696   0.17131   0.15312   0.00000  Uiso   1.00
C114   C     0.96273   0.20002   0.02081   0.00000  Uiso   1.00
C115   C     0.88636   0.17551   0.09767   0.00000  Uiso   1.00
C116   C     0.72044   0.11425   0.41957   0.00000  Uiso   1.00
C117   C     0.70144   0.10581   0.47151   0.00000  Uiso   1.00
C118   C     0.74377   0.12199   0.00407   0.00000  Uiso   1.00
Cu119  Cu    0.77377   0.16105   0.24436   0.00000  Uiso   1.00
Cu120  Cu    0.89290   0.17228   0.25565   0.00000  Uiso   1.00
H121   H     0.67067   0.20632   0.28926   0.00000  Uiso   1.00
H122   H     0.99602   0.12710   0.21067   0.00000  Uiso   1.00
H123   H     0.98466   0.18433   0.42170   0.00000  Uiso   1.00
H124   H     0.67727   0.21602   0.00238   0.00000  Uiso   1.00
H125   H     0.79344   0.14050   0.08771   0.00000  Uiso   1.00
H126   H     0.68666   0.10319   0.39532   0.00000  Uiso   1.00
H127   H     0.72471   0.11802   0.04414   0.00000  Uiso   1.00
H128   H     0.98615   0.08902   0.48695   0.00000  Uiso   1.00
H129   H     0.89883   0.01250   0.25954   0.00000  Uiso   1.00
N130   N     0.98241   0.18074   0.26416   0.00000  Uiso   1.00
N131   N     0.68426   0.15259   0.23584   0.00000  Uiso   1.00
O132   O     0.79464   0.23807   0.24633   0.00000  Uiso   1.00
O133   O     0.89524   0.24755   0.25587   0.00000  Uiso   1.00
O134   O     0.75848   0.15960   0.31840   0.00000  Uiso   1.00
O135   O     0.85908   0.16908   0.32793   0.00000  Uiso   1.00
O136   O     0.77142   0.08578   0.24414   0.00000  Uiso   1.00
O137   O     0.87203   0.09526   0.25367   0.00000  Uiso   1.00
O138   O     0.80758   0.16425   0.17207   0.00000  Uiso   1.00
O139   O     0.90819   0.17373   0.18161   0.00000  Uiso   1.00
Cl140  Cl    0.67525   0.22496   0.10698   0.00000  Uiso   1.00
Cl141  Cl    0.74246   0.31100   0.21802   0.00000  Uiso   1.00
N142   N     0.91401   0.11600   0.36770   0.00000  Uiso   1.00
H143   H     0.96019   0.12861   0.35059   0.00000  Uiso   1.00
C144   C     0.89532   0.05990   0.37413   0.00000  Uiso   1.00
H145   H     0.91809   0.03955   0.34043   0.00000  Uiso   1.00
H146   H     0.84377   0.04672   0.37809   0.00000  Uiso   1.00
H147   H     0.91000   0.04888   0.40827   0.00000  Uiso   1.00
C148   C     0.18192   0.59994   0.25005   0.00000  Uiso   1.00
C149   C     0.14147   0.47462   0.48430   0.00000  Uiso   1.00
C150   C     0.16122   0.47534   0.43073   0.00000  Uiso   1.00
C151   C     0.18753   0.49238   0.01517   0.00000  Uiso   1.00
C152   C     0.25058   0.51253   0.49165   0.00000  Uiso   1.00
C153   C     0.26901   0.50681   0.43937   0.00000  Uiso   1.00
C154   C     0.22593   0.47996   0.41093   0.00000  Uiso   1.00
C155   C     0.17345   0.49062   0.06830   0.00000  Uiso   1.00
C156   C     0.28133   0.53148   0.07357   0.00000  Uiso   1.00
C157   C     0.11583   0.47033   0.39913   0.00000  Uiso   1.00
C158   C     0.18929   0.65564   0.24981   0.00000  Uiso   1.00
C159   C     0.13334   0.48876   0.34576   0.00000  Uiso   1.00
C160   C     0.14454   0.34457   0.24025   0.00000  Uiso   1.00
C161   C     0.15225   0.40014   0.24643   0.00000  Uiso   1.00
C162   C     0.20029   0.50465   0.15312   0.00000  Uiso   1.00
C163   C     0.29606   0.53335   0.02081   0.00000  Uiso   1.00
C164   C     0.21969   0.50884   0.09767   0.00000  Uiso   1.00
C165   C     0.05378   0.44758   0.41957   0.00000  Uiso   1.00
C166   C     0.03477   0.43914   0.47151   0.00000  Uiso   1.00
C167   C     0.07710   0.45533   0.00407   0.00000  Uiso   1.00
Cu168  Cu    0.10710   0.49439   0.24436   0.00000  Uiso   1.00
Cu169  Cu    0.22623   0.50561   0.25565   0.00000  Uiso   1.00
H170   H     0.00401   0.53965   0.28926   0.00000  Uiso   1.00
H171   H     0.32936   0.46043   0.21067   0.00000  Uiso   1.00
H172   H     0.31799   0.51766   0.42170   0.00000  Uiso   1.00
H173   H     0.01061   0.54936   0.00238   0.00000  Uiso   1.00
H174   H     0.12677   0.47384   0.08771   0.00000  Uiso   1.00
H175   H     0.01999   0.43652   0.39532   0.00000  Uiso   1.00
H176   H     0.05804   0.45136   0.04414   0.00000  Uiso   1.00
H177   H     0.31948   0.42235   0.48695   0.00000  Uiso   1.00
H178   H     0.23216   0.34583   0.25954   0.00000  Uiso   1.00
N179   N     0.31574   0.51407   0.26416   0.00000  Uiso   1.00
N180   N     0.01759   0.48593   0.23584   0.00000  Uiso   1.00
O181   O     0.12797   0.57141   0.24633   0.00000  Uiso   1.00
O182   O     0.22858   0.58089   0.25587   0.00000  Uiso   1.00
O183   O     0.09181   0.49293   0.31840   0.00000  Uiso   1.00
O184   O     0.19242   0.50241   0.32793   0.00000  Uiso   1.00
O185   O     0.10476   0.41911   0.24414   0.00000  Uiso   1.00
O186   O     0.20536   0.42859   0.25367   0.00000  Uiso   1.00
O187   O     0.14092   0.49759   0.17207   0.00000  Uiso   1.00
O188   O     0.24152   0.50707   0.18161   0.00000  Uiso   1.00
Cl189  Cl    0.00859   0.55829   0.10698   0.00000  Uiso   1.00
Cl190  Cl    0.07580   0.64433   0.21802   0.00000  Uiso   1.00
N191   N     0.24734   0.44933   0.36770   0.00000  Uiso   1.00
H192   H     0.29352   0.46194   0.35059   0.00000  Uiso   1.00
C193   C     0.22866   0.39323   0.37413   0.00000  Uiso   1.00
H194   H     0.25143   0.37289   0.34043   0.00000  Uiso   1.00
H195   H     0.17710   0.38005   0.37809   0.00000  Uiso   1.00
H196   H     0.24333   0.38221   0.40827   0.00000  Uiso   1.00
C197   C     0.51525   0.59994   0.25005   0.00000  Uiso   1.00
C198   C     0.47481   0.47462   0.48430   0.00000  Uiso   1.00
C199   C     0.49456   0.47534   0.43073   0.00000  Uiso   1.00
C200   C     0.52086   0.49238   0.01517   0.00000  Uiso   1.00
C201   C     0.58391   0.51253   0.49165   0.00000  Uiso   1.00
C202   C     0.60235   0.50681   0.43937   0.00000  Uiso   1.00
C203   C     0.55926   0.47996   0.41093   0.00000  Uiso   1.00
C204   C     0.50678   0.49062   0.06830   0.00000  Uiso   1.00
C205   C     0.61466   0.53148   0.07357   0.00000  Uiso   1.00
C206   C     0.44916   0.47033   0.39913   0.00000  Uiso   1.00
C207   C     0.52263   0.65564   0.24981   0.00000  Uiso   1.00
C208   C     0.46667   0.48876   0.34576   0.00000  Uiso   1.00
C209   C     0.47787   0.34457   0.24025   0.00000  Uiso   1.00
C210   C     0.48559   0.40014   0.24643   0.00000  Uiso   1.00
C211   C     0.53363   0.50465   0.15312   0.00000  Uiso   1.00
C212   C     0.62940   0.53335   0.02081   0.00000  Uiso   1.00
C213   C     0.55303   0.50884   0.09767   0.00000  Uiso   1.00
C214   C     0.38711   0.44758   0.41957   0.00000  Uiso   1.00
C215   C     0.36810   0.43914   0.47151   0.00000  Uiso   1.00
C216   C     0.41044   0.45533   0.00407   0.00000  Uiso   1.00
Cu217  Cu    0.44043   0.49439   0.24436   0.00000  Uiso   1.00
Cu218  Cu    0.55957   0.50561   0.25565   0.00000  Uiso   1.00
H219   H     0.33734   0.53965   0.28926   0.00000  Uiso   1.00
H220   H     0.66269   0.46043   0.21067   0.00000  Uiso   1.00
H221   H     0.65132   0.51766   0.42170   0.00000  Uiso   1.00
H222   H     0.34394   0.54936   0.00238   0.00000  Uiso   1.00
H223   H     0.46011   0.47384   0.08771   0.00000  Uiso   1.00
H224   H     0.35333   0.43652   0.39532   0.00000  Uiso   1.00
H225   H     0.39138   0.45136   0.04414   0.00000  Uiso   1.00
H226   H     0.65282   0.42235   0.48695   0.00000  Uiso   1.00
H227   H     0.56550   0.34583   0.25954   0.00000  Uiso   1.00
N228   N     0.64908   0.51407   0.26416   0.00000  Uiso   1.00
N229   N     0.35092   0.48593   0.23584   0.00000  Uiso   1.00
O230   O     0.46131   0.57141   0.24633   0.00000  Uiso   1.00
O231   O     0.56191   0.58089   0.25587   0.00000  Uiso   1.00
O232   O     0.42515   0.49293   0.31840   0.00000  Uiso   1.00
O233   O     0.52575   0.50241   0.32793   0.00000  Uiso   1.00
O234   O     0.43809   0.41911   0.24414   0.00000  Uiso   1.00
O235   O     0.53869   0.42859   0.25367   0.00000  Uiso   1.00
O236   O     0.47425   0.49759   0.17207   0.00000  Uiso   1.00
O237   O     0.57485   0.50707   0.18161   0.00000  Uiso   1.00
Cl238  Cl    0.34192   0.55829   0.10698   0.00000  Uiso   1.00
Cl239  Cl    0.40913   0.64433   0.21802   0.00000  Uiso   1.00
N240   N     0.58067   0.44933   0.36770   0.00000  Uiso   1.00
H241   H     0.62686   0.46194   0.35059   0.00000  Uiso   1.00
C242   C     0.56199   0.39323   0.37413   0.00000  Uiso   1.00
H243   H     0.58476   0.37289   0.34043   0.00000  Uiso   1.00
H244   H     0.51044   0.38005   0.37809   0.00000  Uiso   1.00
H245   H     0.57667   0.38221   0.40827   0.00000  Uiso   1.00
C246   C     0.84858   0.59994   0.25005   0.00000  Uiso   1.00
C247   C     0.80814   0.47462   0.48430   0.00000  Uiso   1.00
C248   C     0.82789   0.47534   0.43073   0.00000  Uiso   1.00
C249   C     0.85419   0.49238   0.01517   0.00000  Uiso   1.00
C250   C     0.91724   0.51253   0.49165   0.00000  Uiso   1.00
C251   C     0.93568   0.50681   0.43937   0.00000  Uiso   1.00
C252   C     0.89259   0.47996   0.41093   0.00000  Uiso   1.00
C253   C     0.84012   0.49062   0.06830   0.00000  Uiso   1.00
C254   C     0.94799   0.53148   0.07357   0.00000  Uiso   1.00
C255   C     0.78249   0.47033   0.39913   0.00000  Uiso   1.00
C256   C     0.85596   0.65564   0.24981   0.00000  Uiso   1.00
C257   C     0.80001   0.48876   0.34576   0.00000  Uiso   1.00
C258   C     0.81121   0.34457   0.24025   0.00000  Uiso   1.00
C259   C     0.81892   0.40014   0.24643   0.00000  Uiso   1.00
C260   C     0.86696   0.50465   0.15312   0.00000  Uiso   1.00
C261   C     0.96273   0.53335   0.02081   0.00000  Uiso   1.00
C262   C     0.88636   0.50884   0.09767   0.00000  Uiso   1.00
C263   C     0.72044   0.44758   0.41957   0.00000  Uiso   1.00
C264   C     0.70144   0.43914   0.47151   0.00000  Uiso   1.00
C265   C     0.74377   0.45533   0.00407   0.00000  Uiso   1.00
Cu266  Cu    0.77377   0.49439   0.24436   0.00000  Uiso   1.00
Cu267  Cu    0.89290   0.50561   0.25565   0.00000  Uiso   1.00
H268   H     0.67067   0.53965   0.28926   0.00000  Uiso   1.00
H269   H     0.99602   0.46043   0.21067   0.00000  Uiso   1.00
H270   H     0.98466   0.51766   0.42170   0.00000  Uiso   1.00
H271   H     0.67727   0.54936   0.00238   0.00000  Uiso   1.00
H272   H     0.79344   0.47384   0.08771   0.00000  Uiso   1.00
H273   H     0.68666   0.43652   0.39532   0.00000  Uiso   1.00
H274   H     0.72471   0.45136   0.04414   0.00000  Uiso   1.00
H275   H     0.98615   0.42235   0.48695   0.00000  Uiso   1.00
H276   H     0.89883   0.34583   0.25954   0.00000  Uiso   1.00
N277   N     0.98241   0.51407   0.26416   0.00000  Uiso   1.00
N278   N     0.68426   0.48593   0.23584   0.00000  Uiso   1.00
O279   O     0.79464   0.57141   0.24633   0.00000  Uiso   1.00
O280   O     0.89524   0.58089   0.25587   0.00000  Uiso   1.00
O281   O     0.75848   0.49293   0.31840   0.00000  Uiso   1.00
O282   O     0.85908   0.50241   0.32793   0.00000  Uiso   1.00
O283   O     0.77142   0.41911   0.24414   0.00000  Uiso   1.00
O284   O     0.87203   0.42859   0.25367   0.00000  Uiso   1.00
O285   O     0.80758   0.49759   0.17207   0.00000  Uiso   1.00
O286   O     0.90819   0.50707   0.18161   0.00000  Uiso   1.00
Cl287  Cl    0.67525   0.55829   0.10698   0.00000  Uiso   1.00
Cl288  Cl    0.74246   0.64433   0.21802   0.00000  Uiso   1.00
N289   N     0.91401   0.44933   0.36770   0.00000  Uiso   1.00
H290   H     0.96019   0.46194   0.35059   0.00000  Uiso   1.00
C291   C     0.89532   0.39323   0.37413   0.00000  Uiso   1.00
H292   H     0.91809   0.37289   0.34043   0.00000  Uiso   1.00
H293   H     0.84377   0.38005   0.37809   0.00000  Uiso   1.00
H294   H     0.91000   0.38221   0.40827   0.00000  Uiso   1.00
C295   C     0.18192   0.93328   0.25005   0.00000  Uiso   1.00
C296   C     0.14147   0.80795   0.48430   0.00000  Uiso   1.00
C297   C     0.16122   0.80867   0.43073   0.00000  Uiso   1.00
C298   C     0.18753   0.82571   0.01517   0.00000  Uiso   1.00
C299   C     0.25058   0.84587   0.49165   0.00000  Uiso   1.00
C300   C     0.26901   0.84014   0.43937   0.00000  Uiso   1.00
C301   C     0.22593   0.81329   0.41093   0.00000  Uiso   1.00
C302   C     0.17345   0.82396   0.06830   0.00000  Uiso   1.00
C303   C     0.28133   0.86481   0.07357   0.00000  Uiso   1.00
C304   C     0.11583   0.80366   0.39913   0.00000  Uiso   1.00
C305   C     0.18929   0.98897   0.24981   0.00000  Uiso   1.00
C306   C     0.13334   0.82209   0.34576   0.00000  Uiso   1.00
C307   C     0.14454   0.67791   0.24025   0.00000  Uiso   1.00
C308   C     0.15225   0.73347   0.24643   0.00000  Uiso   1.00
C309   C     0.20029   0.83798   0.15312   0.00000  Uiso   1.00
C310   C     0.29606   0.86669   0.02081   0.00000  Uiso   1.00
C311   C     0.21969   0.84218   0.09767   0.00000  Uiso   1.00
C312   C     0.05378   0.78092   0.41957   0.00000  Uiso   1.00
C313   C     0.03477   0.77248   0.47151   0.00000  Uiso   1.00
C314   C     0.07710   0.78866   0.00407   0.00000  Uiso   1.00
Cu315  Cu    0.10710   0.82772   0.24436   0.00000  Uiso   1.00
Cu316  Cu    0.22623   0.83895   0.25565   0.00000  Uiso   1.00
H317   H     0.00401   0.87299   0.28926   0.00000  Uiso   1.00
H318   H     0.32936   0.79377   0.21067   0.00000  Uiso   1.00
H319   H     0.31799   0.85099   0.42170   0.00000  Uiso   1.00
H320   H     0.01061   0.88269   0.00238   0.00000  Uiso   1.00
H321   H     0.12677   0.80717   0.08771   0.00000  Uiso   1.00
H322   H     0.01999   0.76985   0.39532   0.00000  Uiso   1.00
H323   H     0.05804   0.78469   0.04414   0.00000  Uiso   1.00
H324   H     0.31948   0.75568   0.48695   0.00000  Uiso   1.00
H325   H     0.23216   0.67917   0.25954   0.00000  Uiso   1.00
N326   N     0.31574   0.84741   0.26416   0.00000  Uiso   1.00
N327   N     0.01759   0.81926   0.23584   0.00000  Uiso   1.00
O328   O     0.12797   0.90474   0.24633   0.00000  Uiso   1.00
O329   O     0.22858   0.91422   0.25587   0.00000  Uiso   1.00
O330   O     0.09181   0.82627   0.31840   0.00000  Uiso   1.00
O331   O     0.19242   0.83575   0.32793   0.00000  Uiso   1.00
O332   O     0.10476   0.75245   0.24414   0.00000  Uiso   1.00
O333   O     0.20536   0.76193   0.25367   0.00000  Uiso   1.00
O334   O     0.14092   0.83092   0.17207   0.00000  Uiso   1.00
O335   O     0.24152   0.84040   0.18161   0.00000  Uiso   1.00
Cl336  Cl    0.00859   0.89163   0.10698   0.00000  Uiso   1.00
Cl337  Cl    0.07580   0.97767   0.21802   0.00000  Uiso   1.00
N338   N     0.24734   0.78267   0.36770   0.00000  Uiso   1.00
H339   H     0.29352   0.79528   0.35059   0.00000  Uiso   1.00
C340   C     0.22866   0.72656   0.37413   0.00000  Uiso   1.00
H341   H     0.25143   0.70622   0.34043   0.00000  Uiso   1.00
H342   H     0.17710   0.71339   0.37809   0.00000  Uiso   1.00
H343   H     0.24333   0.71554   0.40827   0.00000  Uiso   1.00
C344   C     0.51525   0.93328   0.25005   0.00000  Uiso   1.00
C345   C     0.47481   0.80795   0.48430   0.00000  Uiso   1.00
C346   C     0.49456   0.80867   0.43073   0.00000  Uiso   1.00
C347   C     0.52086   0.82571   0.01517   0.00000  Uiso   1.00
C348   C     0.58391   0.84587   0.49165   0.00000  Uiso   1.00
C349   C     0.60235   0.84014   0.43937   0.00000  Uiso   1.00
C350   C     0.55926   0.81329   0.41093   0.00000  Uiso   1.00
C351   C     0.50678   0.82396   0.06830   0.00000  Uiso   1.00
C352   C     0.61466   0.86481   0.07357   0.00000  Uiso   1.00
C353   C     0.44916   0.80366   0.39913   0.00000  Uiso   1.00
C354   C     0.52263   0.98897   0.24981   0.00000  Uiso   1.00
C355   C     0.46667   0.82209   0.34576   0.00000  Uiso   1.00
C356   C     0.47787   0.67791   0.24025   0.00000  Uiso   1.00
C357   C     0.48559   0.73347   0.24643   0.00000  Uiso   1.00
C358   C     0.53363   0.83798   0.15312   0.00000  Uiso   1.00
C359   C     0.62940   0.86669   0.02081   0.00000  Uiso   1.00
C360   C     0.55303   0.84218   0.09767   0.00000  Uiso   1.00
C361   C     0.38711   0.78092   0.41957   0.00000  Uiso   1.00
C362   C     0.36810   0.77248   0.47151   0.00000  Uiso   1.00
C363   C     0.41044   0.78866   0.00407   0.00000  Uiso   1.00
Cu364  Cu    0.44043   0.82772   0.24436   0.00000  Uiso   1.00
Cu365  Cu    0.55957   0.83895   0.25565   0.00000  Uiso   1.00
H366   H     0.33734   0.87299   0.28926   0.00000  Uiso   1.00
H367   H     0.66269   0.79377   0.21067   0.00000  Uiso   1.00
H368   H     0.65132   0.85099   0.42170   0.00000  Uiso   1.00
H369   H     0.34394   0.88269   0.00238   0.00000  Uiso   1.00
H370   H     0.46011   0.80717   0.08771   0.00000  Uiso   1.00
H371   H     0.35333   0.76985   0.39532   0.00000  Uiso   1.00
H372   H     0.39138   0.78469   0.04414   0.00000  Uiso   1.00
H373   H     0.65282   0.75568   0.48695   0.00000  Uiso   1.00
H374   H     0.56550   0.67917   0.25954   0.00000  Uiso   1.00
N375   N     0.64908   0.84741   0.26416   0.00000  Uiso   1.00
N376   N     0.35092   0.81926   0.23584   0.00000  Uiso   1.00
O377   O     0.46131   0.90474   0.24633   0.00000  Uiso   1.00
O378   O     0.56191   0.91422   0.25587   0.00000  Uiso   1.00
O379   O     0.42515   0.82627   0.31840   0.00000  Uiso   1.00
O380   O     0.52575   0.83575   0.32793   0.00000  Uiso   1.00
O381   O     0.43809   0.75245   0.24414   0.00000  Uiso   1.00
O382   O     0.53869   0.76193   0.25367   0.00000  Uiso   1.00
O383   O     0.47425   0.83092   0.17207   0.00000  Uiso   1.00
O384   O     0.57485   0.84040   0.18161   0.00000  Uiso   1.00
Cl385  Cl    0.34192   0.89163   0.10698   0.00000  Uiso   1.00
Cl386  Cl    0.40913   0.97767   0.21802   0.00000  Uiso   1.00
N387   N     0.58067   0.78267   0.36770   0.00000  Uiso   1.00
H388   H     0.62686   0.79528   0.35059   0.00000  Uiso   1.00
C389   C     0.56199   0.72656   0.37413   0.00000  Uiso   1.00
H390   H     0.58476   0.70622   0.34043   0.00000  Uiso   1.00
H391   H     0.51044   0.71339   0.37809   0.00000  Uiso   1.00
H392   H     0.57667   0.71554   0.40827   0.00000  Uiso   1.00
C393   C     0.84858   0.93328   0.25005   0.00000  Uiso   1.00
C394   C     0.80814   0.80795   0.48430   0.00000  Uiso   1.00
C395   C     0.82789   0.80867   0.43073   0.00000  Uiso   1.00
C396   C     0.85419   0.82571   0.01517   0.00000  Uiso   1.00
C397   C     0.91724   0.84587   0.49165   0.00000  Uiso   1.00
C398   C     0.93568   0.84014   0.43937   0.00000  Uiso   1.00
C399   C     0.89259   0.81329   0.41093   0.00000  Uiso   1.00
C400   C     0.84012   0.82396   0.06830   0.00000  Uiso   1.00
C401   C     0.94799   0.86481   0.07357   0.00000  Uiso   1.00
C402   C     0.78249   0.80366   0.39913   0.00000  Uiso   1.00
C403   C     0.85596   0.98897   0.24981   0.00000  Uiso   1.00
C404   C     0.80001   0.82209   0.34576   0.00000  Uiso   1.00
C405   C     0.81121   0.67791   0.24025   0.00000  Uiso   1.00
C406   C     0.81892   0.73347   0.24643   0.00000  Uiso   1.00
C407   C     0.86696   0.83798   0.15312   0.00000  Uiso   1.00
C408   C     0.96273   0.86669   0.02081   0.00000  Uiso   1.00
C409   C     0.88636   0.84218   0.09767   0.00000  Uiso   1.00
C410   C     0.72044   0.78092   0.41957   0.00000  Uiso   1.00
C411   C     0.70144   0.77248   0.47151   0.00000  Uiso   1.00
C412   C     0.74377   0.78866   0.00407   0.00000  Uiso   1.00
Cu413  Cu    0.77377   0.82772   0.24436   0.00000  Uiso   1.00
Cu414  Cu    0.89290   0.83895   0.25565   0.00000  Uiso   1.00
H415   H     0.67067   0.87299   0.28926   0.00000  Uiso   1.00
H416   H     0.99602   0.79377   0.21067   0.00000  Uiso   1.00
H417   H     0.98466   0.85099   0.42170   0.00000  Uiso   1.00
H418   H     0.67727   0.88269   0.00238   0.00000  Uiso   1.00
H419   H     0.79344   0.80717   0.08771   0.00000  Uiso   1.00
H420   H     0.68666   0.76985   0.39532   0.00000  Uiso   1.00
H421   H     0.72471   0.78469   0.04414   0.00000  Uiso   1.00
H422   H     0.98615   0.75568   0.48695   0.00000  Uiso   1.00
H423   H     0.89883   0.67917   0.25954   0.00000  Uiso   1.00
N424   N     0.98241   0.84741   0.26416   0.00000  Uiso   1.00
N425   N     0.68426   0.81926   0.23584   0.00000  Uiso   1.00
O426   O     0.79464   0.90474   0.24633   0.00000  Uiso   1.00
O427   O     0.89524   0.91422   0.25587   0.00000  Uiso   1.00
O428   O     0.75848   0.82627   0.31840   0.00000  Uiso   1.00
O429   O     0.85908   0.83575   0.32793   0.00000  Uiso   1.00
O430   O     0.77142   0.75245   0.24414   0.00000  Uiso   1.00
O431   O     0.87203   0.76193   0.25367   0.00000  Uiso   1.00
O432   O     0.80758   0.83092   0.17207   0.00000  Uiso   1.00
O433   O     0.90819   0.84040   0.18161   0.00000  Uiso   1.00
Cl434  Cl    0.67525   0.89163   0.10698   0.00000  Uiso   1.00
Cl435  Cl    0.74246   0.97767   0.21802   0.00000  Uiso   1.00
N436   N     0.91401   0.78267   0.36770   0.00000  Uiso   1.00
H437   H     0.96019   0.79528   0.35059   0.00000  Uiso   1.00
C438   C     0.89532   0.72656   0.37413   0.00000  Uiso   1.00
H439   H     0.91809   0.70622   0.34043   0.00000  Uiso   1.00
H440   H     0.84377   0.71339   0.37809   0.00000  Uiso   1.00
H441   H     0.91000   0.71554   0.40827   0.00000  Uiso   1.00
C442   C     0.18192   0.26661   0.75005   0.00000  Uiso   1.00
C443   C     0.14147   0.14129   0.98430   0.00000  Uiso   1.00
C444   C     0.16122   0.14201   0.93073   0.00000  Uiso   1.00
C445   C     0.18753   0.15904   0.51517   0.00000  Uiso   1.00
C446   C     0.25058   0.17920   0.99165   0.00000  Uiso   1.00
C447   C     0.26901   0.17348   0.93937   0.00000  Uiso   1.00
C448   C     0.22593   0.14662   0.91093   0.00000  Uiso   1.00
C449   C     0.17345   0.15729   0.56830   0.00000  Uiso   1.00
C450   C     0.28133   0.19814   0.57357   0.00000  Uiso   1.00
C451   C     0.11583   0.13699   0.89913   0.00000  Uiso   1.00
C452   C     0.18929   0.32231   0.74981   0.00000  Uiso   1.00
C453   C     0.13334   0.15542   0.84576   0.00000  Uiso   1.00
C454   C     0.14454   0.01124   0.74025   0.00000  Uiso   1.00
C455   C     0.15225   0.06681   0.74643   0.00000  Uiso   1.00
C456   C     0.20029   0.17131   0.65312   0.00000  Uiso   1.00
C457   C     0.29606   0.20002   0.52081   0.00000  Uiso   1.00
C458   C     0.21969   0.17551   0.59767   0.00000  Uiso   1.00
C459   C     0.05378   0.11425   0.91957   0.00000  Uiso   1.00
C460   C     0.03477   0.10581   0.97151   0.00000  Uiso   1.00
C461   C     0.07710   0.12199   0.50407   0.00000  Uiso   1.00
Cu462  Cu    0.10710   0.16105   0.74436   0.00000  Uiso   1.00
Cu463  Cu    0.22623   0.17228   0.75565   0.00000  Uiso   1.00
H464   H     0.00401   0.20632   0.78926   0.00000  Uiso   1.00
H465   H     0.32936   0.12710   0.71067   0.00000  Uiso   1.00
H466   H     0.31799   0.18433   0.92170   0.00000  Uiso   1.00
H467   H     0.01061   0.21602   0.50238   0.00000  Uiso   1.00
H468   H     0.12677   0.14050   0.58771   0.00000  Uiso   1.00
H469   H     0.01999   0.10319   0.89532   0.00000  Uiso   1.00
H470   H     0.05804   0.11802   0.54414   0.00000  Uiso   1.00
H471   H     0.31948   0.08902   0.98695   0.00000  Uiso   1.00
H472   H     0.23216   0.01250   0.75954   0.00000  Uiso   1.00
N473   N     0.31574   0.18074   0.76416   0.00000  Uiso   1.00
N474   N     0.01759   0.15259   0.73584   0.00000  Uiso   1.00
O475   O     0.12797   0.23807   0.74633   0.00000  Uiso   1.00
O476   O     0.22858   0.24755   0.75587   0.00000  Uiso   1.00
O477   O     0.09181   0.15960   0.81840   0.00000  Uiso   1.00
O478   O     0.19242   0.16908   0.82793   0.00000  Uiso   1.00
O479   O     0.10476   0.08578   0.74414   0.00000  Uiso   1.00
O480   O     0.20536   0.09526   0.75367   0.00000  Uiso   1.00
O481   O     0.14092   0.16425   0.67207   0.00000  Uiso   1.00
O482   O     0.24152   0.17373   0.68161   0.00000  Uiso   1.00
Cl483  Cl    0.00859   0.22496   0.60698   0.00000  Uiso   1.00
Cl484  Cl    0.07580   0.31100   0.71802   0.00000  Uiso   1.00
N485   N     0.24734   0.11600   0.86770   0.00000  Uiso   1.00
H486   H     0.29352   0.12861   0.85059   0.00000  Uiso   1.00
C487   C     0.22866   0.05990   0.87413   0.00000  Uiso   1.00
H488   H     0.25143   0.03955   0.84043   0.00000  Uiso   1.00
H489   H     0.17710   0.04672   0.87809   0.00000  Uiso   1.00
H490   H     0.24333   0.04888   0.90827   0.00000  Uiso   1.00
C491   C     0.51525   0.26661   0.75005   0.00000  Uiso   1.00
C492   C     0.47481   0.14129   0.98430   0.00000  Uiso   1.00
C493   C     0.49456   0.14201   0.93073   0.00000  Uiso   1.00
C494   C     0.52086   0.15904   0.51517   0.00000  Uiso   1.00
C495   C     0.58391   0.17920   0.99165   0.00000  Uiso   1.00
C496   C     0.60235   0.17348   0.93937   0.00000  Uiso   1.00
C497   C     0.55926   0.14662   0.91093   0.00000  Uiso   1.00
C498   C     0.50678   0.15729   0.56830   0.00000  Uiso   1.00
C499   C     0.61466   0.19814   0.57357   0.00000  Uiso   1.00
C500   C     0.44916   0.13699   0.89913   0.00000  Uiso   1.00
C501   C     0.52263   0.32231   0.74981   0.00000  Uiso   1.00
C502   C     0.46667   0.15542   0.84576   0.00000  Uiso   1.00
C503   C     0.47787   0.01124   0.74025   0.00000  Uiso   1.00
C504   C     0.48559   0.06681   0.74643   0.00000  Uiso   1.00
C505   C     0.53363   0.17131   0.65312   0.00000  Uiso   1.00
C506   C     0.62940   0.20002   0.52081   0.00000  Uiso   1.00
C507   C     0.55303   0.17551   0.59767   0.00000  Uiso   1.00
C508   C     0.38711   0.11425   0.91957   0.00000  Uiso   1.00
C509   C     0.36810   0.10581   0.97151   0.00000  Uiso   1.00
C510   C     0.41044   0.12199   0.50407   0.00000  Uiso   1.00
Cu511  Cu    0.44043   0.16105   0.74436   0.00000  Uiso   1.00
Cu512  Cu    0.55957   0.17228   0.75565   0.00000  Uiso   1.00
H513   H     0.33734   0.20632   0.78926   0.00000  Uiso   1.00
H514   H     0.66269   0.12710   0.71067   0.00000  Uiso   1.00
H515   H     0.65132   0.18433   0.92170   0.00000  Uiso   1.00
H516   H     0.34394   0.21602   0.50238   0.00000  Uiso   1.00
H517   H     0.46011   0.14050   0.58771   0.00000  Uiso   1.00
H518   H     0.35333   0.10319   0.89532   0.00000  Uiso   1.00
H519   H     0.39138   0.11802   0.54414   0.00000  Uiso   1.00
H520   H     0.65282   0.08902   0.98695   0.00000  Uiso   1.00
H521   H     0.56550   0.01250   0.75954   0.00000  Uiso   1.00
N522   N     0.64908   0.18074   0.76416   0.00000  Uiso   1.00
N523   N     0.35092   0.15259   0.73584   0.00000  Uiso   1.00
O524   O     0.46131   0.23807   0.74633   0.00000  Uiso   1.00
O525   O     0.56191   0.24755   0.75587   0.00000  Uiso   1.00
O526   O     0.42515   0.15960   0.81840   0.00000  Uiso   1.00
O527   O     0.52575   0.16908   0.82793   0.00000  Uiso   1.00
O528   O     0.43809   0.08578   0.74414   0.00000  Uiso   1.00
O529   O     0.53869   0.09526   0.75367   0.00000  Uiso   1.00
O530   O     0.47425   0.16425   0.67207   0.00000  Uiso   1.00
O531   O     0.57485   0.17373   0.68161   0.00000  Uiso   1.00
Cl532  Cl    0.34192   0.22496   0.60698   0.00000  Uiso   1.00
Cl533  Cl    0.40913   0.31100   0.71802   0.00000  Uiso   1.00
N534   N     0.58067   0.11600   0.86770   0.00000  Uiso   1.00
H535   H     0.62686   0.12861   0.85059   0.00000  Uiso   1.00
C536   C     0.56199   0.05990   0.87413   0.00000  Uiso   1.00
H537   H     0.58476   0.03955   0.84043   0.00000  Uiso   1.00
H538   H     0.51044   0.04672   0.87809   0.00000  Uiso   1.00
H539   H     0.57667   0.04888   0.90827   0.00000  Uiso   1.00
C540   C     0.84858   0.26661   0.75005   0.00000  Uiso   1.00
C541   C     0.80814   0.14129   0.98430   0.00000  Uiso   1.00
C542   C     0.82789   0.14201   0.93073   0.00000  Uiso   1.00
C543   C     0.85419   0.15904   0.51517   0.00000  Uiso   1.00
C544   C     0.91724   0.17920   0.99165   0.00000  Uiso   1.00
C545   C     0.93568   0.17348   0.93937   0.00000  Uiso   1.00
C546   C     0.89259   0.14662   0.91093   0.00000  Uiso   1.00
C547   C     0.84012   0.15729   0.56830   0.00000  Uiso   1.00
C548   C     0.94799   0.19814   0.57357   0.00000  Uiso   1.00
C549   C     0.78249   0.13699   0.89913   0.00000  Uiso   1.00
C550   C     0.85596   0.32231   0.74981   0.00000  Uiso   1.00
C551   C     0.80001   0.15542   0.84576   0.00000  Uiso   1.00
C552   C     0.81121   0.01124   0.74025   0.00000  Uiso   1.00
C553   C     0.81892   0.06681   0.74643   0.00000  Uiso   1.00
C554   C     0.86696   0.17131   0.65312   0.00000  Uiso   1.00
C555   C     0.96273   0.20002   0.52081   0.00000  Uiso   1.00
C556   C     0.88636   0.17551   0.59767   0.00000  Uiso   1.00
C557   C     0.72044   0.11425   0.91957   0.00000  Uiso   1.00
C558   C     0.70144   0.10581   0.97151   0.00000  Uiso   1.00
C559   C     0.74377   0.12199   0.50407   0.00000  Uiso   1.00
Cu560  Cu    0.77377   0.16105   0.74436   0.00000  Uiso   1.00
Cu561  Cu    0.89290   0.17228   0.75565   0.00000  Uiso   1.00
H562   H     0.67067   0.20632   0.78926   0.00000  Uiso   1.00
H563   H     0.99602   0.12710   0.71067   0.00000  Uiso   1.00
H564   H     0.98466   0.18433   0.92170   0.00000  Uiso   1.00
H565   H     0.67727   0.21602   0.50238   0.00000  Uiso   1.00
H566   H     0.79344   0.14050   0.58771   0.00000  Uiso   1.00
H567   H     0.68666   0.10319   0.89532   0.00000  Uiso   1.00
H568   H     0.72471   0.11802   0.54414   0.00000  Uiso   1.00
H569   H     0.98615   0.08902   0.98695   0.00000  Uiso   1.00
H570   H     0.89883   0.01250   0.75954   0.00000  Uiso   1.00
N571   N     0.98241   0.18074   0.76416   0.00000  Uiso   1.00
N572   N     0.68426   0.15259   0.73584   0.00000  Uiso   1.00
O573   O     0.79464   0.23807   0.74633   0.00000  Uiso   1.00
O574   O     0.89524   0.24755   0.75587   0.00000  Uiso   1.00
O575   O     0.75848   0.15960   0.81840   0.00000  Uiso   1.00
O576   O     0.85908   0.16908   0.82793   0.00000  Uiso   1.00
O577   O     0.77142   0.08578   0.74414   0.00000  Uiso   1.00
O578   O     0.87203   0.09526   0.75367   0.00000  Uiso   1.00
O579   O     0.80758   0.16425   0.67207   0.00000  Uiso   1.00
O580   O     0.90819   0.17373   0.68161   0.00000  Uiso   1.00
Cl581  Cl    0.67525   0.22496   0.60698   0.00000  Uiso   1.00
Cl582  Cl    0.74246   0.31100   0.71802   0.00000  Uiso   1.00
N583   N     0.91401   0.11600   0.86770   0.00000  Uiso   1.00
H584   H     0.96019   0.12861   0.85059   0.00000  Uiso   1.00
C585   C     0.89532   0.05990   0.87413   0.00000  Uiso   1.00
H586   H     0.91809   0.03955   0.84043   0.00000  Uiso   1.00
H587   H     0.84377   0.04672   0.87809   0.00000  Uiso   1.00
H588   H     0.91000   0.04888   0.90827   0.00000  Uiso   1.00
C589   C     0.18192   0.59994   0.75005   0.00000  Uiso   1.00
C590   C     0.14147   0.47462   0.98430   0.00000  Uiso   1.00
C591   C     0.16122   0.47534   0.93073   0.00000  Uiso   1.00
C592   C     0.18753   0.49238   0.51517   0.00000  Uiso   1.00
C593   C     0.25058   0.51253   0.99165   0.00000  Uiso   1.00
C594   C     0.26901   0.50681   0.93937   0.00000  Uiso   1.00
C595   C     0.22593   0.47996   0.91093   0.00000  Uiso   1.00
C596   C     0.17345   0.49062   0.56830   0.00000  Uiso   1.00
C597   C     0.28133   0.53148   0.57357   0.00000  Uiso   1.00
C598   C     0.11583   0.47033   0.89913   0.00000  Uiso   1.00
C599   C     0.18929   0.65564   0.74981   0.00000  Uiso   1.00
C600   C     0.13334   0.48876   0.84576   0.00000  Uiso   1.00
C601   C     0.14454   0.34457   0.74025   0.00000  Uiso   1.00
C602   C     0.15225   0.40014   0.74643   0.00000  Uiso   1.00
C603   C     0.20029   0.50465   0.65312   0.00000  Uiso   1.00
C604   C     0.29606   0.53335   0.52081   0.00000  Uiso   1.00
C605   C     0.21969   0.50884   0.59767   0.00000  Uiso   1.00
C606   C     0.05378   0.44758   0.91957   0.00000  Uiso   1.00
C607   C     0.03477   0.43914   0.97151   0.00000  Uiso   1.00
C608   C     0.07710   0.45533   0.50407   0.00000  Uiso   1.00
Cu609  Cu    0.10710   0.49439   0.74436   0.00000  Uiso   1.00
Cu610  Cu    0.22623   0.50561   0.75565   0.00000  Uiso   1.00
H611   H     0.00401   0.53965   0.78926   0.00000  Uiso   1.00
H612   H     0.32936   0.46043   0.71067   0.00000  Uiso   1.00
H613   H     0.31799   0.51766   0.92170   0.00000  Uiso   1.00
H614   H     0.01061   0.54936   0.50238   0.00000  Uiso   1.00
H615   H     0.12677   0.47384   0.58771   0.00000  Uiso   1.00
H616   H     0.01999   0.43652   0.89532   0.00000  Uiso   1.00
H617   H     0.05804   0.45136   0.54414   0.00000  Uiso   1.00
H618   H     0.31948   0.42235   0.98695   0.00000  Uiso   1.00
H619   H     0.23216   0.34583   0.75954   0.00000  Uiso   1.00
N620   N     0.31574   0.51407   0.76416   0.00000  Uiso   1.00
N621   N     0.01759   0.48593   0.73584   0.00000  Uiso   1.00
O622   O     0.12797   0.57141   0.74633   0.00000  Uiso   1.00
O623   O     0.22858   0.58089   0.75587   0.00000  Uiso   1.00
O624   O     0.09181   0.49293   0.81840   0.00000  Uiso   1.00
O625   O     0.19242   0.50241   0.82793   0.00000  Uiso   1.00
O626   O     0.10476   0.41911   0.74414   0.00000  Uiso   1.00
O627   O     0.20536   0.42859   0.75367   0.00000  Uiso   1.00
O628   O     0.14092   0.49759   0.67207   0.00000  Uiso   1.00
O629   O     0.24152   0.50707   0.68161   0.00000  Uiso   1.00
Cl630  Cl    0.00859   0.55829   0.60698   0.00000  Uiso   1.00
Cl631  Cl    0.07580   0.64433   0.71802   0.00000  Uiso   1.00
N632   N     0.24734   0.44933   0.86770   0.00000  Uiso   1.00
H633   H     0.29352   0.46194   0.85059   0.00000  Uiso   1.00
C634   C     0.22866   0.39323   0.87413   0.00000  Uiso   1.00
H635   H     0.25143   0.37289   0.84043   0.00000  Uiso   1.00
H636   H     0.17710   0.38005   0.87809   0.00000  Uiso   1.00
H637   H     0.24333   0.38221   0.90827   0.00000  Uiso   1.00
C638   C     0.51525   0.59994   0.75005   0.00000  Uiso   1.00
C639   C     0.47481   0.47462   0.98430   0.00000  Uiso   1.00
C640   C     0.49456   0.47534   0.93073   0.00000  Uiso   1.00
C641   C     0.52086   0.49238   0.51517   0.00000  Uiso   1.00
C642   C     0.58391   0.51253   0.99165   0.00000  Uiso   1.00
C643   C     0.60235   0.50681   0.93937   0.00000  Uiso   1.00
C644   C     0.55926   0.47996   0.91093   0.00000  Uiso   1.00
C645   C     0.50678   0.49062   0.56830   0.00000  Uiso   1.00
C646   C     0.61466   0.53148   0.57357   0.00000  Uiso   1.00
C647   C     0.44916   0.47033   0.89913   0.00000  Uiso   1.00
C648   C     0.52263   0.65564   0.74981   0.00000  Uiso   1.00
C649   C     0.46667   0.48876   0.84576   0.00000  Uiso   1.00
C650   C     0.47787   0.34457   0.74025   0.00000  Uiso   1.00
C651   C     0.48559   0.40014   0.74643   0.00000  Uiso   1.00
C652   C     0.53363   0.50465   0.65312   0.00000  Uiso   1.00
C653   C     0.62940   0.53335   0.52081   0.00000  Uiso   1.00
C654   C     0.55303   0.50884   0.59767   0.00000  Uiso   1.00
C655   C     0.38711   0.44758   0.91957   0.00000  Uiso   1.00
C656   C     0.36810   0.43914   0.97151   0.00000  Uiso   1.00
C657   C     0.41044   0.45533   0.50407   0.00000  Uiso   1.00
Cu658  Cu    0.44043   0.49439   0.74436   0.00000  Uiso   1.00
Cu659  Cu    0.55957   0.50561   0.75565   0.00000  Uiso   1.00
H660   H     0.33734   0.53965   0.78926   0.00000  Uiso   1.00
H661   H     0.66269   0.46043   0.71067   0.00000  Uiso   1.00
H662   H     0.65132   0.51766   0.92170   0.00000  Uiso   1.00
H663   H     0.34394   0.54936   0.50238   0.00000  Uiso   1.00
H664   H     0.46011   0.47384   0.58771   0.00000  Uiso   1.00
H665   H     0.35333   0.43652   0.89532   0.00000  Uiso   1.00
H666   H     0.39138   0.45136   0.54414   0.00000  Uiso   1.00
H667   H     0.65282   0.42235   0.98695   0.00000  Uiso   1.00
H668   H     0.56550   0.34583   0.75954   0.00000  Uiso   1.00
N669   N     0.64908   0.51407   0.76416   0.00000  Uiso   1.00
N670   N     0.35092   0.48593   0.73584   0.00000  Uiso   1.00
O671   O     0.46131   0.57141   0.74633   0.00000  Uiso   1.00
O672   O     0.56191   0.58089   0.75587   0.00000  Uiso   1.00
O673   O     0.42515   0.49293   0.81840   0.00000  Uiso   1.00
O674   O     0.52575   0.50241   0.82793   0.00000  Uiso   1.00
O675   O     0.43809   0.41911   0.74414   0.00000  Uiso   1.00
O676   O     0.53869   0.42859   0.75367   0.00000  Uiso   1.00
O677   O     0.47425   0.49759   0.67207   0.00000  Uiso   1.00
O678   O     0.57485   0.50707   0.68161   0.00000  Uiso   1.00
Cl679  Cl    0.34192   0.55829   0.60698   0.00000  Uiso   1.00
Cl680  Cl    0.40913   0.64433   0.71802   0.00000  Uiso   1.00
N681   N     0.58067   0.44933   0.86770   0.00000  Uiso   1.00
H682   H     0.62686   0.46194   0.85059   0.00000  Uiso   1.00
C683   C     0.56199   0.39323   0.87413   0.00000  Uiso   1.00
H684   H     0.58476   0.37289   0.84043   0.00000  Uiso   1.00
H685   H     0.51044   0.38005   0.87809   0.00000  Uiso   1.00
H686   H     0.57667   0.38221   0.90827   0.00000  Uiso   1.00
C687   C     0.84858   0.59994   0.75005   0.00000  Uiso   1.00
C688   C     0.80814   0.47462   0.98430   0.00000  Uiso   1.00
C689   C     0.82789   0.47534   0.93073   0.00000  Uiso   1.00
C690   C     0.85419   0.49238   0.51517   0.00000  Uiso   1.00
C691   C     0.91724   0.51253   0.99165   0.00000  Uiso   1.00
C692   C     0.93568   0.50681   0.93937   0.00000  Uiso   1.00
C693   C     0.89259   0.47996   0.91093   0.00000  Uiso   1.00
C694   C     0.84012   0.49062   0.56830   0.00000  Uiso   1.00
C695   C     0.94799   0.53148   0.57357   0.00000  Uiso   1.00
C696   C     0.78249   0.47033   0.89913   0.00000  Uiso   1.00
C697   C     0.85596   0.65564   0.74981   0.00000  Uiso   1.00
C698   C     0.80001   0.48876   0.84576   0.00000  Uiso   1.00
C699   C     0.81121   0.34457   0.74025   0.00000  Uiso   1.00
C700   C     0.81892   0.40014   0.74643   0.00000  Uiso   1.00
C701   C     0.86696   0.50465   0.65312   0.00000  Uiso   1.00
C702   C     0.96273   0.53335   0.52081   0.00000  Uiso   1.00
C703   C     0.88636   0.50884   0.59767   0.00000  Uiso   1.00
C704   C     0.72044   0.44758   0.91957   0.00000  Uiso   1.00
C705   C     0.70144   0.43914   0.97151   0.00000  Uiso   1.00
C706   C     0.74377   0.45533   0.50407   0.00000  Uiso   1.00
Cu707  Cu    0.77377   0.49439   0.74436   0.00000  Uiso   1.00
Cu708  Cu    0.89290   0.50561   0.75565   0.00000  Uiso   1.00
H709   H     0.67067   0.53965   0.78926   0.00000  Uiso   1.00
H710   H     0.99602   0.46043   0.71067   0.00000  Uiso   1.00
H711   H     0.98466   0.51766   0.92170   0.00000  Uiso   1.00
H712   H     0.67727   0.54936   0.50238   0.00000  Uiso   1.00
H713   H     0.79344   0.47384   0.58771   0.00000  Uiso   1.00
H714   H     0.68666   0.43652   0.89532   0.00000  Uiso   1.00
H715   H     0.72471   0.45136   0.54414   0.00000  Uiso   1.00
H716   H     0.98615   0.42235   0.98695   0.00000  Uiso   1.00
H717   H     0.89883   0.34583   0.75954   0.00000  Uiso   1.00
N718   N     0.98241   0.51407   0.76416   0.00000  Uiso   1.00
N719   N     0.68426   0.48593   0.73584   0.00000  Uiso   1.00
O720   O     0.79464   0.57141   0.74633   0.00000  Uiso   1.00
O721   O     0.89524   0.58089   0.75587   0.00000  Uiso   1.00
O722   O     0.75848   0.49293   0.81840   0.00000  Uiso   1.00
O723   O     0.85908   0.50241   0.82793   0.00000  Uiso   1.00
O724   O     0.77142   0.41911   0.74414   0.00000  Uiso   1.00
O725   O     0.87203   0.42859   0.75367   0.00000  Uiso   1.00
O726   O     0.80758   0.49759   0.67207   0.00000  Uiso   1.00
O727   O     0.90819   0.50707   0.68161   0.00000  Uiso   1.00
Cl728  Cl    0.67525   0.55829   0.60698   0.00000  Uiso   1.00
Cl729  Cl    0.74246   0.64433   0.71802   0.00000  Uiso   1.00
N730   N     0.91401   0.44933   0.86770   0.00000  Uiso   1.00
H731   H     0.96019   0.46194   0.85059   0.00000  Uiso   1.00
C732   C     0.89532   0.39323   0.87413   0.00000  Uiso   1.00
H733   H     0.91809   0.37289   0.84043   0.00000  Uiso   1.00
H734   H     0.84377   0.38005   0.87809   0.00000  Uiso   1.00
H735   H     0.91000   0.38221   0.90827   0.00000  Uiso   1.00
C736   C     0.18192   0.93328   0.75005   0.00000  Uiso   1.00
C737   C     0.14147   0.80795   0.98430   0.00000  Uiso   1.00
C738   C     0.16122   0.80867   0.93073   0.00000  Uiso   1.00
C739   C     0.18753   0.82571   0.51517   0.00000  Uiso   1.00
C740   C     0.25058   0.84587   0.99165   0.00000  Uiso   1.00
C741   C     0.26901   0.84014   0.93937   0.00000  Uiso   1.00
C742   C     0.22593   0.81329   0.91093   0.00000  Uiso   1.00
C743   C     0.17345   0.82396   0.56830   0.00000  Uiso   1.00
C744   C     0.28133   0.86481   0.57357   0.00000  Uiso   1.00
C745   C     0.11583   0.80366   0.89913   0.00000  Uiso   1.00
C746   C     0.18929   0.98897   0.74981   0.00000  Uiso   1.00
C747   C     0.13334   0.82209   0.84576   0.00000  Uiso   1.00
C748   C     0.14454   0.67791   0.74025   0.00000  Uiso   1.00
C749   C     0.15225   0.73347   0.74643   0.00000  Uiso   1.00
C750   C     0.20029   0.83798   0.65312   0.00000  Uiso   1.00
C751   C     0.29606   0.86669   0.52081   0.00000  Uiso   1.00
C752   C     0.21969   0.84218   0.59767   0.00000  Uiso   1.00
C753   C     0.05378   0.78092   0.91957   0.00000  Uiso   1.00
C754   C     0.03477   0.77248   0.97151   0.00000  Uiso   1.00
C755   C     0.07710   0.78866   0.50407   0.00000  Uiso   1.00
Cu756  Cu    0.10710   0.82772   0.74436   0.00000  Uiso   1.00
Cu757  Cu    0.22623   0.83895   0.75565   0.00000  Uiso   1.00
H758   H     0.00401   0.87299   0.78926   0.00000  Uiso   1.00
H759   H     0.32936   0.79377   0.71067   0.00000  Uiso   1.00
H760   H     0.31799   0.85099   0.92170   0.00000  Uiso   1.00
H761   H     0.01061   0.88269   0.50238   0.00000  Uiso   1.00
H762   H     0.12677   0.80717   0.58771   0.00000  Uiso   1.00
H763   H     0.01999   0.76985   0.89532   0.00000  Uiso   1.00
H764   H     0.05804   0.78469   0.54414   0.00000  Uiso   1.00
H765   H     0.31948   0.75568   0.98695   0.00000  Uiso   1.00
H766   H     0.23216   0.67917   0.75954   0.00000  Uiso   1.00
N767   N     0.31574   0.84741   0.76416   0.00000  Uiso   1.00
N768   N     0.01759   0.81926   0.73584   0.00000  Uiso   1.00
O769   O     0.12797   0.90474   0.74633   0.00000  Uiso   1.00
O770   O     0.22858   0.91422   0.75587   0.00000  Uiso   1.00
O771   O     0.09181   0.82627   0.81840   0.00000  Uiso   1.00
O772   O     0.19242   0.83575   0.82793   0.00000  Uiso   1.00
O773   O     0.10476   0.75245   0.74414   0.00000  Uiso   1.00
O774   O     0.20536   0.76193   0.75367   0.00000  Uiso   1.00
O775   O     0.14092   0.83092   0.67207   0.00000  Uiso   1.00
O776   O     0.24152   0.84040   0.68161   0.00000  Uiso   1.00
Cl777  Cl    0.00859   0.89163   0.60698   0.00000  Uiso   1.00
Cl778  Cl    0.07580   0.97767   0.71802   0.00000  Uiso   1.00
N779   N     0.24734   0.78267   0.86770   0.00000  Uiso   1.00
H780   H     0.29352   0.79528   0.85059   0.00000  Uiso   1.00
C781   C     0.22866   0.72656   0.87413   0.00000  Uiso   1.00
H782   H     0.25143   0.70622   0.84043   0.00000  Uiso   1.00
H783   H     0.17710   0.71339   0.87809   0.00000  Uiso   1.00
H784   H     0.24333   0.71554   0.90827   0.00000  Uiso   1.00
C785   C     0.51525   0.93328   0.75005   0.00000  Uiso   1.00
C786   C     0.47481   0.80795   0.98430   0.00000  Uiso   1.00
C787   C     0.49456   0.80867   0.93073   0.00000  Uiso   1.00
C788   C     0.52086   0.82571   0.51517   0.00000  Uiso   1.00
C789   C     0.58391   0.84587   0.99165   0.00000  Uiso   1.00
C790   C     0.60235   0.84014   0.93937   0.00000  Uiso   1.00
C791   C     0.55926   0.81329   0.91093   0.00000  Uiso   1.00
C792   C     0.50678   0.82396   0.56830   0.00000  Uiso   1.00
C793   C     0.61466   0.86481   0.57357   0.00000  Uiso   1.00
C794   C     0.44916   0.80366   0.89913   0.00000  Uiso   1.00
C795   C     0.52263   0.98897   0.74981   0.00000  Uiso   1.00
C796   C     0.46667   0.82209   0.84576   0.00000  Uiso   1.00
C797   C     0.47787   0.67791   0.74025   0.00000  Uiso   1.00
C798   C     0.48559   0.73347   0.74643   0.00000  Uiso   1.00
C799   C     0.53363   0.83798   0.65312   0.00000  Uiso   1.00
C800   C     0.62940   0.86669   0.52081   0.00000  Uiso   1.00
C801   C     0.55303   0.84218   0.59767   0.00000  Uiso   1.00
C802   C     0.38711   0.78092   0.91957   0.00000  Uiso   1.00
C803   C     0.36810   0.77248   0.97151   0.00000  Uiso   1.00
C804   C     0.41044   0.78866   0.50407   0.00000  Uiso   1.00
Cu805  Cu    0.44043   0.82772   0.74436   0.00000  Uiso   1.00
Cu806  Cu    0.55957   0.83895   0.75565   0.00000  Uiso   1.00
H807   H     0.33734   0.87299   0.78926   0.00000  Uiso   1.00
H808   H     0.66269   0.79377   0.71067   0.00000  Uiso   1.00
H809   H     0.65132   0.85099   0.92170   0.00000  Uiso   1.00
H810   H     0.34394   0.88269   0.50238   0.00000  Uiso   1.00
H811   H     0.46011   0.80717   0.58771   0.00000  Uiso   1.00
H812   H     0.35333   0.76985   0.89532   0.00000  Uiso   1.00
H813   H     0.39138   0.78469   0.54414   0.00000  Uiso   1.00
H814   H     0.65282   0.75568   0.98695   0.00000  Uiso   1.00
H815   H     0.56550   0.67917   0.75954   0.00000  Uiso   1.00
N816   N     0.64908   0.84741   0.76416   0.00000  Uiso   1.00
N817   N     0.35092   0.81926   0.73584   0.00000  Uiso   1.00
O818   O     0.46131   0.90474   0.74633   0.00000  Uiso   1.00
O819   O     0.56191   0.91422   0.75587   0.00000  Uiso   1.00
O820   O     0.42515   0.82627   0.81840   0.00000  Uiso   1.00
O821   O     0.52575   0.83575   0.82793   0.00000  Uiso   1.00
O822   O     0.43809   0.75245   0.74414   0.00000  Uiso   1.00
O823   O     0.53869   0.76193   0.75367   0.00000  Uiso   1.00
O824   O     0.47425   0.83092   0.67207   0.00000  Uiso   1.00
O825   O     0.57485   0.84040   0.68161   0.00000  Uiso   1.00
Cl826  Cl    0.34192   0.89163   0.60698   0.00000  Uiso   1.00
Cl827  Cl    0.40913   0.97767   0.71802   0.00000  Uiso   1.00
N828   N     0.58067   0.78267   0.86770   0.00000  Uiso   1.00
H829   H     0.62686   0.79528   0.85059   0.00000  Uiso   1.00
C830   C     0.56199   0.72656   0.87413   0.00000  Uiso   1.00
H831   H     0.58476   0.70622   0.84043   0.00000  Uiso   1.00
H832   H     0.51044   0.71339   0.87809   0.00000  Uiso   1.00
H833   H     0.57667   0.71554   0.90827   0.00000  Uiso   1.00
C834   C     0.84858   0.93328   0.75005   0.00000  Uiso   1.00
C835   C     0.80814   0.80795   0.98430   0.00000  Uiso   1.00
C836   C     0.82789   0.80867   0.93073   0.00000  Uiso   1.00
C837   C     0.85419   0.82571   0.51517   0.00000  Uiso   1.00
C838   C     0.91724   0.84587   0.99165   0.00000  Uiso   1.00
C839   C     0.93568   0.84014   0.93937   0.00000  Uiso   1.00
C840   C     0.89259   0.81329   0.91093   0.00000  Uiso   1.00
C841   C     0.84012   0.82396   0.56830   0.00000  Uiso   1.00
C842   C     0.94799   0.86481   0.57357   0.00000  Uiso   1.00
C843   C     0.78249   0.80366   0.89913   0.00000  Uiso   1.00
C844   C     0.85596   0.98897   0.74981   0.00000  Uiso   1.00
C845   C     0.80001   0.82209   0.84576   0.00000  Uiso   1.00
C846   C     0.81121   0.67791   0.74025   0.00000  Uiso   1.00
C847   C     0.81892   0.73347   0.74643   0.00000  Uiso   1.00
C848   C     0.86696   0.83798   0.65312   0.00000  Uiso   1.00
C849   C     0.96273   0.86669   0.52081   0.00000  Uiso   1.00
C850   C     0.88636   0.84218   0.59767   0.00000  Uiso   1.00
C851   C     0.72044   0.78092   0.91957   0.00000  Uiso   1.00
C852   C     0.70144   0.77248   0.97151   0.00000  Uiso   1.00
C853   C     0.74377   0.78866   0.50407   0.00000  Uiso   1.00
Cu854  Cu    0.77377   0.82772   0.74436   0.00000  Uiso   1.00
Cu855  Cu    0.89290   0.83895   0.75565   0.00000  Uiso   1.00
H856   H     0.67067   0.87299   0.78926   0.00000  Uiso   1.00
H857   H     0.99602   0.79377   0.71067   0.00000  Uiso   1.00
H858   H     0.98466   0.85099   0.92170   0.00000  Uiso   1.00
H859   H     0.67727   0.88269   0.50238   0.00000  Uiso   1.00
H860   H     0.79344   0.80717   0.58771   0.00000  Uiso   1.00
H861   H     0.68666   0.76985   0.89532   0.00000  Uiso   1.00
H862   H     0.72471   0.78469   0.54414   0.00000  Uiso   1.00
H863   H     0.98615   0.75568   0.98695   0.00000  Uiso   1.00
H864   H     0.89883   0.67917   0.75954   0.00000  Uiso   1.00
N865   N     0.98241   0.84741   0.76416   0.00000  Uiso   1.00
N866   N     0.68426   0.81926   0.73584   0.00000  Uiso   1.00
O867   O     0.79464   0.90474   0.74633   0.00000  Uiso   1.00
O868   O     0.89524   0.91422   0.75587   0.00000  Uiso   1.00
O869   O     0.75848   0.82627   0.81840   0.00000  Uiso   1.00
O870   O     0.85908   0.83575   0.82793   0.00000  Uiso   1.00
O871   O     0.77142   0.75245   0.74414   0.00000  Uiso   1.00
O872   O     0.87203   0.76193   0.75367   0.00000  Uiso   1.00
O873   O     0.80758   0.83092   0.67207   0.00000  Uiso   1.00
O874   O     0.90819   0.84040   0.68161   0.00000  Uiso   1.00
Cl875  Cl    0.67525   0.89163   0.60698   0.00000  Uiso   1.00
Cl876  Cl    0.74246   0.97767   0.71802   0.00000  Uiso   1.00
N877   N     0.91401   0.78267   0.86770   0.00000  Uiso   1.00
H878   H     0.96019   0.79528   0.85059   0.00000  Uiso   1.00
C879   C     0.89532   0.72656   0.87413   0.00000  Uiso   1.00
H880   H     0.91809   0.70622   0.84043   0.00000  Uiso   1.00
H881   H     0.84377   0.71339   0.87809   0.00000  Uiso   1.00
H882   H     0.91000   0.71554   0.90827   0.00000  Uiso   1.00
loop_
_geom_bond_atom_site_label_1
_geom_bond_atom_site_label_2
_geom_bond_distance
_geom_bond_site_symmetry_2
_ccdc_geom_bond_type
C1     C11     1.431   .     S
C1     O34     1.286   .     A
C1     O35     1.293   .     A
C2     C3      1.417   .     A
C2     C445    1.429   .     S
C2     C461    1.416   .     S
C3     C10     1.429   .     A
C3     C7      1.416   .     A
C4     C8      1.399   .     A
C4     C443    1.429   1_554 S
C4     C446    1.418   1_554 S
C5     C6      1.388   .     A
C5     C445    1.418   .     S
C5     C457    1.399   .     S
C6     C7      1.387   .     A
C6     H25     1.082   .     S
C7     N44     1.426   .     S
C8     C17     1.406   .     A
C8     H27     1.076   .     S
C9     C17     1.411   .     A
C9     C16     1.390   .     A
C9     Cl91    1.764   .     S
C10    C18     1.394   .     A
C10    C12     1.492   .     S
C11    C160    1.340   .     S
C11    H178    1.086   .     S
C12    O36     1.323   .     A
C12    O37     1.286   .     A
C13    C14     1.428   .     S
C13    C305    1.340   1_545 S
C13    Cl337   1.783   1_545 S
C14    O38     1.283   .     A
C14    O39     1.295   .     A
C15    O41     1.301   .     A
C15    O40     1.296   .     A
C15    C17     1.469   .     S
C16    C446    1.399   1_554 S
C16    H75     1.085   .     S
C18    H28     1.074   .     S
C18    C19     1.392   .     A
C19    C461    1.394   .     S
C19    H128    1.083   1_455 S
C20    H29     1.077   .     S
C20    C443    1.416   1_554 S
C20    C460    1.394   1_554 S
Cu21   O40     1.935   .     S
Cu21   N33     2.020   .     S
Cu21   O36     1.950   .     S
Cu21   O34     1.965   .     S
Cu21   Cu22    2.689   .     S
Cu21   O38     1.960   .     S
Cu22   O37     1.935   .     S
Cu22   O35     1.960   .     S
Cu22   N32     2.020   .     S
Cu22   O39     1.965   .     S
Cu22   O41     1.950   .     S
H23    N130    1.029   1_455 S
H24    N82     1.029   .     S
H26    C114    1.085   1_455 S
H30    C68     1.083   .     S
H31    C305    1.086   1_545 S
N32    H72     1.029   .     S
N32    N82     1.295   .     S
N33    N130    1.295   1_455 S
N33    H122    1.029   1_455 S
Cl42   C107    1.764   1_455 S
Cl43   C160    1.783   .     S
N44    C46     1.447   .     S
N44    H45     1.029   .     S
C46    H49     1.112   .     S
C46    H48     1.111   .     S
C46    H47     1.108   .     S
C50    C60     1.431   .     S
C50    O83     1.286   .     A
C50    O84     1.293   .     A
C51    C52     1.417   .     A
C51    C494    1.429   .     S
C51    C510    1.416   .     S
C52    C59     1.429   .     A
C52    C56     1.416   .     A
C53    C57     1.399   .     A
C53    C492    1.429   1_554 S
C53    C495    1.418   1_554 S
C54    C55     1.388   .     A
C54    C494    1.418   .     S
C54    C506    1.399   .     S
C55    C56     1.387   .     A
C55    H74     1.082   .     S
C56    N93     1.426   .     S
C57    C66     1.406   .     A
C57    H76     1.076   .     S
C58    C66     1.411   .     A
C58    C65     1.390   .     A
C58    Cl140   1.764   .     S
C59    C67     1.394   .     A
C59    C61     1.492   .     S
C60    C209    1.340   .     S
C60    H227    1.086   .     S
C61    O85     1.323   .     A
C61    O86     1.286   .     A
C62    C63     1.428   .     S
C62    C354    1.340   1_545 S
C62    Cl386   1.783   1_545 S
C63    O87     1.283   .     A
C63    O88     1.295   .     A
C64    O90     1.301   .     A
C64    O89     1.296   .     A
C64    C66     1.469   .     S
C65    C495    1.399   1_554 S
C65    H124    1.085   .     S
C67    H77     1.074   .     S
C67    C68     1.392   .     A
C68    C510    1.394   .     S
C69    H78     1.077   .     S
C69    C492    1.416   1_554 S
C69    C509    1.394   1_554 S
Cu70   O89     1.935   .     S
Cu70   N82     2.020   .     S
Cu70   O85     1.950   .     S
Cu70   O83     1.965   .     S
Cu70   Cu71    2.689   .     S
Cu70   O87     1.960   .     S
Cu71   O86     1.935   .     S
Cu71   O84     1.960   .     S
Cu71   N81     2.020   .     S
Cu71   O88     1.965   .     S
Cu71   O90     1.950   .     S
H73    N131    1.029   .     S
H79    C117    1.083   .     S
H80    C354    1.086   1_545 S
N81    H121    1.029   .     S
N81    N131    1.295   .     S
Cl92   C209    1.783   .     S
N93    C95     1.447   .     S
N93    H94     1.029   .     S
C95    H98     1.112   .     S
C95    H97     1.111   .     S
C95    H96     1.108   .     S
C99    C109    1.431   .     S
C99    O132    1.286   .     A
C99    O133    1.293   .     A
C100   C101    1.417   .     A
C100   C543    1.429   .     S
C100   C559    1.416   .     S
C101   C108    1.429   .     A
C101   C105    1.416   .     A
C102   C106    1.399   .     A
C102   C541    1.429   1_554 S
C102   C544    1.418   1_554 S
C103   C104    1.388   .     A
C103   C543    1.418   .     S
C103   C555    1.399   .     S
C104   C105    1.387   .     A
C104   H123    1.082   .     S
C105   N142    1.426   .     S
C106   C115    1.406   .     A
C106   H125    1.076   .     S
C107   C115    1.411   .     A
C107   C114    1.390   .     A
C107   Cl42    1.764   1_655 S
C108   C116    1.394   .     A
C108   C110    1.492   .     S
C109   C258    1.340   .     S
C109   H276    1.086   .     S
C110   O134    1.323   .     A
C110   O135    1.286   .     A
C111   C112    1.428   .     S
C111   C403    1.340   1_545 S
C111   Cl435   1.783   1_545 S
C112   O136    1.283   .     A
C112   O137    1.295   .     A
C113   O139    1.301   .     A
C113   O138    1.296   .     A
C113   C115    1.469   .     S
C114   C544    1.399   1_554 S
C114   H26     1.085   1_655 S
C116   H126    1.074   .     S
C116   C117    1.392   .     A
C117   C559    1.394   .     S
C118   H127    1.077   .     S
C118   C541    1.416   1_554 S
C118   C558    1.394   1_554 S
Cu119  O138    1.935   .     S
Cu119  N131    2.020   .     S
Cu119  O134    1.950   .     S
Cu119  O132    1.965   .     S
Cu119  Cu120   2.689   .     S
Cu119  O136    1.960   .     S
Cu120  O135    1.935   .     S
Cu120  O133    1.960   .     S
Cu120  N130    2.020   .     S
Cu120  O137    1.965   .     S
Cu120  O139    1.950   .     S
H122   N33     1.029   1_655 S
H128   C19     1.083   1_655 S
H129   C403    1.086   1_545 S
N130   H23     1.029   1_655 S
N130   N33     1.295   1_655 S
Cl141  C258    1.783   .     S
N142   C144    1.447   .     S
N142   H143    1.029   .     S
C144   H147    1.112   .     S
C144   H146    1.111   .     S
C144   H145    1.108   .     S
C148   C158    1.431   .     S
C148   O181    1.286   .     A
C148   O182    1.293   .     A
C149   C150    1.417   .     A
C149   C592    1.429   .     S
C149   C608    1.416   .     S
C150   C157    1.429   .     A
C150   C154    1.416   .     A
C151   C155    1.399   .     A
C151   C590    1.429   1_554 S
C151   C593    1.418   1_554 S
C152   C153    1.388   .     A
C152   C592    1.418   .     S
C152   C604    1.399   .     S
C153   C154    1.387   .     A
C153   H172    1.082   .     S
C154   N191    1.426   .     S
C155   C164    1.406   .     A
C155   H174    1.076   .     S
C156   C164    1.411   .     A
C156   C163    1.390   .     A
C156   Cl238   1.764   .     S
C157   C165    1.394   .     A
C157   C159    1.492   .     S
C158   C307    1.340   .     S
C158   H325    1.086   .     S
C159   O183    1.323   .     A
C159   O184    1.286   .     A
C160   C161    1.428   .     S
C161   O185    1.283   .     A
C161   O186    1.295   .     A
C162   O188    1.301   .     A
C162   O187    1.296   .     A
C162   C164    1.469   .     S
C163   C593    1.399   1_554 S
C163   H222    1.085   .     S
C165   H175    1.074   .     S
C165   C166    1.392   .     A
C166   C608    1.394   .     S
C166   H275    1.083   1_455 S
C167   H176    1.077   .     S
C167   C590    1.416   1_554 S
C167   C607    1.394   1_554 S
Cu168  O187    1.935   .     S
Cu168  N180    2.020   .     S
Cu168  O183    1.950   .     S
Cu168  O181    1.965   .     S
Cu168  Cu169   2.689   .     S
Cu168  O185    1.960   .     S
Cu169  O184    1.935   .     S
Cu169  O182    1.960   .     S
Cu169  N179    2.020   .     S
Cu169  O186    1.965   .     S
Cu169  O188    1.950   .     S
H170   N277    1.029   1_455 S
H171   N229    1.029   .     S
H173   C261    1.085   1_455 S
H177   C215    1.083   .     S
N179   H219    1.029   .     S
N179   N229    1.295   .     S
N180   N277    1.295   1_455 S
N180   H269    1.029   1_455 S
Cl189  C254    1.764   1_455 S
Cl190  C307    1.783   .     S
N191   C193    1.447   .     S
N191   H192    1.029   .     S
C193   H196    1.112   .     S
C193   H195    1.111   .     S
C193   H194    1.108   .     S
C197   C207    1.431   .     S
C197   O230    1.286   .     A
C197   O231    1.293   .     A
C198   C199    1.417   .     A
C198   C641    1.429   .     S
C198   C657    1.416   .     S
C199   C206    1.429   .     A
C199   C203    1.416   .     A
C200   C204    1.399   .     A
C200   C639    1.429   1_554 S
C200   C642    1.418   1_554 S
C201   C202    1.388   .     A
C201   C641    1.418   .     S
C201   C653    1.399   .     S
C202   C203    1.387   .     A
C202   H221    1.082   .     S
C203   N240    1.426   .     S
C204   C213    1.406   .     A
C204   H223    1.076   .     S
C205   C213    1.411   .     A
C205   C212    1.390   .     A
C205   Cl287   1.764   .     S
C206   C214    1.394   .     A
C206   C208    1.492   .     S
C207   C356    1.340   .     S
C207   H374    1.086   .     S
C208   O232    1.323   .     A
C208   O233    1.286   .     A
C209   C210    1.428   .     S
C210   O234    1.283   .     A
C210   O235    1.295   .     A
C211   O237    1.301   .     A
C211   O236    1.296   .     A
C211   C213    1.469   .     S
C212   C642    1.399   1_554 S
C212   H271    1.085   .     S
C214   H224    1.074   .     S
C214   C215    1.392   .     A
C215   C657    1.394   .     S
C216   H225    1.077   .     S
C216   C639    1.416   1_554 S
C216   C656    1.394   1_554 S
Cu217  O236    1.935   .     S
Cu217  N229    2.020   .     S
Cu217  O232    1.950   .     S
Cu217  O230    1.965   .     S
Cu217  Cu218   2.689   .     S
Cu217  O234    1.960   .     S
Cu218  O233    1.935   .     S
Cu218  O231    1.960   .     S
Cu218  N228    2.020   .     S
Cu218  O235    1.965   .     S
Cu218  O237    1.950   .     S
H220   N278    1.029   .     S
H226   C264    1.083   .     S
N228   H268    1.029   .     S
N228   N278    1.295   .     S
Cl239  C356    1.783   .     S
N240   C242    1.447   .     S
N240   H241    1.029   .     S
C242   H245    1.112   .     S
C242   H244    1.111   .     S
C242   H243    1.108   .     S
C246   C256    1.431   .     S
C246   O279    1.286   .     A
C246   O280    1.293   .     A
C247   C248    1.417   .     A
C247   C690    1.429   .     S
C247   C706    1.416   .     S
C248   C255    1.429   .     A
C248   C252    1.416   .     A
C249   C253    1.399   .     A
C249   C688    1.429   1_554 S
C249   C691    1.418   1_554 S
C250   C251    1.388   .     A
C250   C690    1.418   .     S
C250   C702    1.399   .     S
C251   C252    1.387   .     A
C251   H270    1.082   .     S
C252   N289    1.426   .     S
C253   C262    1.406   .     A
C253   H272    1.076   .     S
C254   C262    1.411   .     A
C254   C261    1.390   .     A
C254   Cl189   1.764   1_655 S
C255   C263    1.394   .     A
C255   C257    1.492   .     S
C256   C405    1.340   .     S
C256   H423    1.086   .     S
C257   O281    1.323   .     A
C257   O282    1.286   .     A
C258   C259    1.428   .     S
C259   O283    1.283   .     A
C259   O284    1.295   .     A
C260   O286    1.301   .     A
C260   O285    1.296   .     A
C260   C262    1.469   .     S
C261   C691    1.399   1_554 S
C261   H173    1.085   1_655 S
C263   H273    1.074   .     S
C263   C264    1.392   .     A
C264   C706    1.394   .     S
C265   H274    1.077   .     S
C265   C688    1.416   1_554 S
C265   C705    1.394   1_554 S
Cu266  O285    1.935   .     S
Cu266  N278    2.020   .     S
Cu266  O281    1.950   .     S
Cu266  O279    1.965   .     S
Cu266  Cu267   2.689   .     S
Cu266  O283    1.960   .     S
Cu267  O282    1.935   .     S
Cu267  O280    1.960   .     S
Cu267  N277    2.020   .     S
Cu267  O284    1.965   .     S
Cu267  O286    1.950   .     S
H269   N180    1.029   1_655 S
H275   C166    1.083   1_655 S
N277   H170    1.029   1_655 S
N277   N180    1.295   1_655 S
Cl288  C405    1.783   .     S
N289   C291    1.447   .     S
N289   H290    1.029   .     S
C291   H294    1.112   .     S
C291   H293    1.111   .     S
C291   H292    1.108   .     S
C295   C305    1.431   .     S
C295   O328    1.286   .     A
C295   O329    1.293   .     A
C296   C297    1.417   .     A
C296   C739    1.429   .     S
C296   C755    1.416   .     S
C297   C304    1.429   .     A
C297   C301    1.416   .     A
C298   C302    1.399   .     A
C298   C737    1.429   1_554 S
C298   C740    1.418   1_554 S
C299   C300    1.388   .     A
C299   C739    1.418   .     S
C299   C751    1.399   .     S
C300   C301    1.387   .     A
C300   H319    1.082   .     S
C301   N338    1.426   .     S
C302   C311    1.406   .     A
C302   H321    1.076   .     S
C303   C311    1.411   .     A
C303   C310    1.390   .     A
C303   Cl385   1.764   .     S
C304   C312    1.394   .     A
C304   C306    1.492   .     S
C305   C13     1.340   1_565 S
C305   H31     1.086   1_565 S
C306   O330    1.323   .     A
C306   O331    1.286   .     A
C307   C308    1.428   .     S
C308   O332    1.283   .     A
C308   O333    1.295   .     A
C309   O335    1.301   .     A
C309   O334    1.296   .     A
C309   C311    1.469   .     S
C310   C740    1.399   1_554 S
C310   H369    1.085   .     S
C312   H322    1.074   .     S
C312   C313    1.392   .     A
C313   C755    1.394   .     S
C313   H422    1.083   1_455 S
C314   H323    1.077   .     S
C314   C737    1.416   1_554 S
C314   C754    1.394   1_554 S
Cu315  O334    1.935   .     S
Cu315  N327    2.020   .     S
Cu315  O330    1.950   .     S
Cu315  O328    1.965   .     S
Cu315  Cu316   2.689   .     S
Cu315  O332    1.960   .     S
Cu316  O331    1.935   .     S
Cu316  O329    1.960   .     S
Cu316  N326    2.020   .     S
Cu316  O333    1.965   .     S
Cu316  O335    1.950   .     S
H317   N424    1.029   1_455 S
H318   N376    1.029   .     S
H320   C408    1.085   1_455 S
H324   C362    1.083   .     S
N326   H366    1.029   .     S
N326   N376    1.295   .     S
N327   N424    1.295   1_455 S
N327   H416    1.029   1_455 S
Cl336  C401    1.764   1_455 S
Cl337  C13     1.783   1_565 S
N338   C340    1.447   .     S
N338   H339    1.029   .     S
C340   H343    1.112   .     S
C340   H342    1.111   .     S
C340   H341    1.108   .     S
C344   C354    1.431   .     S
C344   O377    1.286   .     A
C344   O378    1.293   .     A
C345   C346    1.417   .     A
C345   C788    1.429   .     S
C345   C804    1.416   .     S
C346   C353    1.429   .     A
C346   C350    1.416   .     A
C347   C351    1.399   .     A
C347   C786    1.429   1_554 S
C347   C789    1.418   1_554 S
C348   C349    1.388   .     A
C348   C788    1.418   .     S
C348   C800    1.399   .     S
C349   C350    1.387   .     A
C349   H368    1.082   .     S
C350   N387    1.426   .     S
C351   C360    1.406   .     A
C351   H370    1.076   .     S
C352   C360    1.411   .     A
C352   C359    1.390   .     A
C352   Cl434   1.764   .     S
C353   C361    1.394   .     A
C353   C355    1.492   .     S
C354   C62     1.340   1_565 S
C354   H80     1.086   1_565 S
C355   O379    1.323   .     A
C355   O380    1.286   .     A
C356   C357    1.428   .     S
C357   O381    1.283   .     A
C357   O382    1.295   .     A
C358   O384    1.301   .     A
C358   O383    1.296   .     A
C358   C360    1.469   .     S
C359   C789    1.399   1_554 S
C359   H418    1.085   .     S
C361   H371    1.074   .     S
C361   C362    1.392   .     A
C362   C804    1.394   .     S
C363   H372    1.077   .     S
C363   C786    1.416   1_554 S
C363   C803    1.394   1_554 S
Cu364  O383    1.935   .     S
Cu364  N376    2.020   .     S
Cu364  O379    1.950   .     S
Cu364  O377    1.965   .     S
Cu364  Cu365   2.689   .     S
Cu364  O381    1.960   .     S
Cu365  O380    1.935   .     S
Cu365  O378    1.960   .     S
Cu365  N375    2.020   .     S
Cu365  O382    1.965   .     S
Cu365  O384    1.950   .     S
H367   N425    1.029   .     S
H373   C411    1.083   .     S
N375   H415    1.029   .     S
N375   N425    1.295   .     S
Cl386  C62     1.783   1_565 S
N387   C389    1.447   .     S
N387   H388    1.029   .     S
C389   H392    1.112   .     S
C389   H391    1.111   .     S
C389   H390    1.108   .     S
C393   C403    1.431   .     S
C393   O426    1.286   .     A
C393   O427    1.293   .     A
C394   C395    1.417   .     A
C394   C837    1.429   .     S
C394   C853    1.416   .     S
C395   C402    1.429   .     A
C395   C399    1.416   .     A
C396   C400    1.399   .     A
C396   C835    1.429   1_554 S
C396   C838    1.418   1_554 S
C397   C398    1.388   .     A
C397   C837    1.418   .     S
C397   C849    1.399   .     S
C398   C399    1.387   .     A
C398   H417    1.082   .     S
C399   N436    1.426   .     S
C400   C409    1.406   .     A
C400   H419    1.076   .     S
C401   C409    1.411   .     A
C401   C408    1.390   .     A
C401   Cl336   1.764   1_655 S
C402   C410    1.394   .     A
C402   C404    1.492   .     S
C403   C111    1.340   1_565 S
C403   H129    1.086   1_565 S
C404   O428    1.323   .     A
C404   O429    1.286   .     A
C405   C406    1.428   .     S
C406   O430    1.283   .     A
C406   O431    1.295   .     A
C407   O433    1.301   .     A
C407   O432    1.296   .     A
C407   C409    1.469   .     S
C408   C838    1.399   1_554 S
C408   H320    1.085   1_655 S
C410   H420    1.074   .     S
C410   C411    1.392   .     A
C411   C853    1.394   .     S
C412   H421    1.077   .     S
C412   C835    1.416   1_554 S
C412   C852    1.394   1_554 S
Cu413  O432    1.935   .     S
Cu413  N425    2.020   .     S
Cu413  O428    1.950   .     S
Cu413  O426    1.965   .     S
Cu413  Cu414   2.689   .     S
Cu413  O430    1.960   .     S
Cu414  O429    1.935   .     S
Cu414  O427    1.960   .     S
Cu414  N424    2.020   .     S
Cu414  O431    1.965   .     S
Cu414  O433    1.950   .     S
H416   N327    1.029   1_655 S
H422   C313    1.083   1_655 S
N424   H317    1.029   1_655 S
N424   N327    1.295   1_655 S
Cl435  C111    1.783   1_565 S
N436   C438    1.447   .     S
N436   H437    1.029   .     S
C438   H441    1.112   .     S
C438   H440    1.111   .     S
C438   H439    1.108   .     S
C442   C452    1.431   .     S
C442   O475    1.286   .     A
C442   O476    1.293   .     A
C443   C444    1.417   .     A
C443   C4      1.429   1_556 S
C443   C20     1.416   1_556 S
C444   C451    1.429   .     A
C444   C448    1.416   .     A
C445   C449    1.399   .     A
C446   C447    1.388   .     A
C446   C4      1.418   1_556 S
C446   C16     1.399   1_556 S
C447   C448    1.387   .     A
C447   H466    1.082   .     S
C448   N485    1.426   .     S
C449   C458    1.406   .     A
C449   H468    1.076   .     S
C450   C458    1.411   .     A
C450   C457    1.390   .     A
C450   Cl532   1.764   .     S
C451   C459    1.394   .     A
C451   C453    1.492   .     S
C452   C601    1.340   .     S
C452   H619    1.086   .     S
C453   O477    1.323   .     A
C453   O478    1.286   .     A
C454   C455    1.428   .     S
C454   C746    1.340   1_545 S
C454   Cl778   1.783   1_545 S
C455   O479    1.283   .     A
C455   O480    1.295   .     A
C456   O482    1.301   .     A
C456   O481    1.296   .     A
C456   C458    1.469   .     S
C457   H516    1.085   .     S
C459   H469    1.074   .     S
C459   C460    1.392   .     A
C460   C20     1.394   1_556 S
C460   H569    1.083   1_455 S
C461   H470    1.077   .     S
Cu462  O481    1.935   .     S
Cu462  N474    2.020   .     S
Cu462  O477    1.950   .     S
Cu462  O475    1.965   .     S
Cu462  Cu463   2.689   .     S
Cu462  O479    1.960   .     S
Cu463  O478    1.935   .     S
Cu463  O476    1.960   .     S
Cu463  N473    2.020   .     S
Cu463  O480    1.965   .     S
Cu463  O482    1.950   .     S
H464   N571    1.029   1_455 S
H465   N523    1.029   .     S
H467   C555    1.085   1_455 S
H471   C509    1.083   .     S
H472   C746    1.086   1_545 S
N473   H513    1.029   .     S
N473   N523    1.295   .     S
N474   N571    1.295   1_455 S
N474   H563    1.029   1_455 S
Cl483  C548    1.764   1_455 S
Cl484  C601    1.783   .     S
N485   C487    1.447   .     S
N485   H486    1.029   .     S
C487   H490    1.112   .     S
C487   H489    1.111   .     S
C487   H488    1.108   .     S
C491   C501    1.431   .     S
C491   O524    1.286   .     A
C491   O525    1.293   .     A
C492   C493    1.417   .     A
C492   C53     1.429   1_556 S
C492   C69     1.416   1_556 S
C493   C500    1.429   .     A
C493   C497    1.416   .     A
C494   C498    1.399   .     A
C495   C496    1.388   .     A
C495   C53     1.418   1_556 S
C495   C65     1.399   1_556 S
C496   C497    1.387   .     A
C496   H515    1.082   .     S
C497   N534    1.426   .     S
C498   C507    1.406   .     A
C498   H517    1.076   .     S
C499   C507    1.411   .     A
C499   C506    1.390   .     A
C499   Cl581   1.764   .     S
C500   C508    1.394   .     A
C500   C502    1.492   .     S
C501   C650    1.340   .     S
C501   H668    1.086   .     S
C502   O526    1.323   .     A
C502   O527    1.286   .     A
C503   C504    1.428   .     S
C503   C795    1.340   1_545 S
C503   Cl827   1.783   1_545 S
C504   O528    1.283   .     A
C504   O529    1.295   .     A
C505   O531    1.301   .     A
C505   O530    1.296   .     A
C505   C507    1.469   .     S
C506   H565    1.085   .     S
C508   H518    1.074   .     S
C508   C509    1.392   .     A
C509   C69     1.394   1_556 S
C510   H519    1.077   .     S
Cu511  O530    1.935   .     S
Cu511  N523    2.020   .     S
Cu511  O526    1.950   .     S
Cu511  O524    1.965   .     S
Cu511  Cu512   2.689   .     S
Cu511  O528    1.960   .     S
Cu512  O527    1.935   .     S
Cu512  O525    1.960   .     S
Cu512  N522    2.020   .     S
Cu512  O529    1.965   .     S
Cu512  O531    1.950   .     S
H514   N572    1.029   .     S
H520   C558    1.083   .     S
H521   C795    1.086   1_545 S
N522   H562    1.029   .     S
N522   N572    1.295   .     S
Cl533  C650    1.783   .     S
N534   C536    1.447   .     S
N534   H535    1.029   .     S
C536   H539    1.112   .     S
C536   H538    1.111   .     S
C536   H537    1.108   .     S
C540   C550    1.431   .     S
C540   O573    1.286   .     A
C540   O574    1.293   .     A
C541   C542    1.417   .     A
C541   C102    1.429   1_556 S
C541   C118    1.416   1_556 S
C542   C549    1.429   .     A
C542   C546    1.416   .     A
C543   C547    1.399   .     A
C544   C545    1.388   .     A
C544   C102    1.418   1_556 S
C544   C114    1.399   1_556 S
C545   C546    1.387   .     A
C545   H564    1.082   .     S
C546   N583    1.426   .     S
C547   C556    1.406   .     A
C547   H566    1.076   .     S
C548   C556    1.411   .     A
C548   C555    1.390   .     A
C548   Cl483   1.764   1_655 S
C549   C557    1.394   .     A
C549   C551    1.492   .     S
C550   C699    1.340   .     S
C550   H717    1.086   .     S
C551   O575    1.323   .     A
C551   O576    1.286   .     A
C552   C553    1.428   .     S
C552   C844    1.340   1_545 S
C552   Cl876   1.783   1_545 S
C553   O577    1.283   .     A
C553   O578    1.295   .     A
C554   O580    1.301   .     A
C554   O579    1.296   .     A
C554   C556    1.469   .     S
C555   H467    1.085   1_655 S
C557   H567    1.074   .     S
C557   C558    1.392   .     A
C558   C118    1.394   1_556 S
C559   H568    1.077   .     S
Cu560  O579    1.935   .     S
Cu560  N572    2.020   .     S
Cu560  O575    1.950   .     S
Cu560  O573    1.965   .     S
Cu560  Cu561   2.689   .     S
Cu560  O577    1.960   .     S
Cu561  O576    1.935   .     S
Cu561  O574    1.960   .     S
Cu561  N571    2.020   .     S
Cu561  O578    1.965   .     S
Cu561  O580    1.950   .     S
H563   N474    1.029   1_655 S
H569   C460    1.083   1_655 S
H570   C844    1.086   1_545 S
N571   H464    1.029   1_655 S
N571   N474    1.295   1_655 S
Cl582  C699    1.783   .     S
N583   C585    1.447   .     S
N583   H584    1.029   .     S
C585   H588    1.112   .     S
C585   H587    1.111   .     S
C585   H586    1.108   .     S
C589   C599    1.431   .     S
C589   O622    1.286   .     A
C589   O623    1.293   .     A
C590   C591    1.417   .     A
C590   C151    1.429   1_556 S
C590   C167    1.416   1_556 S
C591   C598    1.429   .     A
C591   C595    1.416   .     A
C592   C596    1.399   .     A
C593   C594    1.388   .     A
C593   C151    1.418   1_556 S
C593   C163    1.399   1_556 S
C594   C595    1.387   .     A
C594   H613    1.082   .     S
C595   N632    1.426   .     S
C596   C605    1.406   .     A
C596   H615    1.076   .     S
C597   C605    1.411   .     A
C597   C604    1.390   .     A
C597   Cl679   1.764   .     S
C598   C606    1.394   .     A
C598   C600    1.492   .     S
C599   C748    1.340   .     S
C599   H766    1.086   .     S
C600   O624    1.323   .     A
C600   O625    1.286   .     A
C601   C602    1.428   .     S
C602   O626    1.283   .     A
C602   O627    1.295   .     A
C603   O629    1.301   .     A
C603   O628    1.296   .     A
C603   C605    1.469   .     S
C604   H663    1.085   .     S
C606   H616    1.074   .     S
C606   C607    1.392   .     A
C607   C167    1.394   1_556 S
C607   H716    1.083   1_455 S
C608   H617    1.077   .     S
Cu609  O628    1.935   .     S
Cu609  N621    2.020   .     S
Cu609  O624    1.950   .     S
Cu609  O622    1.965   .     S
Cu609  Cu610   2.689   .     S
Cu609  O626    1.960   .     S
Cu610  O625    1.935   .     S
Cu610  O623    1.960   .     S
Cu610  N620    2.020   .     S
Cu610  O627    1.965   .     S
Cu610  O629    1.950   .     S
H611   N718    1.029   1_455 S
H612   N670    1.029   .     S
H614   C702    1.085   1_455 S
H618   C656    1.083   .     S
N620   H660    1.029   .     S
N620   N670    1.295   .     S
N621   N718    1.295   1_455 S
N621   H710    1.029   1_455 S
Cl630  C695    1.764   1_455 S
Cl631  C748    1.783   .     S
N632   C634    1.447   .     S
N632   H633    1.029   .     S
C634   H637    1.112   .     S
C634   H636    1.111   .     S
C634   H635    1.108   .     S
C638   C648    1.431   .     S
C638   O671    1.286   .     A
C638   O672    1.293   .     A
C639   C640    1.417   .     A
C639   C200    1.429   1_556 S
C639   C216    1.416   1_556 S
C640   C647    1.429   .     A
C640   C644    1.416   .     A
C641   C645    1.399   .     A
C642   C643    1.388   .     A
C642   C200    1.418   1_556 S
C642   C212    1.399   1_556 S
C643   C644    1.387   .     A
C643   H662    1.082   .     S
C644   N681    1.426   .     S
C645   C654    1.406   .     A
C645   H664    1.076   .     S
C646   C654    1.411   .     A
C646   C653    1.390   .     A
C646   Cl728   1.764   .     S
C647   C655    1.394   .     A
C647   C649    1.492   .     S
C648   C797    1.340   .     S
C648   H815    1.086   .     S
C649   O673    1.323   .     A
C649   O674    1.286   .     A
C650   C651    1.428   .     S
C651   O675    1.283   .     A
C651   O676    1.295   .     A
C652   O678    1.301   .     A
C652   O677    1.296   .     A
C652   C654    1.469   .     S
C653   H712    1.085   .     S
C655   H665    1.074   .     S
C655   C656    1.392   .     A
C656   C216    1.394   1_556 S
C657   H666    1.077   .     S
Cu658  O677    1.935   .     S
Cu658  N670    2.020   .     S
Cu658  O673    1.950   .     S
Cu658  O671    1.965   .     S
Cu658  Cu659   2.689   .     S
Cu658  O675    1.960   .     S
Cu659  O674    1.935   .     S
Cu659  O672    1.960   .     S
Cu659  N669    2.020   .     S
Cu659  O676    1.965   .     S
Cu659  O678    1.950   .     S
H661   N719    1.029   .     S
H667   C705    1.083   .     S
N669   H709    1.029   .     S
N669   N719    1.295   .     S
Cl680  C797    1.783   .     S
N681   C683    1.447   .     S
N681   H682    1.029   .     S
C683   H686    1.112   .     S
C683   H685    1.111   .     S
C683   H684    1.108   .     S
C687   C697    1.431   .     S
C687   O720    1.286   .     A
C687   O721    1.293   .     A
C688   C689    1.417   .     A
C688   C249    1.429   1_556 S
C688   C265    1.416   1_556 S
C689   C696    1.429   .     A
C689   C693    1.416   .     A
C690   C694    1.399   .     A
C691   C692    1.388   .     A
C691   C249    1.418   1_556 S
C691   C261    1.399   1_556 S
C692   C693    1.387   .     A
C692   H711    1.082   .     S
C693   N730    1.426   .     S
C694   C703    1.406   .     A
C694   H713    1.076   .     S
C695   C703    1.411   .     A
C695   C702    1.390   .     A
C695   Cl630   1.764   1_655 S
C696   C704    1.394   .     A
C696   C698    1.492   .     S
C697   C846    1.340   .     S
C697   H864    1.086   .     S
C698   O722    1.323   .     A
C698   O723    1.286   .     A
C699   C700    1.428   .     S
C700   O724    1.283   .     A
C700   O725    1.295   .     A
C701   O727    1.301   .     A
C701   O726    1.296   .     A
C701   C703    1.469   .     S
C702   H614    1.085   1_655 S
C704   H714    1.074   .     S
C704   C705    1.392   .     A
C705   C265    1.394   1_556 S
C706   H715    1.077   .     S
Cu707  O726    1.935   .     S
Cu707  N719    2.020   .     S
Cu707  O722    1.950   .     S
Cu707  O720    1.965   .     S
Cu707  Cu708   2.689   .     S
Cu707  O724    1.960   .     S
Cu708  O723    1.935   .     S
Cu708  O721    1.960   .     S
Cu708  N718    2.020   .     S
Cu708  O725    1.965   .     S
Cu708  O727    1.950   .     S
H710   N621    1.029   1_655 S
H716   C607    1.083   1_655 S
N718   H611    1.029   1_655 S
N718   N621    1.295   1_655 S
Cl729  C846    1.783   .     S
N730   C732    1.447   .     S
N730   H731    1.029   .     S
C732   H735    1.112   .     S
C732   H734    1.111   .     S
C732   H733    1.108   .     S
C736   C746    1.431   .     S
C736   O769    1.286   .     A
C736   O770    1.293   .     A
C737   C738    1.417   .     A
C737   C298    1.429   1_556 S
C737   C314    1.416   1_556 S
C738   C745    1.429   .     A
C738   C742    1.416   .     A
C739   C743    1.399   .     A
C740   C741    1.388   .     A
C740   C298    1.418   1_556 S
C740   C310    1.399   1_556 S
C741   C742    1.387   .     A
C741   H760    1.082   .     S
C742   N779    1.426   .     S
C743   C752    1.406   .     A
C743   H762    1.076   .     S
C744   C752    1.411   .     A
C744   C751    1.390   .     A
C744   Cl826   1.764   .     S
C745   C753    1.394   .     A
C745   C747    1.492   .     S
C746   C454    1.340   1_565 S
C746   H472    1.086   1_565 S
C747   O771    1.323   .     A
C747   O772    1.286   .     A
C748   C749    1.428   .     S
C749   O773    1.283   .     A
C749   O774    1.295   .     A
C750   O776    1.301   .     A
C750   O775    1.296   .     A
C750   C752    1.469   .     S
C751   H810    1.085   .     S
C753   H763    1.074   .     S
C753   C754    1.392   .     A
C754   C314    1.394   1_556 S
C754   H863    1.083   1_455 S
C755   H764    1.077   .     S
Cu756  O775    1.935   .     S
Cu756  N768    2.020   .     S
Cu756  O771    1.950   .     S
Cu756  O769    1.965   .     S
Cu756  Cu757   2.689   .     S
Cu756  O773    1.960   .     S
Cu757  O772    1.935   .     S
Cu757  O770    1.960   .     S
Cu757  N767    2.020   .     S
Cu757  O774    1.965   .     S
Cu757  O776    1.950   .     S
H758   N865    1.029   1_455 S
H759   N817    1.029   .     S
H761   C849    1.085   1_455 S
H765   C803    1.083   .     S
N767   H807    1.029   .     S
N767   N817    1.295   .     S
N768   N865    1.295   1_455 S
N768   H857    1.029   1_455 S
Cl777  C842    1.764   1_455 S
Cl778  C454    1.783   1_565 S
N779   C781    1.447   .     S
N779   H780    1.029   .     S
C781   H784    1.112   .     S
C781   H783    1.111   .     S
C781   H782    1.108   .     S
C785   C795    1.431   .     S
C785   O818    1.286   .     A
C785   O819    1.293   .     A
C786   C787    1.417   .     A
C786   C347    1.429   1_556 S
C786   C363    1.416   1_556 S
C787   C794    1.429   .     A
C787   C791    1.416   .     A
C788   C792    1.399   .     A
C789   C790    1.388   .     A
C789   C347    1.418   1_556 S
C789   C359    1.399   1_556 S
C790   C791    1.387   .     A
C790   H809    1.082   .     S
C791   N828    1.426   .     S
C792   C801    1.406   .     A
C792   H811    1.076   .     S
C793   C801    1.411   .     A
C793   C800    1.390   .     A
C793   Cl875   1.764   .     S
C794   C802    1.394   .     A
C794   C796    1.492   .     S
C795   C503    1.340   1_565 S
C795   H521    1.086   1_565 S
C796   O820    1.323   .     A
C796   O821    1.286   .     A
C797   C798    1.428   .     S
C798   O822    1.283   .     A
C798   O823    1.295   .     A
C799   O825    1.301   .     A
C799   O824    1.296   .     A
C799   C801    1.469   .     S
C800   H859    1.085   .     S
C802   H812    1.074   .     S
C802   C803    1.392   .     A
C803   C363    1.394   1_556 S
C804   H813    1.077   .     S
Cu805  O824    1.935   .     S
Cu805  N817    2.020   .     S
Cu805  O820    1.950   .     S
Cu805  O818    1.965   .     S
Cu805  Cu806   2.689   .     S
Cu805  O822    1.960   .     S
Cu806  O821    1.935   .     S
Cu806  O819    1.960   .     S
Cu806  N816    2.020   .     S
Cu806  O823    1.965   .     S
Cu806  O825    1.950   .     S
H808   N866    1.029   .     S
H814   C852    1.083   .     S
N816   H856    1.029   .     S
N816   N866    1.295   .     S
Cl827  C503    1.783   1_565 S
N828   C830    1.447   .     S
N828   H829    1.029   .     S
C830   H833    1.112   .     S
C830   H832    1.111   .     S
C830   H831    1.108   .     S
C834   C844    1.431   .     S
C834   O867    1.286   .     A
C834   O868    1.293   .     A
C835   C836    1.417   .     A
C835   C396    1.429   1_556 S
C835   C412    1.416   1_556 S
C836   C843    1.429   .     A
C836   C840    1.416   .     A
C837   C841    1.399   .     A
C838   C839    1.388   .     A
C838   C396    1.418   1_556 S
C838   C408    1.399   1_556 S
C839   C840    1.387   .     A
C839   H858    1.082   .     S
C840   N877    1.426   .     S
C841   C850    1.406   .     A
C841   H860    1.076   .     S
C842   C850    1.411   .     A
C842   C849    1.390   .     A
C842   Cl777   1.764   1_655 S
C843   C851    1.394   .     A
C843   C845    1.492   .     S
C844   C552    1.340   1_565 S
C844   H570    1.086   1_565 S
C845   O869    1.323   .     A
C845   O870    1.286   .     A
C846   C847    1.428   .     S
C847   O871    1.283   .     A
C847   O872    1.295   .     A
C848   O874    1.301   .     A
C848   O873    1.296   .     A
C848   C850    1.469   .     S
C849   H761    1.085   1_655 S
C851   H861    1.074   .     S
C851   C852    1.392   .     A
C852   C412    1.394   1_556 S
C853   H862    1.077   .     S
Cu854  O873    1.935   .     S
Cu854  N866    2.020   .     S
Cu854  O869    1.950   .     S
Cu854  O867    1.965   .     S
Cu854  Cu855   2.689   .     S
Cu854  O871    1.960   .     S
Cu855  O870    1.935   .     S
Cu855  O868    1.960   .     S
Cu855  N865    2.020   .     S
Cu855  O872    1.965   .     S
Cu855  O874    1.950   .     S
H857   N768    1.029   1_655 S
H863   C754    1.083   1_655 S
N865   H758    1.029   1_655 S
N865   N768    1.295   1_655 S
Cl876  C552    1.783   1_565 S
N877   C879    1.447   .     S
N877   H878    1.029   .     S
C879   H882    1.112   .     S
C879   H881    1.111   .     S
C879   H880    1.108   .     S
