data_str_m2_o10_o18_pcu_sym.102
_audit_creation_date              2020-01-03
_audit_creation_method            'Materials Studio'
_symmetry_space_group_name_H-M    'P1'
_symmetry_Int_Tables_number       1
_symmetry_cell_setting            triclinic
loop_
_symmetry_equiv_pos_as_xyz
  x,y,z
_cell_length_a                    22.2556
_cell_length_b                    26.0842
_cell_length_c                    31.6505
_cell_angle_alpha                 94.2640
_cell_angle_beta                  74.5376
_cell_angle_gamma                 103.2512
loop_
_atom_site_label
_atom_site_type_symbol
_atom_site_fract_x
_atom_site_fract_y
_atom_site_fract_z
_atom_site_U_iso_or_equiv
_atom_site_adp_type
_atom_site_occupancy
C1     C     0.18172   0.26675   0.25130   0.00000  Uiso   1.00
C2     C     0.15161   0.06659   0.24870   0.00000  Uiso   1.00
C3     C     0.09385   0.13137   0.04009   0.00000  Uiso   1.00
C4     C     0.23947   0.20210   0.45993   0.00000  Uiso   1.00
C5     C     0.05026   0.11837   0.01482   0.00000  Uiso   1.00
C6     C     0.28305   0.21511   0.48521   0.00000  Uiso   1.00
C7     C     0.19020   0.32271   0.25196   0.00000  Uiso   1.00
C8     C     0.14314   0.01062   0.24804   0.00000  Uiso   1.00
C9     C     0.12730   0.16173   0.33328   0.00000  Uiso   1.00
C10    C     0.20603   0.17161   0.16672   0.00000  Uiso   1.00
C11    C     0.10247   0.15483   0.38119   0.00000  Uiso   1.00
C12    C     0.23087   0.17854   0.11881   0.00000  Uiso   1.00
C13    C     0.02292   0.11751   0.44611   0.00000  Uiso   1.00
C14    C     0.31039   0.21594   0.05392   0.00000  Uiso   1.00
C15    C     0.03952   0.12822   0.40146   0.00000  Uiso   1.00
C16    C     0.29379   0.20520   0.09856   0.00000  Uiso   1.00
C17    C     0.14616   0.17181   0.40683   0.00000  Uiso   1.00
C18    C     0.18720   0.16154   0.09316   0.00000  Uiso   1.00
C19    C     0.13067   0.16011   0.45167   0.00000  Uiso   1.00
C20    C     0.20266   0.17331   0.04835   0.00000  Uiso   1.00
C21    C     0.06784   0.13221   0.47096   0.00000  Uiso   1.00
C22    C     0.26548   0.20124   0.02906   0.00000  Uiso   1.00
C23    C     0.17601   0.17412   0.47752   0.00000  Uiso   1.00
C24    C     0.15732   0.15932   0.02249   0.00000  Uiso   1.00
Cu25   Cu    0.10737   0.16108   0.24516   0.00000  Uiso   1.00
Cu26   Cu    0.22596   0.17225   0.25484   0.00000  Uiso   1.00
H27    H     0.00217   0.09701   0.02983   0.00000  Uiso   1.00
H28    H     0.33113   0.23650   0.47021   0.00000  Uiso   1.00
H29    H     0.14048   0.14014   0.10963   0.00000  Uiso   1.00
H30    H     0.19290   0.19314   0.39035   0.00000  Uiso   1.00
H31    H     0.30811   0.09648   0.46134   0.00000  Uiso   1.00
H32    H     0.02519   0.23700   0.03870   0.00000  Uiso   1.00
H33    H     0.07556   0.11855   0.07346   0.00000  Uiso   1.00
H34    H     0.25775   0.21498   0.42657   0.00000  Uiso   1.00
H35    H     0.23552   0.01322   0.25569   0.00000  Uiso   1.00
H36    H     0.09781   0.32011   0.24431   0.00000  Uiso   1.00
H37    H     0.00126   0.20494   0.28443   0.00000  Uiso   1.00
H38    H     0.33207   0.12839   0.21557   0.00000  Uiso   1.00
N39    N     0.31506   0.18068   0.26212   0.00000  Uiso   1.00
N40    N     0.01827   0.15265   0.23788   0.00000  Uiso   1.00
O41    O     0.12815   0.23809   0.24686   0.00000  Uiso   1.00
O42    O     0.20518   0.09524   0.25314   0.00000  Uiso   1.00
O43    O     0.22829   0.24753   0.25503   0.00000  Uiso   1.00
O44    O     0.10504   0.08580   0.24497   0.00000  Uiso   1.00
O45    O     0.08851   0.15930   0.30854   0.00000  Uiso   1.00
O46    O     0.24482   0.17403   0.19146   0.00000  Uiso   1.00
O47    O     0.18866   0.16874   0.31671   0.00000  Uiso   1.00
O48    O     0.14468   0.16460   0.18329   0.00000  Uiso   1.00
I49    I     0.03341   0.23444   0.13164   0.00000  Uiso   1.00
I50    I     0.29989   0.09900   0.36840   0.00000  Uiso   1.00
C51    C     0.51506   0.26675   0.25130   0.00000  Uiso   1.00
C52    C     0.48494   0.06659   0.24870   0.00000  Uiso   1.00
C53    C     0.42718   0.13137   0.04009   0.00000  Uiso   1.00
C54    C     0.57280   0.20210   0.45993   0.00000  Uiso   1.00
C55    C     0.38359   0.11837   0.01482   0.00000  Uiso   1.00
C56    C     0.61638   0.21511   0.48521   0.00000  Uiso   1.00
C57    C     0.52353   0.32271   0.25196   0.00000  Uiso   1.00
C58    C     0.47647   0.01062   0.24804   0.00000  Uiso   1.00
C59    C     0.46064   0.16173   0.33328   0.00000  Uiso   1.00
C60    C     0.53936   0.17161   0.16672   0.00000  Uiso   1.00
C61    C     0.43580   0.15483   0.38119   0.00000  Uiso   1.00
C62    C     0.56420   0.17854   0.11881   0.00000  Uiso   1.00
C63    C     0.35626   0.11751   0.44611   0.00000  Uiso   1.00
C64    C     0.64372   0.21594   0.05392   0.00000  Uiso   1.00
C65    C     0.37286   0.12822   0.40146   0.00000  Uiso   1.00
C66    C     0.62713   0.20520   0.09856   0.00000  Uiso   1.00
C67    C     0.47949   0.17181   0.40683   0.00000  Uiso   1.00
C68    C     0.52053   0.16154   0.09316   0.00000  Uiso   1.00
C69    C     0.46401   0.16011   0.45167   0.00000  Uiso   1.00
C70    C     0.53599   0.17331   0.04835   0.00000  Uiso   1.00
C71    C     0.40117   0.13221   0.47096   0.00000  Uiso   1.00
C72    C     0.59881   0.20124   0.02906   0.00000  Uiso   1.00
C73    C     0.50934   0.17412   0.47752   0.00000  Uiso   1.00
C74    C     0.49065   0.15932   0.02249   0.00000  Uiso   1.00
Cu75   Cu    0.44071   0.16108   0.24516   0.00000  Uiso   1.00
Cu76   Cu    0.55929   0.17225   0.25484   0.00000  Uiso   1.00
H77    H     0.33551   0.09701   0.02983   0.00000  Uiso   1.00
H78    H     0.66446   0.23650   0.47021   0.00000  Uiso   1.00
H79    H     0.47382   0.14014   0.10963   0.00000  Uiso   1.00
H80    H     0.52623   0.19314   0.39035   0.00000  Uiso   1.00
H81    H     0.64145   0.09648   0.46134   0.00000  Uiso   1.00
H82    H     0.35852   0.23700   0.03870   0.00000  Uiso   1.00
H83    H     0.40889   0.11855   0.07346   0.00000  Uiso   1.00
H84    H     0.59108   0.21498   0.42657   0.00000  Uiso   1.00
H85    H     0.56886   0.01322   0.25569   0.00000  Uiso   1.00
H86    H     0.43114   0.32011   0.24431   0.00000  Uiso   1.00
H87    H     0.33459   0.20494   0.28443   0.00000  Uiso   1.00
H88    H     0.66541   0.12839   0.21557   0.00000  Uiso   1.00
N89    N     0.64839   0.18068   0.26212   0.00000  Uiso   1.00
N90    N     0.35161   0.15265   0.23788   0.00000  Uiso   1.00
O91    O     0.46148   0.23809   0.24686   0.00000  Uiso   1.00
O92    O     0.53852   0.09524   0.25314   0.00000  Uiso   1.00
O93    O     0.56163   0.24753   0.25503   0.00000  Uiso   1.00
O94    O     0.43837   0.08580   0.24497   0.00000  Uiso   1.00
O95    O     0.42185   0.15930   0.30854   0.00000  Uiso   1.00
O96    O     0.57815   0.17403   0.19146   0.00000  Uiso   1.00
O97    O     0.52199   0.16874   0.31671   0.00000  Uiso   1.00
O98    O     0.47801   0.16460   0.18329   0.00000  Uiso   1.00
I99    I     0.36674   0.23444   0.13164   0.00000  Uiso   1.00
I100   I     0.63322   0.09900   0.36840   0.00000  Uiso   1.00
C101   C     0.84839   0.26675   0.25130   0.00000  Uiso   1.00
C102   C     0.81828   0.06659   0.24870   0.00000  Uiso   1.00
C103   C     0.76051   0.13137   0.04009   0.00000  Uiso   1.00
C104   C     0.90613   0.20210   0.45993   0.00000  Uiso   1.00
C105   C     0.71693   0.11837   0.01482   0.00000  Uiso   1.00
C106   C     0.94972   0.21511   0.48521   0.00000  Uiso   1.00
C107   C     0.85686   0.32271   0.25196   0.00000  Uiso   1.00
C108   C     0.80980   0.01062   0.24804   0.00000  Uiso   1.00
C109   C     0.79397   0.16173   0.33328   0.00000  Uiso   1.00
C110   C     0.87270   0.17161   0.16672   0.00000  Uiso   1.00
C111   C     0.76914   0.15483   0.38119   0.00000  Uiso   1.00
C112   C     0.89754   0.17854   0.11881   0.00000  Uiso   1.00
C113   C     0.68959   0.11751   0.44611   0.00000  Uiso   1.00
C114   C     0.97706   0.21594   0.05392   0.00000  Uiso   1.00
C115   C     0.70619   0.12822   0.40146   0.00000  Uiso   1.00
C116   C     0.96046   0.20520   0.09856   0.00000  Uiso   1.00
C117   C     0.81282   0.17181   0.40683   0.00000  Uiso   1.00
C118   C     0.85386   0.16154   0.09316   0.00000  Uiso   1.00
C119   C     0.79734   0.16011   0.45167   0.00000  Uiso   1.00
C120   C     0.86933   0.17331   0.04835   0.00000  Uiso   1.00
C121   C     0.73451   0.13221   0.47096   0.00000  Uiso   1.00
C122   C     0.93215   0.20124   0.02906   0.00000  Uiso   1.00
C123   C     0.84268   0.17412   0.47752   0.00000  Uiso   1.00
C124   C     0.82398   0.15932   0.02249   0.00000  Uiso   1.00
Cu125  Cu    0.77404   0.16108   0.24516   0.00000  Uiso   1.00
Cu126  Cu    0.89263   0.17225   0.25484   0.00000  Uiso   1.00
H127   H     0.66884   0.09701   0.02983   0.00000  Uiso   1.00
H128   H     0.99779   0.23650   0.47021   0.00000  Uiso   1.00
H129   H     0.80715   0.14014   0.10963   0.00000  Uiso   1.00
H130   H     0.85957   0.19314   0.39035   0.00000  Uiso   1.00
H131   H     0.97478   0.09648   0.46134   0.00000  Uiso   1.00
H132   H     0.69185   0.23700   0.03870   0.00000  Uiso   1.00
H133   H     0.74223   0.11855   0.07346   0.00000  Uiso   1.00
H134   H     0.92441   0.21498   0.42657   0.00000  Uiso   1.00
H135   H     0.90219   0.01322   0.25569   0.00000  Uiso   1.00
H136   H     0.76448   0.32011   0.24431   0.00000  Uiso   1.00
H137   H     0.66793   0.20494   0.28443   0.00000  Uiso   1.00
H138   H     0.99874   0.12839   0.21557   0.00000  Uiso   1.00
N139   N     0.98173   0.18068   0.26212   0.00000  Uiso   1.00
N140   N     0.68494   0.15265   0.23788   0.00000  Uiso   1.00
O141   O     0.79482   0.23809   0.24686   0.00000  Uiso   1.00
O142   O     0.87185   0.09524   0.25314   0.00000  Uiso   1.00
O143   O     0.89496   0.24753   0.25503   0.00000  Uiso   1.00
O144   O     0.77171   0.08580   0.24497   0.00000  Uiso   1.00
O145   O     0.75518   0.15930   0.30854   0.00000  Uiso   1.00
O146   O     0.91149   0.17403   0.19146   0.00000  Uiso   1.00
O147   O     0.85532   0.16874   0.31671   0.00000  Uiso   1.00
O148   O     0.81134   0.16460   0.18329   0.00000  Uiso   1.00
I149   I     0.70007   0.23444   0.13164   0.00000  Uiso   1.00
I150   I     0.96655   0.09900   0.36840   0.00000  Uiso   1.00
C151   C     0.18172   0.60008   0.25130   0.00000  Uiso   1.00
C152   C     0.15161   0.39992   0.24870   0.00000  Uiso   1.00
C153   C     0.09385   0.46471   0.04009   0.00000  Uiso   1.00
C154   C     0.23947   0.53544   0.45993   0.00000  Uiso   1.00
C155   C     0.05026   0.45171   0.01482   0.00000  Uiso   1.00
C156   C     0.28305   0.54844   0.48521   0.00000  Uiso   1.00
C157   C     0.19020   0.65605   0.25196   0.00000  Uiso   1.00
C158   C     0.14314   0.34395   0.24804   0.00000  Uiso   1.00
C159   C     0.12730   0.49506   0.33328   0.00000  Uiso   1.00
C160   C     0.20603   0.50494   0.16672   0.00000  Uiso   1.00
C161   C     0.10247   0.48816   0.38119   0.00000  Uiso   1.00
C162   C     0.23087   0.51187   0.11881   0.00000  Uiso   1.00
C163   C     0.02292   0.45085   0.44611   0.00000  Uiso   1.00
C164   C     0.31039   0.54927   0.05392   0.00000  Uiso   1.00
C165   C     0.03952   0.46155   0.40146   0.00000  Uiso   1.00
C166   C     0.29379   0.53853   0.09856   0.00000  Uiso   1.00
C167   C     0.14616   0.50515   0.40683   0.00000  Uiso   1.00
C168   C     0.18720   0.49488   0.09316   0.00000  Uiso   1.00
C169   C     0.13067   0.49344   0.45167   0.00000  Uiso   1.00
C170   C     0.20266   0.50664   0.04835   0.00000  Uiso   1.00
C171   C     0.06784   0.46554   0.47096   0.00000  Uiso   1.00
C172   C     0.26548   0.53457   0.02906   0.00000  Uiso   1.00
C173   C     0.17601   0.50745   0.47752   0.00000  Uiso   1.00
C174   C     0.15732   0.49265   0.02249   0.00000  Uiso   1.00
Cu175  Cu    0.10737   0.49441   0.24516   0.00000  Uiso   1.00
Cu176  Cu    0.22596   0.50559   0.25484   0.00000  Uiso   1.00
H177   H     0.00217   0.43035   0.02983   0.00000  Uiso   1.00
H178   H     0.33113   0.56983   0.47021   0.00000  Uiso   1.00
H179   H     0.14048   0.47348   0.10963   0.00000  Uiso   1.00
H180   H     0.19290   0.52647   0.39035   0.00000  Uiso   1.00
H181   H     0.30811   0.42982   0.46134   0.00000  Uiso   1.00
H182   H     0.02519   0.57033   0.03870   0.00000  Uiso   1.00
H183   H     0.07556   0.45188   0.07346   0.00000  Uiso   1.00
H184   H     0.25775   0.54831   0.42657   0.00000  Uiso   1.00
H185   H     0.23552   0.34655   0.25569   0.00000  Uiso   1.00
H186   H     0.09781   0.65345   0.24431   0.00000  Uiso   1.00
H187   H     0.00126   0.53827   0.28443   0.00000  Uiso   1.00
H188   H     0.33207   0.46173   0.21557   0.00000  Uiso   1.00
N189   N     0.31506   0.51401   0.26212   0.00000  Uiso   1.00
N190   N     0.01827   0.48599   0.23788   0.00000  Uiso   1.00
O191   O     0.12815   0.57142   0.24686   0.00000  Uiso   1.00
O192   O     0.20518   0.42858   0.25314   0.00000  Uiso   1.00
O193   O     0.22829   0.58086   0.25503   0.00000  Uiso   1.00
O194   O     0.10504   0.41914   0.24497   0.00000  Uiso   1.00
O195   O     0.08851   0.49263   0.30854   0.00000  Uiso   1.00
O196   O     0.24482   0.50737   0.19146   0.00000  Uiso   1.00
O197   O     0.18866   0.50207   0.31671   0.00000  Uiso   1.00
O198   O     0.14468   0.49793   0.18329   0.00000  Uiso   1.00
I199   I     0.03341   0.56778   0.13164   0.00000  Uiso   1.00
I200   I     0.29989   0.43233   0.36840   0.00000  Uiso   1.00
C201   C     0.51506   0.60008   0.25130   0.00000  Uiso   1.00
C202   C     0.48494   0.39992   0.24870   0.00000  Uiso   1.00
C203   C     0.42718   0.46471   0.04009   0.00000  Uiso   1.00
C204   C     0.57280   0.53544   0.45993   0.00000  Uiso   1.00
C205   C     0.38359   0.45171   0.01482   0.00000  Uiso   1.00
C206   C     0.61638   0.54844   0.48521   0.00000  Uiso   1.00
C207   C     0.52353   0.65605   0.25196   0.00000  Uiso   1.00
C208   C     0.47647   0.34395   0.24804   0.00000  Uiso   1.00
C209   C     0.46064   0.49506   0.33328   0.00000  Uiso   1.00
C210   C     0.53936   0.50494   0.16672   0.00000  Uiso   1.00
C211   C     0.43580   0.48816   0.38119   0.00000  Uiso   1.00
C212   C     0.56420   0.51187   0.11881   0.00000  Uiso   1.00
C213   C     0.35626   0.45085   0.44611   0.00000  Uiso   1.00
C214   C     0.64372   0.54927   0.05392   0.00000  Uiso   1.00
C215   C     0.37286   0.46155   0.40146   0.00000  Uiso   1.00
C216   C     0.62713   0.53853   0.09856   0.00000  Uiso   1.00
C217   C     0.47949   0.50515   0.40683   0.00000  Uiso   1.00
C218   C     0.52053   0.49488   0.09316   0.00000  Uiso   1.00
C219   C     0.46401   0.49344   0.45167   0.00000  Uiso   1.00
C220   C     0.53599   0.50664   0.04835   0.00000  Uiso   1.00
C221   C     0.40117   0.46554   0.47096   0.00000  Uiso   1.00
C222   C     0.59881   0.53457   0.02906   0.00000  Uiso   1.00
C223   C     0.50934   0.50745   0.47752   0.00000  Uiso   1.00
C224   C     0.49065   0.49265   0.02249   0.00000  Uiso   1.00
Cu225  Cu    0.44071   0.49441   0.24516   0.00000  Uiso   1.00
Cu226  Cu    0.55929   0.50559   0.25484   0.00000  Uiso   1.00
H227   H     0.33551   0.43035   0.02983   0.00000  Uiso   1.00
H228   H     0.66446   0.56983   0.47021   0.00000  Uiso   1.00
H229   H     0.47382   0.47348   0.10963   0.00000  Uiso   1.00
H230   H     0.52623   0.52647   0.39035   0.00000  Uiso   1.00
H231   H     0.64145   0.42982   0.46134   0.00000  Uiso   1.00
H232   H     0.35852   0.57033   0.03870   0.00000  Uiso   1.00
H233   H     0.40889   0.45188   0.07346   0.00000  Uiso   1.00
H234   H     0.59108   0.54831   0.42657   0.00000  Uiso   1.00
H235   H     0.56886   0.34655   0.25569   0.00000  Uiso   1.00
H236   H     0.43114   0.65345   0.24431   0.00000  Uiso   1.00
H237   H     0.33459   0.53827   0.28443   0.00000  Uiso   1.00
H238   H     0.66541   0.46173   0.21557   0.00000  Uiso   1.00
N239   N     0.64839   0.51401   0.26212   0.00000  Uiso   1.00
N240   N     0.35161   0.48599   0.23788   0.00000  Uiso   1.00
O241   O     0.46148   0.57142   0.24686   0.00000  Uiso   1.00
O242   O     0.53852   0.42858   0.25314   0.00000  Uiso   1.00
O243   O     0.56163   0.58086   0.25503   0.00000  Uiso   1.00
O244   O     0.43837   0.41914   0.24497   0.00000  Uiso   1.00
O245   O     0.42185   0.49263   0.30854   0.00000  Uiso   1.00
O246   O     0.57815   0.50737   0.19146   0.00000  Uiso   1.00
O247   O     0.52199   0.50207   0.31671   0.00000  Uiso   1.00
O248   O     0.47801   0.49793   0.18329   0.00000  Uiso   1.00
I249   I     0.36674   0.56778   0.13164   0.00000  Uiso   1.00
I250   I     0.63322   0.43233   0.36840   0.00000  Uiso   1.00
C251   C     0.84839   0.60008   0.25130   0.00000  Uiso   1.00
C252   C     0.81828   0.39992   0.24870   0.00000  Uiso   1.00
C253   C     0.76051   0.46471   0.04009   0.00000  Uiso   1.00
C254   C     0.90613   0.53544   0.45993   0.00000  Uiso   1.00
C255   C     0.71693   0.45171   0.01482   0.00000  Uiso   1.00
C256   C     0.94972   0.54844   0.48521   0.00000  Uiso   1.00
C257   C     0.85686   0.65605   0.25196   0.00000  Uiso   1.00
C258   C     0.80980   0.34395   0.24804   0.00000  Uiso   1.00
C259   C     0.79397   0.49506   0.33328   0.00000  Uiso   1.00
C260   C     0.87270   0.50494   0.16672   0.00000  Uiso   1.00
C261   C     0.76914   0.48816   0.38119   0.00000  Uiso   1.00
C262   C     0.89754   0.51187   0.11881   0.00000  Uiso   1.00
C263   C     0.68959   0.45085   0.44611   0.00000  Uiso   1.00
C264   C     0.97706   0.54927   0.05392   0.00000  Uiso   1.00
C265   C     0.70619   0.46155   0.40146   0.00000  Uiso   1.00
C266   C     0.96046   0.53853   0.09856   0.00000  Uiso   1.00
C267   C     0.81282   0.50515   0.40683   0.00000  Uiso   1.00
C268   C     0.85386   0.49488   0.09316   0.00000  Uiso   1.00
C269   C     0.79734   0.49344   0.45167   0.00000  Uiso   1.00
C270   C     0.86933   0.50664   0.04835   0.00000  Uiso   1.00
C271   C     0.73451   0.46554   0.47096   0.00000  Uiso   1.00
C272   C     0.93215   0.53457   0.02906   0.00000  Uiso   1.00
C273   C     0.84268   0.50745   0.47752   0.00000  Uiso   1.00
C274   C     0.82398   0.49265   0.02249   0.00000  Uiso   1.00
Cu275  Cu    0.77404   0.49441   0.24516   0.00000  Uiso   1.00
Cu276  Cu    0.89263   0.50559   0.25484   0.00000  Uiso   1.00
H277   H     0.66884   0.43035   0.02983   0.00000  Uiso   1.00
H278   H     0.99779   0.56983   0.47021   0.00000  Uiso   1.00
H279   H     0.80715   0.47348   0.10963   0.00000  Uiso   1.00
H280   H     0.85957   0.52647   0.39035   0.00000  Uiso   1.00
H281   H     0.97478   0.42982   0.46134   0.00000  Uiso   1.00
H282   H     0.69185   0.57033   0.03870   0.00000  Uiso   1.00
H283   H     0.74223   0.45188   0.07346   0.00000  Uiso   1.00
H284   H     0.92441   0.54831   0.42657   0.00000  Uiso   1.00
H285   H     0.90219   0.34655   0.25569   0.00000  Uiso   1.00
H286   H     0.76448   0.65345   0.24431   0.00000  Uiso   1.00
H287   H     0.66793   0.53827   0.28443   0.00000  Uiso   1.00
H288   H     0.99874   0.46173   0.21557   0.00000  Uiso   1.00
N289   N     0.98173   0.51401   0.26212   0.00000  Uiso   1.00
N290   N     0.68494   0.48599   0.23788   0.00000  Uiso   1.00
O291   O     0.79482   0.57142   0.24686   0.00000  Uiso   1.00
O292   O     0.87185   0.42858   0.25314   0.00000  Uiso   1.00
O293   O     0.89496   0.58086   0.25503   0.00000  Uiso   1.00
O294   O     0.77171   0.41914   0.24497   0.00000  Uiso   1.00
O295   O     0.75518   0.49263   0.30854   0.00000  Uiso   1.00
O296   O     0.91149   0.50737   0.19146   0.00000  Uiso   1.00
O297   O     0.85532   0.50207   0.31671   0.00000  Uiso   1.00
O298   O     0.81134   0.49793   0.18329   0.00000  Uiso   1.00
I299   I     0.70007   0.56778   0.13164   0.00000  Uiso   1.00
I300   I     0.96655   0.43233   0.36840   0.00000  Uiso   1.00
C301   C     0.18172   0.93341   0.25130   0.00000  Uiso   1.00
C302   C     0.15161   0.73325   0.24870   0.00000  Uiso   1.00
C303   C     0.09385   0.79804   0.04009   0.00000  Uiso   1.00
C304   C     0.23947   0.86877   0.45993   0.00000  Uiso   1.00
C305   C     0.05026   0.78504   0.01482   0.00000  Uiso   1.00
C306   C     0.28305   0.88177   0.48521   0.00000  Uiso   1.00
C307   C     0.19020   0.98938   0.25196   0.00000  Uiso   1.00
C308   C     0.14314   0.67729   0.24804   0.00000  Uiso   1.00
C309   C     0.12730   0.82839   0.33328   0.00000  Uiso   1.00
C310   C     0.20603   0.83828   0.16672   0.00000  Uiso   1.00
C311   C     0.10247   0.82150   0.38119   0.00000  Uiso   1.00
C312   C     0.23087   0.84520   0.11881   0.00000  Uiso   1.00
C313   C     0.02292   0.78418   0.44611   0.00000  Uiso   1.00
C314   C     0.31039   0.88261   0.05392   0.00000  Uiso   1.00
C315   C     0.03952   0.79489   0.40146   0.00000  Uiso   1.00
C316   C     0.29379   0.87187   0.09856   0.00000  Uiso   1.00
C317   C     0.14616   0.83848   0.40683   0.00000  Uiso   1.00
C318   C     0.18720   0.82821   0.09316   0.00000  Uiso   1.00
C319   C     0.13067   0.82678   0.45167   0.00000  Uiso   1.00
C320   C     0.20266   0.83998   0.04835   0.00000  Uiso   1.00
C321   C     0.06784   0.79888   0.47096   0.00000  Uiso   1.00
C322   C     0.26548   0.86791   0.02906   0.00000  Uiso   1.00
C323   C     0.17601   0.84078   0.47752   0.00000  Uiso   1.00
C324   C     0.15732   0.82599   0.02249   0.00000  Uiso   1.00
Cu325  Cu    0.10737   0.82775   0.24516   0.00000  Uiso   1.00
Cu326  Cu    0.22596   0.83892   0.25484   0.00000  Uiso   1.00
H327   H     0.00217   0.76368   0.02983   0.00000  Uiso   1.00
H328   H     0.33113   0.90317   0.47021   0.00000  Uiso   1.00
H329   H     0.14048   0.80681   0.10963   0.00000  Uiso   1.00
H330   H     0.19290   0.85981   0.39035   0.00000  Uiso   1.00
H331   H     0.30811   0.76315   0.46134   0.00000  Uiso   1.00
H332   H     0.02519   0.90367   0.03870   0.00000  Uiso   1.00
H333   H     0.07556   0.78522   0.07346   0.00000  Uiso   1.00
H334   H     0.25775   0.88165   0.42657   0.00000  Uiso   1.00
H335   H     0.23552   0.67989   0.25569   0.00000  Uiso   1.00
H336   H     0.09781   0.98678   0.24431   0.00000  Uiso   1.00
H337   H     0.00126   0.87161   0.28443   0.00000  Uiso   1.00
H338   H     0.33207   0.79506   0.21557   0.00000  Uiso   1.00
N339   N     0.31506   0.84735   0.26212   0.00000  Uiso   1.00
N340   N     0.01827   0.81932   0.23788   0.00000  Uiso   1.00
O341   O     0.12815   0.90476   0.24686   0.00000  Uiso   1.00
O342   O     0.20518   0.76191   0.25314   0.00000  Uiso   1.00
O343   O     0.22829   0.91420   0.25503   0.00000  Uiso   1.00
O344   O     0.10504   0.75247   0.24497   0.00000  Uiso   1.00
O345   O     0.08851   0.82597   0.30854   0.00000  Uiso   1.00
O346   O     0.24482   0.84070   0.19146   0.00000  Uiso   1.00
O347   O     0.18866   0.83540   0.31671   0.00000  Uiso   1.00
O348   O     0.14468   0.83126   0.18329   0.00000  Uiso   1.00
I349   I     0.03341   0.90111   0.13164   0.00000  Uiso   1.00
I350   I     0.29989   0.76567   0.36840   0.00000  Uiso   1.00
C351   C     0.51506   0.93341   0.25130   0.00000  Uiso   1.00
C352   C     0.48494   0.73325   0.24870   0.00000  Uiso   1.00
C353   C     0.42718   0.79804   0.04009   0.00000  Uiso   1.00
C354   C     0.57280   0.86877   0.45993   0.00000  Uiso   1.00
C355   C     0.38359   0.78504   0.01482   0.00000  Uiso   1.00
C356   C     0.61638   0.88177   0.48521   0.00000  Uiso   1.00
C357   C     0.52353   0.98938   0.25196   0.00000  Uiso   1.00
C358   C     0.47647   0.67729   0.24804   0.00000  Uiso   1.00
C359   C     0.46064   0.82839   0.33328   0.00000  Uiso   1.00
C360   C     0.53936   0.83828   0.16672   0.00000  Uiso   1.00
C361   C     0.43580   0.82150   0.38119   0.00000  Uiso   1.00
C362   C     0.56420   0.84520   0.11881   0.00000  Uiso   1.00
C363   C     0.35626   0.78418   0.44611   0.00000  Uiso   1.00
C364   C     0.64372   0.88261   0.05392   0.00000  Uiso   1.00
C365   C     0.37286   0.79489   0.40146   0.00000  Uiso   1.00
C366   C     0.62713   0.87187   0.09856   0.00000  Uiso   1.00
C367   C     0.47949   0.83848   0.40683   0.00000  Uiso   1.00
C368   C     0.52053   0.82821   0.09316   0.00000  Uiso   1.00
C369   C     0.46401   0.82678   0.45167   0.00000  Uiso   1.00
C370   C     0.53599   0.83998   0.04835   0.00000  Uiso   1.00
C371   C     0.40117   0.79888   0.47096   0.00000  Uiso   1.00
C372   C     0.59881   0.86791   0.02906   0.00000  Uiso   1.00
C373   C     0.50934   0.84078   0.47752   0.00000  Uiso   1.00
C374   C     0.49065   0.82599   0.02249   0.00000  Uiso   1.00
Cu375  Cu    0.44071   0.82775   0.24516   0.00000  Uiso   1.00
Cu376  Cu    0.55929   0.83892   0.25484   0.00000  Uiso   1.00
H377   H     0.33551   0.76368   0.02983   0.00000  Uiso   1.00
H378   H     0.66446   0.90317   0.47021   0.00000  Uiso   1.00
H379   H     0.47382   0.80681   0.10963   0.00000  Uiso   1.00
H380   H     0.52623   0.85981   0.39035   0.00000  Uiso   1.00
H381   H     0.64145   0.76315   0.46134   0.00000  Uiso   1.00
H382   H     0.35852   0.90367   0.03870   0.00000  Uiso   1.00
H383   H     0.40889   0.78522   0.07346   0.00000  Uiso   1.00
H384   H     0.59108   0.88165   0.42657   0.00000  Uiso   1.00
H385   H     0.56886   0.67989   0.25569   0.00000  Uiso   1.00
H386   H     0.43114   0.98678   0.24431   0.00000  Uiso   1.00
H387   H     0.33459   0.87161   0.28443   0.00000  Uiso   1.00
H388   H     0.66541   0.79506   0.21557   0.00000  Uiso   1.00
N389   N     0.64839   0.84735   0.26212   0.00000  Uiso   1.00
N390   N     0.35161   0.81932   0.23788   0.00000  Uiso   1.00
O391   O     0.46148   0.90476   0.24686   0.00000  Uiso   1.00
O392   O     0.53852   0.76191   0.25314   0.00000  Uiso   1.00
O393   O     0.56163   0.91420   0.25503   0.00000  Uiso   1.00
O394   O     0.43837   0.75247   0.24497   0.00000  Uiso   1.00
O395   O     0.42185   0.82597   0.30854   0.00000  Uiso   1.00
O396   O     0.57815   0.84070   0.19146   0.00000  Uiso   1.00
O397   O     0.52199   0.83540   0.31671   0.00000  Uiso   1.00
O398   O     0.47801   0.83126   0.18329   0.00000  Uiso   1.00
I399   I     0.36674   0.90111   0.13164   0.00000  Uiso   1.00
I400   I     0.63322   0.76567   0.36840   0.00000  Uiso   1.00
C401   C     0.84839   0.93341   0.25130   0.00000  Uiso   1.00
C402   C     0.81828   0.73325   0.24870   0.00000  Uiso   1.00
C403   C     0.76051   0.79804   0.04009   0.00000  Uiso   1.00
C404   C     0.90613   0.86877   0.45993   0.00000  Uiso   1.00
C405   C     0.71693   0.78504   0.01482   0.00000  Uiso   1.00
C406   C     0.94972   0.88177   0.48521   0.00000  Uiso   1.00
C407   C     0.85686   0.98938   0.25196   0.00000  Uiso   1.00
C408   C     0.80980   0.67729   0.24804   0.00000  Uiso   1.00
C409   C     0.79397   0.82839   0.33328   0.00000  Uiso   1.00
C410   C     0.87270   0.83828   0.16672   0.00000  Uiso   1.00
C411   C     0.76914   0.82150   0.38119   0.00000  Uiso   1.00
C412   C     0.89754   0.84520   0.11881   0.00000  Uiso   1.00
C413   C     0.68959   0.78418   0.44611   0.00000  Uiso   1.00
C414   C     0.97706   0.88261   0.05392   0.00000  Uiso   1.00
C415   C     0.70619   0.79489   0.40146   0.00000  Uiso   1.00
C416   C     0.96046   0.87187   0.09856   0.00000  Uiso   1.00
C417   C     0.81282   0.83848   0.40683   0.00000  Uiso   1.00
C418   C     0.85386   0.82821   0.09316   0.00000  Uiso   1.00
C419   C     0.79734   0.82678   0.45167   0.00000  Uiso   1.00
C420   C     0.86933   0.83998   0.04835   0.00000  Uiso   1.00
C421   C     0.73451   0.79888   0.47096   0.00000  Uiso   1.00
C422   C     0.93215   0.86791   0.02906   0.00000  Uiso   1.00
C423   C     0.84268   0.84078   0.47752   0.00000  Uiso   1.00
C424   C     0.82398   0.82599   0.02249   0.00000  Uiso   1.00
Cu425  Cu    0.77404   0.82775   0.24516   0.00000  Uiso   1.00
Cu426  Cu    0.89263   0.83892   0.25484   0.00000  Uiso   1.00
H427   H     0.66884   0.76368   0.02983   0.00000  Uiso   1.00
H428   H     0.99779   0.90317   0.47021   0.00000  Uiso   1.00
H429   H     0.80715   0.80681   0.10963   0.00000  Uiso   1.00
H430   H     0.85957   0.85981   0.39035   0.00000  Uiso   1.00
H431   H     0.97478   0.76315   0.46134   0.00000  Uiso   1.00
H432   H     0.69185   0.90367   0.03870   0.00000  Uiso   1.00
H433   H     0.74223   0.78522   0.07346   0.00000  Uiso   1.00
H434   H     0.92441   0.88165   0.42657   0.00000  Uiso   1.00
H435   H     0.90219   0.67989   0.25569   0.00000  Uiso   1.00
H436   H     0.76448   0.98678   0.24431   0.00000  Uiso   1.00
H437   H     0.66793   0.87161   0.28443   0.00000  Uiso   1.00
H438   H     0.99874   0.79506   0.21557   0.00000  Uiso   1.00
N439   N     0.98173   0.84735   0.26212   0.00000  Uiso   1.00
N440   N     0.68494   0.81932   0.23788   0.00000  Uiso   1.00
O441   O     0.79482   0.90476   0.24686   0.00000  Uiso   1.00
O442   O     0.87185   0.76191   0.25314   0.00000  Uiso   1.00
O443   O     0.89496   0.91420   0.25503   0.00000  Uiso   1.00
O444   O     0.77171   0.75247   0.24497   0.00000  Uiso   1.00
O445   O     0.75518   0.82597   0.30854   0.00000  Uiso   1.00
O446   O     0.91149   0.84070   0.19146   0.00000  Uiso   1.00
O447   O     0.85532   0.83540   0.31671   0.00000  Uiso   1.00
O448   O     0.81134   0.83126   0.18329   0.00000  Uiso   1.00
I449   I     0.70007   0.90111   0.13164   0.00000  Uiso   1.00
I450   I     0.96655   0.76567   0.36840   0.00000  Uiso   1.00
C451   C     0.18172   0.26675   0.75130   0.00000  Uiso   1.00
C452   C     0.15161   0.06659   0.74870   0.00000  Uiso   1.00
C453   C     0.09385   0.13137   0.54009   0.00000  Uiso   1.00
C454   C     0.23947   0.20210   0.95993   0.00000  Uiso   1.00
C455   C     0.05026   0.11837   0.51482   0.00000  Uiso   1.00
C456   C     0.28305   0.21511   0.98521   0.00000  Uiso   1.00
C457   C     0.19020   0.32271   0.75196   0.00000  Uiso   1.00
C458   C     0.14314   0.01062   0.74804   0.00000  Uiso   1.00
C459   C     0.12730   0.16173   0.83328   0.00000  Uiso   1.00
C460   C     0.20603   0.17161   0.66672   0.00000  Uiso   1.00
C461   C     0.10247   0.15483   0.88119   0.00000  Uiso   1.00
C462   C     0.23087   0.17854   0.61881   0.00000  Uiso   1.00
C463   C     0.02292   0.11751   0.94611   0.00000  Uiso   1.00
C464   C     0.31039   0.21594   0.55392   0.00000  Uiso   1.00
C465   C     0.03952   0.12822   0.90146   0.00000  Uiso   1.00
C466   C     0.29379   0.20520   0.59856   0.00000  Uiso   1.00
C467   C     0.14616   0.17181   0.90683   0.00000  Uiso   1.00
C468   C     0.18720   0.16154   0.59316   0.00000  Uiso   1.00
C469   C     0.13067   0.16011   0.95167   0.00000  Uiso   1.00
C470   C     0.20266   0.17331   0.54835   0.00000  Uiso   1.00
C471   C     0.06784   0.13221   0.97096   0.00000  Uiso   1.00
C472   C     0.26548   0.20124   0.52906   0.00000  Uiso   1.00
C473   C     0.17601   0.17412   0.97752   0.00000  Uiso   1.00
C474   C     0.15732   0.15932   0.52249   0.00000  Uiso   1.00
Cu475  Cu    0.10737   0.16108   0.74516   0.00000  Uiso   1.00
Cu476  Cu    0.22596   0.17225   0.75484   0.00000  Uiso   1.00
H477   H     0.00217   0.09701   0.52983   0.00000  Uiso   1.00
H478   H     0.33113   0.23650   0.97021   0.00000  Uiso   1.00
H479   H     0.14048   0.14014   0.60963   0.00000  Uiso   1.00
H480   H     0.19290   0.19314   0.89035   0.00000  Uiso   1.00
H481   H     0.30811   0.09648   0.96134   0.00000  Uiso   1.00
H482   H     0.02519   0.23700   0.53870   0.00000  Uiso   1.00
H483   H     0.07556   0.11855   0.57346   0.00000  Uiso   1.00
H484   H     0.25775   0.21498   0.92657   0.00000  Uiso   1.00
H485   H     0.23552   0.01322   0.75569   0.00000  Uiso   1.00
H486   H     0.09781   0.32011   0.74431   0.00000  Uiso   1.00
H487   H     0.00126   0.20494   0.78443   0.00000  Uiso   1.00
H488   H     0.33207   0.12839   0.71557   0.00000  Uiso   1.00
N489   N     0.31506   0.18068   0.76212   0.00000  Uiso   1.00
N490   N     0.01827   0.15265   0.73788   0.00000  Uiso   1.00
O491   O     0.12815   0.23809   0.74686   0.00000  Uiso   1.00
O492   O     0.20518   0.09524   0.75314   0.00000  Uiso   1.00
O493   O     0.22829   0.24753   0.75503   0.00000  Uiso   1.00
O494   O     0.10504   0.08580   0.74497   0.00000  Uiso   1.00
O495   O     0.08851   0.15930   0.80854   0.00000  Uiso   1.00
O496   O     0.24482   0.17403   0.69146   0.00000  Uiso   1.00
O497   O     0.18866   0.16874   0.81671   0.00000  Uiso   1.00
O498   O     0.14468   0.16460   0.68329   0.00000  Uiso   1.00
I499   I     0.03341   0.23444   0.63164   0.00000  Uiso   1.00
I500   I     0.29989   0.09900   0.86840   0.00000  Uiso   1.00
C501   C     0.51506   0.26675   0.75130   0.00000  Uiso   1.00
C502   C     0.48494   0.06659   0.74870   0.00000  Uiso   1.00
C503   C     0.42718   0.13137   0.54009   0.00000  Uiso   1.00
C504   C     0.57280   0.20210   0.95993   0.00000  Uiso   1.00
C505   C     0.38359   0.11837   0.51482   0.00000  Uiso   1.00
C506   C     0.61638   0.21511   0.98521   0.00000  Uiso   1.00
C507   C     0.52353   0.32271   0.75196   0.00000  Uiso   1.00
C508   C     0.47647   0.01062   0.74804   0.00000  Uiso   1.00
C509   C     0.46064   0.16173   0.83328   0.00000  Uiso   1.00
C510   C     0.53936   0.17161   0.66672   0.00000  Uiso   1.00
C511   C     0.43580   0.15483   0.88119   0.00000  Uiso   1.00
C512   C     0.56420   0.17854   0.61881   0.00000  Uiso   1.00
C513   C     0.35626   0.11751   0.94611   0.00000  Uiso   1.00
C514   C     0.64372   0.21594   0.55392   0.00000  Uiso   1.00
C515   C     0.37286   0.12822   0.90146   0.00000  Uiso   1.00
C516   C     0.62713   0.20520   0.59856   0.00000  Uiso   1.00
C517   C     0.47949   0.17181   0.90683   0.00000  Uiso   1.00
C518   C     0.52053   0.16154   0.59316   0.00000  Uiso   1.00
C519   C     0.46401   0.16011   0.95167   0.00000  Uiso   1.00
C520   C     0.53599   0.17331   0.54835   0.00000  Uiso   1.00
C521   C     0.40117   0.13221   0.97096   0.00000  Uiso   1.00
C522   C     0.59881   0.20124   0.52906   0.00000  Uiso   1.00
C523   C     0.50934   0.17412   0.97752   0.00000  Uiso   1.00
C524   C     0.49065   0.15932   0.52249   0.00000  Uiso   1.00
Cu525  Cu    0.44071   0.16108   0.74516   0.00000  Uiso   1.00
Cu526  Cu    0.55929   0.17225   0.75484   0.00000  Uiso   1.00
H527   H     0.33551   0.09701   0.52983   0.00000  Uiso   1.00
H528   H     0.66446   0.23650   0.97021   0.00000  Uiso   1.00
H529   H     0.47382   0.14014   0.60963   0.00000  Uiso   1.00
H530   H     0.52623   0.19314   0.89035   0.00000  Uiso   1.00
H531   H     0.64145   0.09648   0.96134   0.00000  Uiso   1.00
H532   H     0.35852   0.23700   0.53870   0.00000  Uiso   1.00
H533   H     0.40889   0.11855   0.57346   0.00000  Uiso   1.00
H534   H     0.59108   0.21498   0.92657   0.00000  Uiso   1.00
H535   H     0.56886   0.01322   0.75569   0.00000  Uiso   1.00
H536   H     0.43114   0.32011   0.74431   0.00000  Uiso   1.00
H537   H     0.33459   0.20494   0.78443   0.00000  Uiso   1.00
H538   H     0.66541   0.12839   0.71557   0.00000  Uiso   1.00
N539   N     0.64839   0.18068   0.76212   0.00000  Uiso   1.00
N540   N     0.35161   0.15265   0.73788   0.00000  Uiso   1.00
O541   O     0.46148   0.23809   0.74686   0.00000  Uiso   1.00
O542   O     0.53852   0.09524   0.75314   0.00000  Uiso   1.00
O543   O     0.56163   0.24753   0.75503   0.00000  Uiso   1.00
O544   O     0.43837   0.08580   0.74497   0.00000  Uiso   1.00
O545   O     0.42185   0.15930   0.80854   0.00000  Uiso   1.00
O546   O     0.57815   0.17403   0.69146   0.00000  Uiso   1.00
O547   O     0.52199   0.16874   0.81671   0.00000  Uiso   1.00
O548   O     0.47801   0.16460   0.68329   0.00000  Uiso   1.00
I549   I     0.36674   0.23444   0.63164   0.00000  Uiso   1.00
I550   I     0.63322   0.09900   0.86840   0.00000  Uiso   1.00
C551   C     0.84839   0.26675   0.75130   0.00000  Uiso   1.00
C552   C     0.81828   0.06659   0.74870   0.00000  Uiso   1.00
C553   C     0.76051   0.13137   0.54009   0.00000  Uiso   1.00
C554   C     0.90613   0.20210   0.95993   0.00000  Uiso   1.00
C555   C     0.71693   0.11837   0.51482   0.00000  Uiso   1.00
C556   C     0.94972   0.21511   0.98521   0.00000  Uiso   1.00
C557   C     0.85686   0.32271   0.75196   0.00000  Uiso   1.00
C558   C     0.80980   0.01062   0.74804   0.00000  Uiso   1.00
C559   C     0.79397   0.16173   0.83328   0.00000  Uiso   1.00
C560   C     0.87270   0.17161   0.66672   0.00000  Uiso   1.00
C561   C     0.76914   0.15483   0.88119   0.00000  Uiso   1.00
C562   C     0.89754   0.17854   0.61881   0.00000  Uiso   1.00
C563   C     0.68959   0.11751   0.94611   0.00000  Uiso   1.00
C564   C     0.97706   0.21594   0.55392   0.00000  Uiso   1.00
C565   C     0.70619   0.12822   0.90146   0.00000  Uiso   1.00
C566   C     0.96046   0.20520   0.59856   0.00000  Uiso   1.00
C567   C     0.81282   0.17181   0.90683   0.00000  Uiso   1.00
C568   C     0.85386   0.16154   0.59316   0.00000  Uiso   1.00
C569   C     0.79734   0.16011   0.95167   0.00000  Uiso   1.00
C570   C     0.86933   0.17331   0.54835   0.00000  Uiso   1.00
C571   C     0.73451   0.13221   0.97096   0.00000  Uiso   1.00
C572   C     0.93215   0.20124   0.52906   0.00000  Uiso   1.00
C573   C     0.84268   0.17412   0.97752   0.00000  Uiso   1.00
C574   C     0.82398   0.15932   0.52249   0.00000  Uiso   1.00
Cu575  Cu    0.77404   0.16108   0.74516   0.00000  Uiso   1.00
Cu576  Cu    0.89263   0.17225   0.75484   0.00000  Uiso   1.00
H577   H     0.66884   0.09701   0.52983   0.00000  Uiso   1.00
H578   H     0.99779   0.23650   0.97021   0.00000  Uiso   1.00
H579   H     0.80715   0.14014   0.60963   0.00000  Uiso   1.00
H580   H     0.85957   0.19314   0.89035   0.00000  Uiso   1.00
H581   H     0.97478   0.09648   0.96134   0.00000  Uiso   1.00
H582   H     0.69185   0.23700   0.53870   0.00000  Uiso   1.00
H583   H     0.74223   0.11855   0.57346   0.00000  Uiso   1.00
H584   H     0.92441   0.21498   0.92657   0.00000  Uiso   1.00
H585   H     0.90219   0.01322   0.75569   0.00000  Uiso   1.00
H586   H     0.76448   0.32011   0.74431   0.00000  Uiso   1.00
H587   H     0.66793   0.20494   0.78443   0.00000  Uiso   1.00
H588   H     0.99874   0.12839   0.71557   0.00000  Uiso   1.00
N589   N     0.98173   0.18068   0.76212   0.00000  Uiso   1.00
N590   N     0.68494   0.15265   0.73788   0.00000  Uiso   1.00
O591   O     0.79482   0.23809   0.74686   0.00000  Uiso   1.00
O592   O     0.87185   0.09524   0.75314   0.00000  Uiso   1.00
O593   O     0.89496   0.24753   0.75503   0.00000  Uiso   1.00
O594   O     0.77171   0.08580   0.74497   0.00000  Uiso   1.00
O595   O     0.75518   0.15930   0.80854   0.00000  Uiso   1.00
O596   O     0.91149   0.17403   0.69146   0.00000  Uiso   1.00
O597   O     0.85532   0.16874   0.81671   0.00000  Uiso   1.00
O598   O     0.81134   0.16460   0.68329   0.00000  Uiso   1.00
I599   I     0.70007   0.23444   0.63164   0.00000  Uiso   1.00
I600   I     0.96655   0.09900   0.86840   0.00000  Uiso   1.00
C601   C     0.18172   0.60008   0.75130   0.00000  Uiso   1.00
C602   C     0.15161   0.39992   0.74870   0.00000  Uiso   1.00
C603   C     0.09385   0.46471   0.54009   0.00000  Uiso   1.00
C604   C     0.23947   0.53544   0.95993   0.00000  Uiso   1.00
C605   C     0.05026   0.45171   0.51482   0.00000  Uiso   1.00
C606   C     0.28305   0.54844   0.98521   0.00000  Uiso   1.00
C607   C     0.19020   0.65605   0.75196   0.00000  Uiso   1.00
C608   C     0.14314   0.34395   0.74804   0.00000  Uiso   1.00
C609   C     0.12730   0.49506   0.83328   0.00000  Uiso   1.00
C610   C     0.20603   0.50494   0.66672   0.00000  Uiso   1.00
C611   C     0.10247   0.48816   0.88119   0.00000  Uiso   1.00
C612   C     0.23087   0.51187   0.61881   0.00000  Uiso   1.00
C613   C     0.02292   0.45085   0.94611   0.00000  Uiso   1.00
C614   C     0.31039   0.54927   0.55392   0.00000  Uiso   1.00
C615   C     0.03952   0.46155   0.90146   0.00000  Uiso   1.00
C616   C     0.29379   0.53853   0.59856   0.00000  Uiso   1.00
C617   C     0.14616   0.50515   0.90683   0.00000  Uiso   1.00
C618   C     0.18720   0.49488   0.59316   0.00000  Uiso   1.00
C619   C     0.13067   0.49344   0.95167   0.00000  Uiso   1.00
C620   C     0.20266   0.50664   0.54835   0.00000  Uiso   1.00
C621   C     0.06784   0.46554   0.97096   0.00000  Uiso   1.00
C622   C     0.26548   0.53457   0.52906   0.00000  Uiso   1.00
C623   C     0.17601   0.50745   0.97752   0.00000  Uiso   1.00
C624   C     0.15732   0.49265   0.52249   0.00000  Uiso   1.00
Cu625  Cu    0.10737   0.49441   0.74516   0.00000  Uiso   1.00
Cu626  Cu    0.22596   0.50559   0.75484   0.00000  Uiso   1.00
H627   H     0.00217   0.43035   0.52983   0.00000  Uiso   1.00
H628   H     0.33113   0.56983   0.97021   0.00000  Uiso   1.00
H629   H     0.14048   0.47348   0.60963   0.00000  Uiso   1.00
H630   H     0.19290   0.52647   0.89035   0.00000  Uiso   1.00
H631   H     0.30811   0.42982   0.96134   0.00000  Uiso   1.00
H632   H     0.02519   0.57033   0.53870   0.00000  Uiso   1.00
H633   H     0.07556   0.45188   0.57346   0.00000  Uiso   1.00
H634   H     0.25775   0.54831   0.92657   0.00000  Uiso   1.00
H635   H     0.23552   0.34655   0.75569   0.00000  Uiso   1.00
H636   H     0.09781   0.65345   0.74431   0.00000  Uiso   1.00
H637   H     0.00126   0.53827   0.78443   0.00000  Uiso   1.00
H638   H     0.33207   0.46173   0.71557   0.00000  Uiso   1.00
N639   N     0.31506   0.51401   0.76212   0.00000  Uiso   1.00
N640   N     0.01827   0.48599   0.73788   0.00000  Uiso   1.00
O641   O     0.12815   0.57142   0.74686   0.00000  Uiso   1.00
O642   O     0.20518   0.42858   0.75314   0.00000  Uiso   1.00
O643   O     0.22829   0.58086   0.75503   0.00000  Uiso   1.00
O644   O     0.10504   0.41914   0.74497   0.00000  Uiso   1.00
O645   O     0.08851   0.49263   0.80854   0.00000  Uiso   1.00
O646   O     0.24482   0.50737   0.69146   0.00000  Uiso   1.00
O647   O     0.18866   0.50207   0.81671   0.00000  Uiso   1.00
O648   O     0.14468   0.49793   0.68329   0.00000  Uiso   1.00
I649   I     0.03341   0.56778   0.63164   0.00000  Uiso   1.00
I650   I     0.29989   0.43233   0.86840   0.00000  Uiso   1.00
C651   C     0.51506   0.60008   0.75130   0.00000  Uiso   1.00
C652   C     0.48494   0.39992   0.74870   0.00000  Uiso   1.00
C653   C     0.42718   0.46471   0.54009   0.00000  Uiso   1.00
C654   C     0.57280   0.53544   0.95993   0.00000  Uiso   1.00
C655   C     0.38359   0.45171   0.51482   0.00000  Uiso   1.00
C656   C     0.61638   0.54844   0.98521   0.00000  Uiso   1.00
C657   C     0.52353   0.65605   0.75196   0.00000  Uiso   1.00
C658   C     0.47647   0.34395   0.74804   0.00000  Uiso   1.00
C659   C     0.46064   0.49506   0.83328   0.00000  Uiso   1.00
C660   C     0.53936   0.50494   0.66672   0.00000  Uiso   1.00
C661   C     0.43580   0.48816   0.88119   0.00000  Uiso   1.00
C662   C     0.56420   0.51187   0.61881   0.00000  Uiso   1.00
C663   C     0.35626   0.45085   0.94611   0.00000  Uiso   1.00
C664   C     0.64372   0.54927   0.55392   0.00000  Uiso   1.00
C665   C     0.37286   0.46155   0.90146   0.00000  Uiso   1.00
C666   C     0.62713   0.53853   0.59856   0.00000  Uiso   1.00
C667   C     0.47949   0.50515   0.90683   0.00000  Uiso   1.00
C668   C     0.52053   0.49488   0.59316   0.00000  Uiso   1.00
C669   C     0.46401   0.49344   0.95167   0.00000  Uiso   1.00
C670   C     0.53599   0.50664   0.54835   0.00000  Uiso   1.00
C671   C     0.40117   0.46554   0.97096   0.00000  Uiso   1.00
C672   C     0.59881   0.53457   0.52906   0.00000  Uiso   1.00
C673   C     0.50934   0.50745   0.97752   0.00000  Uiso   1.00
C674   C     0.49065   0.49265   0.52249   0.00000  Uiso   1.00
Cu675  Cu    0.44071   0.49441   0.74516   0.00000  Uiso   1.00
Cu676  Cu    0.55929   0.50559   0.75484   0.00000  Uiso   1.00
H677   H     0.33551   0.43035   0.52983   0.00000  Uiso   1.00
H678   H     0.66446   0.56983   0.97021   0.00000  Uiso   1.00
H679   H     0.47382   0.47348   0.60963   0.00000  Uiso   1.00
H680   H     0.52623   0.52647   0.89035   0.00000  Uiso   1.00
H681   H     0.64145   0.42982   0.96134   0.00000  Uiso   1.00
H682   H     0.35852   0.57033   0.53870   0.00000  Uiso   1.00
H683   H     0.40889   0.45188   0.57346   0.00000  Uiso   1.00
H684   H     0.59108   0.54831   0.92657   0.00000  Uiso   1.00
H685   H     0.56886   0.34655   0.75569   0.00000  Uiso   1.00
H686   H     0.43114   0.65345   0.74431   0.00000  Uiso   1.00
H687   H     0.33459   0.53827   0.78443   0.00000  Uiso   1.00
H688   H     0.66541   0.46173   0.71557   0.00000  Uiso   1.00
N689   N     0.64839   0.51401   0.76212   0.00000  Uiso   1.00
N690   N     0.35161   0.48599   0.73788   0.00000  Uiso   1.00
O691   O     0.46148   0.57142   0.74686   0.00000  Uiso   1.00
O692   O     0.53852   0.42858   0.75314   0.00000  Uiso   1.00
O693   O     0.56163   0.58086   0.75503   0.00000  Uiso   1.00
O694   O     0.43837   0.41914   0.74497   0.00000  Uiso   1.00
O695   O     0.42185   0.49263   0.80854   0.00000  Uiso   1.00
O696   O     0.57815   0.50737   0.69146   0.00000  Uiso   1.00
O697   O     0.52199   0.50207   0.81671   0.00000  Uiso   1.00
O698   O     0.47801   0.49793   0.68329   0.00000  Uiso   1.00
I699   I     0.36674   0.56778   0.63164   0.00000  Uiso   1.00
I700   I     0.63322   0.43233   0.86840   0.00000  Uiso   1.00
C701   C     0.84839   0.60008   0.75130   0.00000  Uiso   1.00
C702   C     0.81828   0.39992   0.74870   0.00000  Uiso   1.00
C703   C     0.76051   0.46471   0.54009   0.00000  Uiso   1.00
C704   C     0.90613   0.53544   0.95993   0.00000  Uiso   1.00
C705   C     0.71693   0.45171   0.51482   0.00000  Uiso   1.00
C706   C     0.94972   0.54844   0.98521   0.00000  Uiso   1.00
C707   C     0.85686   0.65605   0.75196   0.00000  Uiso   1.00
C708   C     0.80980   0.34395   0.74804   0.00000  Uiso   1.00
C709   C     0.79397   0.49506   0.83328   0.00000  Uiso   1.00
C710   C     0.87270   0.50494   0.66672   0.00000  Uiso   1.00
C711   C     0.76914   0.48816   0.88119   0.00000  Uiso   1.00
C712   C     0.89754   0.51187   0.61881   0.00000  Uiso   1.00
C713   C     0.68959   0.45085   0.94611   0.00000  Uiso   1.00
C714   C     0.97706   0.54927   0.55392   0.00000  Uiso   1.00
C715   C     0.70619   0.46155   0.90146   0.00000  Uiso   1.00
C716   C     0.96046   0.53853   0.59856   0.00000  Uiso   1.00
C717   C     0.81282   0.50515   0.90683   0.00000  Uiso   1.00
C718   C     0.85386   0.49488   0.59316   0.00000  Uiso   1.00
C719   C     0.79734   0.49344   0.95167   0.00000  Uiso   1.00
C720   C     0.86933   0.50664   0.54835   0.00000  Uiso   1.00
C721   C     0.73451   0.46554   0.97096   0.00000  Uiso   1.00
C722   C     0.93215   0.53457   0.52906   0.00000  Uiso   1.00
C723   C     0.84268   0.50745   0.97752   0.00000  Uiso   1.00
C724   C     0.82398   0.49265   0.52249   0.00000  Uiso   1.00
Cu725  Cu    0.77404   0.49441   0.74516   0.00000  Uiso   1.00
Cu726  Cu    0.89263   0.50559   0.75484   0.00000  Uiso   1.00
H727   H     0.66884   0.43035   0.52983   0.00000  Uiso   1.00
H728   H     0.99779   0.56983   0.97021   0.00000  Uiso   1.00
H729   H     0.80715   0.47348   0.60963   0.00000  Uiso   1.00
H730   H     0.85957   0.52647   0.89035   0.00000  Uiso   1.00
H731   H     0.97478   0.42982   0.96134   0.00000  Uiso   1.00
H732   H     0.69185   0.57033   0.53870   0.00000  Uiso   1.00
H733   H     0.74223   0.45188   0.57346   0.00000  Uiso   1.00
H734   H     0.92441   0.54831   0.92657   0.00000  Uiso   1.00
H735   H     0.90219   0.34655   0.75569   0.00000  Uiso   1.00
H736   H     0.76448   0.65345   0.74431   0.00000  Uiso   1.00
H737   H     0.66793   0.53827   0.78443   0.00000  Uiso   1.00
H738   H     0.99874   0.46173   0.71557   0.00000  Uiso   1.00
N739   N     0.98173   0.51401   0.76212   0.00000  Uiso   1.00
N740   N     0.68494   0.48599   0.73788   0.00000  Uiso   1.00
O741   O     0.79482   0.57142   0.74686   0.00000  Uiso   1.00
O742   O     0.87185   0.42858   0.75314   0.00000  Uiso   1.00
O743   O     0.89496   0.58086   0.75503   0.00000  Uiso   1.00
O744   O     0.77171   0.41914   0.74497   0.00000  Uiso   1.00
O745   O     0.75518   0.49263   0.80854   0.00000  Uiso   1.00
O746   O     0.91149   0.50737   0.69146   0.00000  Uiso   1.00
O747   O     0.85532   0.50207   0.81671   0.00000  Uiso   1.00
O748   O     0.81134   0.49793   0.68329   0.00000  Uiso   1.00
I749   I     0.70007   0.56778   0.63164   0.00000  Uiso   1.00
I750   I     0.96655   0.43233   0.86840   0.00000  Uiso   1.00
C751   C     0.18172   0.93341   0.75130   0.00000  Uiso   1.00
C752   C     0.15161   0.73325   0.74870   0.00000  Uiso   1.00
C753   C     0.09385   0.79804   0.54009   0.00000  Uiso   1.00
C754   C     0.23947   0.86877   0.95993   0.00000  Uiso   1.00
C755   C     0.05026   0.78504   0.51482   0.00000  Uiso   1.00
C756   C     0.28305   0.88177   0.98521   0.00000  Uiso   1.00
C757   C     0.19020   0.98938   0.75196   0.00000  Uiso   1.00
C758   C     0.14314   0.67729   0.74804   0.00000  Uiso   1.00
C759   C     0.12730   0.82839   0.83328   0.00000  Uiso   1.00
C760   C     0.20603   0.83828   0.66672   0.00000  Uiso   1.00
C761   C     0.10247   0.82150   0.88119   0.00000  Uiso   1.00
C762   C     0.23087   0.84520   0.61881   0.00000  Uiso   1.00
C763   C     0.02292   0.78418   0.94611   0.00000  Uiso   1.00
C764   C     0.31039   0.88261   0.55392   0.00000  Uiso   1.00
C765   C     0.03952   0.79489   0.90146   0.00000  Uiso   1.00
C766   C     0.29379   0.87187   0.59856   0.00000  Uiso   1.00
C767   C     0.14616   0.83848   0.90683   0.00000  Uiso   1.00
C768   C     0.18720   0.82821   0.59316   0.00000  Uiso   1.00
C769   C     0.13067   0.82678   0.95167   0.00000  Uiso   1.00
C770   C     0.20266   0.83998   0.54835   0.00000  Uiso   1.00
C771   C     0.06784   0.79888   0.97096   0.00000  Uiso   1.00
C772   C     0.26548   0.86791   0.52906   0.00000  Uiso   1.00
C773   C     0.17601   0.84078   0.97752   0.00000  Uiso   1.00
C774   C     0.15732   0.82599   0.52249   0.00000  Uiso   1.00
Cu775  Cu    0.10737   0.82775   0.74516   0.00000  Uiso   1.00
Cu776  Cu    0.22596   0.83892   0.75484   0.00000  Uiso   1.00
H777   H     0.00217   0.76368   0.52983   0.00000  Uiso   1.00
H778   H     0.33113   0.90317   0.97021   0.00000  Uiso   1.00
H779   H     0.14048   0.80681   0.60963   0.00000  Uiso   1.00
H780   H     0.19290   0.85981   0.89035   0.00000  Uiso   1.00
H781   H     0.30811   0.76315   0.96134   0.00000  Uiso   1.00
H782   H     0.02519   0.90367   0.53870   0.00000  Uiso   1.00
H783   H     0.07556   0.78522   0.57346   0.00000  Uiso   1.00
H784   H     0.25775   0.88165   0.92657   0.00000  Uiso   1.00
H785   H     0.23552   0.67989   0.75569   0.00000  Uiso   1.00
H786   H     0.09781   0.98678   0.74431   0.00000  Uiso   1.00
H787   H     0.00126   0.87161   0.78443   0.00000  Uiso   1.00
H788   H     0.33207   0.79506   0.71557   0.00000  Uiso   1.00
N789   N     0.31506   0.84735   0.76212   0.00000  Uiso   1.00
N790   N     0.01827   0.81932   0.73788   0.00000  Uiso   1.00
O791   O     0.12815   0.90476   0.74686   0.00000  Uiso   1.00
O792   O     0.20518   0.76191   0.75314   0.00000  Uiso   1.00
O793   O     0.22829   0.91420   0.75503   0.00000  Uiso   1.00
O794   O     0.10504   0.75247   0.74497   0.00000  Uiso   1.00
O795   O     0.08851   0.82597   0.80854   0.00000  Uiso   1.00
O796   O     0.24482   0.84070   0.69146   0.00000  Uiso   1.00
O797   O     0.18866   0.83540   0.81671   0.00000  Uiso   1.00
O798   O     0.14468   0.83126   0.68329   0.00000  Uiso   1.00
I799   I     0.03341   0.90111   0.63164   0.00000  Uiso   1.00
I800   I     0.29989   0.76567   0.86840   0.00000  Uiso   1.00
C801   C     0.51506   0.93341   0.75130   0.00000  Uiso   1.00
C802   C     0.48494   0.73325   0.74870   0.00000  Uiso   1.00
C803   C     0.42718   0.79804   0.54009   0.00000  Uiso   1.00
C804   C     0.57280   0.86877   0.95993   0.00000  Uiso   1.00
C805   C     0.38359   0.78504   0.51482   0.00000  Uiso   1.00
C806   C     0.61638   0.88177   0.98521   0.00000  Uiso   1.00
C807   C     0.52353   0.98938   0.75196   0.00000  Uiso   1.00
C808   C     0.47647   0.67729   0.74804   0.00000  Uiso   1.00
C809   C     0.46064   0.82839   0.83328   0.00000  Uiso   1.00
C810   C     0.53936   0.83828   0.66672   0.00000  Uiso   1.00
C811   C     0.43580   0.82150   0.88119   0.00000  Uiso   1.00
C812   C     0.56420   0.84520   0.61881   0.00000  Uiso   1.00
C813   C     0.35626   0.78418   0.94611   0.00000  Uiso   1.00
C814   C     0.64372   0.88261   0.55392   0.00000  Uiso   1.00
C815   C     0.37286   0.79489   0.90146   0.00000  Uiso   1.00
C816   C     0.62713   0.87187   0.59856   0.00000  Uiso   1.00
C817   C     0.47949   0.83848   0.90683   0.00000  Uiso   1.00
C818   C     0.52053   0.82821   0.59316   0.00000  Uiso   1.00
C819   C     0.46401   0.82678   0.95167   0.00000  Uiso   1.00
C820   C     0.53599   0.83998   0.54835   0.00000  Uiso   1.00
C821   C     0.40117   0.79888   0.97096   0.00000  Uiso   1.00
C822   C     0.59881   0.86791   0.52906   0.00000  Uiso   1.00
C823   C     0.50934   0.84078   0.97752   0.00000  Uiso   1.00
C824   C     0.49065   0.82599   0.52249   0.00000  Uiso   1.00
Cu825  Cu    0.44071   0.82775   0.74516   0.00000  Uiso   1.00
Cu826  Cu    0.55929   0.83892   0.75484   0.00000  Uiso   1.00
H827   H     0.33551   0.76368   0.52983   0.00000  Uiso   1.00
H828   H     0.66446   0.90317   0.97021   0.00000  Uiso   1.00
H829   H     0.47382   0.80681   0.60963   0.00000  Uiso   1.00
H830   H     0.52623   0.85981   0.89035   0.00000  Uiso   1.00
H831   H     0.64145   0.76315   0.96134   0.00000  Uiso   1.00
H832   H     0.35852   0.90367   0.53870   0.00000  Uiso   1.00
H833   H     0.40889   0.78522   0.57346   0.00000  Uiso   1.00
H834   H     0.59108   0.88165   0.92657   0.00000  Uiso   1.00
H835   H     0.56886   0.67989   0.75569   0.00000  Uiso   1.00
H836   H     0.43114   0.98678   0.74431   0.00000  Uiso   1.00
H837   H     0.33459   0.87161   0.78443   0.00000  Uiso   1.00
H838   H     0.66541   0.79506   0.71557   0.00000  Uiso   1.00
N839   N     0.64839   0.84735   0.76212   0.00000  Uiso   1.00
N840   N     0.35161   0.81932   0.73788   0.00000  Uiso   1.00
O841   O     0.46148   0.90476   0.74686   0.00000  Uiso   1.00
O842   O     0.53852   0.76191   0.75314   0.00000  Uiso   1.00
O843   O     0.56163   0.91420   0.75503   0.00000  Uiso   1.00
O844   O     0.43837   0.75247   0.74497   0.00000  Uiso   1.00
O845   O     0.42185   0.82597   0.80854   0.00000  Uiso   1.00
O846   O     0.57815   0.84070   0.69146   0.00000  Uiso   1.00
O847   O     0.52199   0.83540   0.81671   0.00000  Uiso   1.00
O848   O     0.47801   0.83126   0.68329   0.00000  Uiso   1.00
I849   I     0.36674   0.90111   0.63164   0.00000  Uiso   1.00
I850   I     0.63322   0.76567   0.86840   0.00000  Uiso   1.00
C851   C     0.84839   0.93341   0.75130   0.00000  Uiso   1.00
C852   C     0.81828   0.73325   0.74870   0.00000  Uiso   1.00
C853   C     0.76051   0.79804   0.54009   0.00000  Uiso   1.00
C854   C     0.90613   0.86877   0.95993   0.00000  Uiso   1.00
C855   C     0.71693   0.78504   0.51482   0.00000  Uiso   1.00
C856   C     0.94972   0.88177   0.98521   0.00000  Uiso   1.00
C857   C     0.85686   0.98938   0.75196   0.00000  Uiso   1.00
C858   C     0.80980   0.67729   0.74804   0.00000  Uiso   1.00
C859   C     0.79397   0.82839   0.83328   0.00000  Uiso   1.00
C860   C     0.87270   0.83828   0.66672   0.00000  Uiso   1.00
C861   C     0.76914   0.82150   0.88119   0.00000  Uiso   1.00
C862   C     0.89754   0.84520   0.61881   0.00000  Uiso   1.00
C863   C     0.68959   0.78418   0.94611   0.00000  Uiso   1.00
C864   C     0.97706   0.88261   0.55392   0.00000  Uiso   1.00
C865   C     0.70619   0.79489   0.90146   0.00000  Uiso   1.00
C866   C     0.96046   0.87187   0.59856   0.00000  Uiso   1.00
C867   C     0.81282   0.83848   0.90683   0.00000  Uiso   1.00
C868   C     0.85386   0.82821   0.59316   0.00000  Uiso   1.00
C869   C     0.79734   0.82678   0.95167   0.00000  Uiso   1.00
C870   C     0.86933   0.83998   0.54835   0.00000  Uiso   1.00
C871   C     0.73451   0.79888   0.97096   0.00000  Uiso   1.00
C872   C     0.93215   0.86791   0.52906   0.00000  Uiso   1.00
C873   C     0.84268   0.84078   0.97752   0.00000  Uiso   1.00
C874   C     0.82398   0.82599   0.52249   0.00000  Uiso   1.00
Cu875  Cu    0.77404   0.82775   0.74516   0.00000  Uiso   1.00
Cu876  Cu    0.89263   0.83892   0.75484   0.00000  Uiso   1.00
H877   H     0.66884   0.76368   0.52983   0.00000  Uiso   1.00
H878   H     0.99779   0.90317   0.97021   0.00000  Uiso   1.00
H879   H     0.80715   0.80681   0.60963   0.00000  Uiso   1.00
H880   H     0.85957   0.85981   0.89035   0.00000  Uiso   1.00
H881   H     0.97478   0.76315   0.96134   0.00000  Uiso   1.00
H882   H     0.69185   0.90367   0.53870   0.00000  Uiso   1.00
H883   H     0.74223   0.78522   0.57346   0.00000  Uiso   1.00
H884   H     0.92441   0.88165   0.92657   0.00000  Uiso   1.00
H885   H     0.90219   0.67989   0.75569   0.00000  Uiso   1.00
H886   H     0.76448   0.98678   0.74431   0.00000  Uiso   1.00
H887   H     0.66793   0.87161   0.78443   0.00000  Uiso   1.00
H888   H     0.99874   0.79506   0.71557   0.00000  Uiso   1.00
N889   N     0.98173   0.84735   0.76212   0.00000  Uiso   1.00
N890   N     0.68494   0.81932   0.73788   0.00000  Uiso   1.00
O891   O     0.79482   0.90476   0.74686   0.00000  Uiso   1.00
O892   O     0.87185   0.76191   0.75314   0.00000  Uiso   1.00
O893   O     0.89496   0.91420   0.75503   0.00000  Uiso   1.00
O894   O     0.77171   0.75247   0.74497   0.00000  Uiso   1.00
O895   O     0.75518   0.82597   0.80854   0.00000  Uiso   1.00
O896   O     0.91149   0.84070   0.69146   0.00000  Uiso   1.00
O897   O     0.85532   0.83540   0.81671   0.00000  Uiso   1.00
O898   O     0.81134   0.83126   0.68329   0.00000  Uiso   1.00
I899   I     0.70007   0.90111   0.63164   0.00000  Uiso   1.00
I900   I     0.96655   0.76567   0.86840   0.00000  Uiso   1.00
loop_
_geom_bond_atom_site_label_1
_geom_bond_atom_site_label_2
_geom_bond_distance
_geom_bond_site_symmetry_2
_ccdc_geom_bond_type
C1     O43     1.285   .     A
C1     C7      1.428   .     S
C1     O41     1.290   .     A
C2     O44     1.285   .     A
C2     O42     1.290   .     A
C2     C8      1.428   .     S
C3     C24     1.416   .     A
C3     H33     1.074   .     S
C3     C5      1.385   .     A
C4     H34     1.074   .     S
C4     C6      1.385   .     A
C4     C23     1.416   .     A
C5     H27     1.085   .     S
C5     C471    1.389   1_554 S
C6     H28     1.085   .     S
C6     C472    1.389   .     S
C7     C158    1.328   .     S
C7     H185    1.088   .     S
C8     C307    1.328   1_545 S
C8     H336    1.088   1_545 S
C9     O45     1.300   .     A
C9     C11     1.478   .     S
C9     O47     1.300   .     A
C10    O46     1.300   .     A
C10    C12     1.478   .     S
C10    O48     1.300   .     A
C11    C17     1.404   .     A
C11    C15     1.413   .     A
C12    C18     1.403   .     A
C12    C16     1.413   .     A
C13    C21     1.401   .     A
C13    C15     1.394   .     A
C13    H131    1.084   1_455 S
C14    C16     1.394   .     A
C14    C22     1.401   .     A
C14    H82     1.084   .     S
C15    I150    2.129   1_455 S
C16    I99     2.129   .     S
C17    H30     1.074   .     S
C17    C19     1.407   .     A
C18    H29     1.073   .     S
C18    C20     1.407   .     A
C19    C23     1.431   .     A
C19    C21     1.415   .     A
C20    C22     1.415   .     A
C20    C24     1.431   .     A
C21    C455    1.389   .     S
C22    C456    1.389   1_554 S
C23    C474    1.428   .     S
C24    C473    1.428   1_554 S
Cu25   O48     1.913   .     S
Cu25   O44     1.952   .     S
Cu25   N40     2.017   .     S
Cu25   O41     1.955   .     S
Cu25   O45     1.939   .     S
Cu25   Cu26    2.685   .     S
Cu26   O47     1.913   .     S
Cu26   O43     1.952   .     S
Cu26   N39     2.017   .     S
Cu26   O42     1.955   .     S
Cu26   O46     1.939   .     S
H31    C63     1.084   .     S
H32    C114    1.084   1_455 S
H35    C307    1.088   1_545 S
H36    C158    1.088   .     S
H37    N139    1.029   1_455 S
H38    N90     1.029   .     S
N39    H87     1.029   .     S
N39    N90     1.281   .     S
N40    H138    1.029   1_455 S
N40    N139    1.281   1_455 S
I49    C116    2.129   1_455 S
I50    C65     2.129   .     S
C51    O93     1.285   .     A
C51    C57     1.428   .     S
C51    O91     1.290   .     A
C52    O94     1.285   .     A
C52    O92     1.290   .     A
C52    C58     1.428   .     S
C53    C74     1.416   .     A
C53    H83     1.074   .     S
C53    C55     1.385   .     A
C54    H84     1.074   .     S
C54    C56     1.385   .     A
C54    C73     1.416   .     A
C55    H77     1.085   .     S
C55    C521    1.389   1_554 S
C56    H78     1.085   .     S
C56    C522    1.389   .     S
C57    C208    1.328   .     S
C57    H235    1.088   .     S
C58    C357    1.328   1_545 S
C58    H386    1.088   1_545 S
C59    O95     1.300   .     A
C59    C61     1.478   .     S
C59    O97     1.300   .     A
C60    O96     1.300   .     A
C60    C62     1.478   .     S
C60    O98     1.300   .     A
C61    C67     1.404   .     A
C61    C65     1.413   .     A
C62    C68     1.403   .     A
C62    C66     1.413   .     A
C63    C71     1.401   .     A
C63    C65     1.394   .     A
C64    C66     1.394   .     A
C64    C72     1.401   .     A
C64    H132    1.084   .     S
C66    I149    2.129   .     S
C67    H80     1.074   .     S
C67    C69     1.407   .     A
C68    H79     1.073   .     S
C68    C70     1.407   .     A
C69    C73     1.431   .     A
C69    C71     1.415   .     A
C70    C72     1.415   .     A
C70    C74     1.431   .     A
C71    C505    1.389   .     S
C72    C506    1.389   1_554 S
C73    C524    1.428   .     S
C74    C523    1.428   1_554 S
Cu75   O98     1.913   .     S
Cu75   O94     1.952   .     S
Cu75   N90     2.017   .     S
Cu75   O91     1.955   .     S
Cu75   O95     1.939   .     S
Cu75   Cu76    2.685   .     S
Cu76   O97     1.913   .     S
Cu76   O93     1.952   .     S
Cu76   N89     2.017   .     S
Cu76   O92     1.955   .     S
Cu76   O96     1.939   .     S
H81    C113    1.084   .     S
H85    C357    1.088   1_545 S
H86    C208    1.088   .     S
H88    N140    1.029   .     S
N89    H137    1.029   .     S
N89    N140    1.281   .     S
I100   C115    2.129   .     S
C101   O143    1.285   .     A
C101   C107    1.428   .     S
C101   O141    1.290   .     A
C102   O144    1.285   .     A
C102   O142    1.290   .     A
C102   C108    1.428   .     S
C103   C124    1.416   .     A
C103   H133    1.074   .     S
C103   C105    1.385   .     A
C104   H134    1.074   .     S
C104   C106    1.385   .     A
C104   C123    1.416   .     A
C105   H127    1.085   .     S
C105   C571    1.389   1_554 S
C106   H128    1.085   .     S
C106   C572    1.389   .     S
C107   C258    1.328   .     S
C107   H285    1.088   .     S
C108   C407    1.328   1_545 S
C108   H436    1.088   1_545 S
C109   O145    1.300   .     A
C109   C111    1.478   .     S
C109   O147    1.300   .     A
C110   O146    1.300   .     A
C110   C112    1.478   .     S
C110   O148    1.300   .     A
C111   C117    1.404   .     A
C111   C115    1.413   .     A
C112   C118    1.403   .     A
C112   C116    1.413   .     A
C113   C121    1.401   .     A
C113   C115    1.394   .     A
C114   C116    1.394   .     A
C114   C122    1.401   .     A
C114   H32     1.084   1_655 S
C116   I49     2.129   1_655 S
C117   H130    1.074   .     S
C117   C119    1.407   .     A
C118   H129    1.073   .     S
C118   C120    1.407   .     A
C119   C123    1.431   .     A
C119   C121    1.415   .     A
C120   C122    1.415   .     A
C120   C124    1.431   .     A
C121   C555    1.389   .     S
C122   C556    1.389   1_554 S
C123   C574    1.428   .     S
C124   C573    1.428   1_554 S
Cu125  O148    1.913   .     S
Cu125  O144    1.952   .     S
Cu125  N140    2.017   .     S
Cu125  O141    1.955   .     S
Cu125  O145    1.939   .     S
Cu125  Cu126   2.685   .     S
Cu126  O147    1.913   .     S
Cu126  O143    1.952   .     S
Cu126  N139    2.017   .     S
Cu126  O142    1.955   .     S
Cu126  O146    1.939   .     S
H131   C13     1.084   1_655 S
H135   C407    1.088   1_545 S
H136   C258    1.088   .     S
H138   N40     1.029   1_655 S
N139   H37     1.029   1_655 S
N139   N40     1.281   1_655 S
I150   C15     2.129   1_655 S
C151   O193    1.285   .     A
C151   C157    1.428   .     S
C151   O191    1.290   .     A
C152   O194    1.285   .     A
C152   O192    1.290   .     A
C152   C158    1.428   .     S
C153   C174    1.416   .     A
C153   H183    1.074   .     S
C153   C155    1.385   .     A
C154   H184    1.074   .     S
C154   C156    1.385   .     A
C154   C173    1.416   .     A
C155   H177    1.085   .     S
C155   C621    1.389   1_554 S
C156   H178    1.085   .     S
C156   C622    1.389   .     S
C157   C308    1.328   .     S
C157   H335    1.088   .     S
C159   O195    1.300   .     A
C159   C161    1.478   .     S
C159   O197    1.300   .     A
C160   O196    1.300   .     A
C160   C162    1.478   .     S
C160   O198    1.300   .     A
C161   C167    1.404   .     A
C161   C165    1.413   .     A
C162   C168    1.403   .     A
C162   C166    1.413   .     A
C163   C171    1.401   .     A
C163   C165    1.394   .     A
C163   H281    1.084   1_455 S
C164   C166    1.394   .     A
C164   C172    1.401   .     A
C164   H232    1.084   .     S
C165   I300    2.129   1_455 S
C166   I249    2.129   .     S
C167   H180    1.074   .     S
C167   C169    1.407   .     A
C168   H179    1.073   .     S
C168   C170    1.407   .     A
C169   C173    1.431   .     A
C169   C171    1.415   .     A
C170   C172    1.415   .     A
C170   C174    1.431   .     A
C171   C605    1.389   .     S
C172   C606    1.389   1_554 S
C173   C624    1.428   .     S
C174   C623    1.428   1_554 S
Cu175  O198    1.913   .     S
Cu175  O194    1.952   .     S
Cu175  N190    2.017   .     S
Cu175  O191    1.955   .     S
Cu175  O195    1.939   .     S
Cu175  Cu176   2.685   .     S
Cu176  O197    1.913   .     S
Cu176  O193    1.952   .     S
Cu176  N189    2.017   .     S
Cu176  O192    1.955   .     S
Cu176  O196    1.939   .     S
H181   C213    1.084   .     S
H182   C264    1.084   1_455 S
H186   C308    1.088   .     S
H187   N289    1.029   1_455 S
H188   N240    1.029   .     S
N189   H237    1.029   .     S
N189   N240    1.281   .     S
N190   H288    1.029   1_455 S
N190   N289    1.281   1_455 S
I199   C266    2.129   1_455 S
I200   C215    2.129   .     S
C201   O243    1.285   .     A
C201   C207    1.428   .     S
C201   O241    1.290   .     A
C202   O244    1.285   .     A
C202   O242    1.290   .     A
C202   C208    1.428   .     S
C203   C224    1.416   .     A
C203   H233    1.074   .     S
C203   C205    1.385   .     A
C204   H234    1.074   .     S
C204   C206    1.385   .     A
C204   C223    1.416   .     A
C205   H227    1.085   .     S
C205   C671    1.389   1_554 S
C206   H228    1.085   .     S
C206   C672    1.389   .     S
C207   C358    1.328   .     S
C207   H385    1.088   .     S
C209   O245    1.300   .     A
C209   C211    1.478   .     S
C209   O247    1.300   .     A
C210   O246    1.300   .     A
C210   C212    1.478   .     S
C210   O248    1.300   .     A
C211   C217    1.404   .     A
C211   C215    1.413   .     A
C212   C218    1.403   .     A
C212   C216    1.413   .     A
C213   C221    1.401   .     A
C213   C215    1.394   .     A
C214   C216    1.394   .     A
C214   C222    1.401   .     A
C214   H282    1.084   .     S
C216   I299    2.129   .     S
C217   H230    1.074   .     S
C217   C219    1.407   .     A
C218   H229    1.073   .     S
C218   C220    1.407   .     A
C219   C223    1.431   .     A
C219   C221    1.415   .     A
C220   C222    1.415   .     A
C220   C224    1.431   .     A
C221   C655    1.389   .     S
C222   C656    1.389   1_554 S
C223   C674    1.428   .     S
C224   C673    1.428   1_554 S
Cu225  O248    1.913   .     S
Cu225  O244    1.952   .     S
Cu225  N240    2.017   .     S
Cu225  O241    1.955   .     S
Cu225  O245    1.939   .     S
Cu225  Cu226   2.685   .     S
Cu226  O247    1.913   .     S
Cu226  O243    1.952   .     S
Cu226  N239    2.017   .     S
Cu226  O242    1.955   .     S
Cu226  O246    1.939   .     S
H231   C263    1.084   .     S
H236   C358    1.088   .     S
H238   N290    1.029   .     S
N239   H287    1.029   .     S
N239   N290    1.281   .     S
I250   C265    2.129   .     S
C251   O293    1.285   .     A
C251   C257    1.428   .     S
C251   O291    1.290   .     A
C252   O294    1.285   .     A
C252   O292    1.290   .     A
C252   C258    1.428   .     S
C253   C274    1.416   .     A
C253   H283    1.074   .     S
C253   C255    1.385   .     A
C254   H284    1.074   .     S
C254   C256    1.385   .     A
C254   C273    1.416   .     A
C255   H277    1.085   .     S
C255   C721    1.389   1_554 S
C256   H278    1.085   .     S
C256   C722    1.389   .     S
C257   C408    1.328   .     S
C257   H435    1.088   .     S
C259   O295    1.300   .     A
C259   C261    1.478   .     S
C259   O297    1.300   .     A
C260   O296    1.300   .     A
C260   C262    1.478   .     S
C260   O298    1.300   .     A
C261   C267    1.404   .     A
C261   C265    1.413   .     A
C262   C268    1.403   .     A
C262   C266    1.413   .     A
C263   C271    1.401   .     A
C263   C265    1.394   .     A
C264   C266    1.394   .     A
C264   C272    1.401   .     A
C264   H182    1.084   1_655 S
C266   I199    2.129   1_655 S
C267   H280    1.074   .     S
C267   C269    1.407   .     A
C268   H279    1.073   .     S
C268   C270    1.407   .     A
C269   C273    1.431   .     A
C269   C271    1.415   .     A
C270   C272    1.415   .     A
C270   C274    1.431   .     A
C271   C705    1.389   .     S
C272   C706    1.389   1_554 S
C273   C724    1.428   .     S
C274   C723    1.428   1_554 S
Cu275  O298    1.913   .     S
Cu275  O294    1.952   .     S
Cu275  N290    2.017   .     S
Cu275  O291    1.955   .     S
Cu275  O295    1.939   .     S
Cu275  Cu276   2.685   .     S
Cu276  O297    1.913   .     S
Cu276  O293    1.952   .     S
Cu276  N289    2.017   .     S
Cu276  O292    1.955   .     S
Cu276  O296    1.939   .     S
H281   C163    1.084   1_655 S
H286   C408    1.088   .     S
H288   N190    1.029   1_655 S
N289   H187    1.029   1_655 S
N289   N190    1.281   1_655 S
I300   C165    2.129   1_655 S
C301   O343    1.285   .     A
C301   C307    1.428   .     S
C301   O341    1.290   .     A
C302   O344    1.285   .     A
C302   O342    1.290   .     A
C302   C308    1.428   .     S
C303   C324    1.416   .     A
C303   H333    1.074   .     S
C303   C305    1.385   .     A
C304   H334    1.074   .     S
C304   C306    1.385   .     A
C304   C323    1.416   .     A
C305   H327    1.085   .     S
C305   C771    1.389   1_554 S
C306   H328    1.085   .     S
C306   C772    1.389   .     S
C307   C8      1.328   1_565 S
C307   H35     1.088   1_565 S
C309   O345    1.300   .     A
C309   C311    1.478   .     S
C309   O347    1.300   .     A
C310   O346    1.300   .     A
C310   C312    1.478   .     S
C310   O348    1.300   .     A
C311   C317    1.404   .     A
C311   C315    1.413   .     A
C312   C318    1.403   .     A
C312   C316    1.413   .     A
C313   C321    1.401   .     A
C313   C315    1.394   .     A
C313   H431    1.084   1_455 S
C314   C316    1.394   .     A
C314   C322    1.401   .     A
C314   H382    1.084   .     S
C315   I450    2.129   1_455 S
C316   I399    2.129   .     S
C317   H330    1.074   .     S
C317   C319    1.407   .     A
C318   H329    1.073   .     S
C318   C320    1.407   .     A
C319   C323    1.431   .     A
C319   C321    1.415   .     A
C320   C322    1.415   .     A
C320   C324    1.431   .     A
C321   C755    1.389   .     S
C322   C756    1.389   1_554 S
C323   C774    1.428   .     S
C324   C773    1.428   1_554 S
Cu325  O348    1.913   .     S
Cu325  O344    1.952   .     S
Cu325  N340    2.017   .     S
Cu325  O341    1.955   .     S
Cu325  O345    1.939   .     S
Cu325  Cu326   2.685   .     S
Cu326  O347    1.913   .     S
Cu326  O343    1.952   .     S
Cu326  N339    2.017   .     S
Cu326  O342    1.955   .     S
Cu326  O346    1.939   .     S
H331   C363    1.084   .     S
H332   C414    1.084   1_455 S
H336   C8      1.088   1_565 S
H337   N439    1.029   1_455 S
H338   N390    1.029   .     S
N339   H387    1.029   .     S
N339   N390    1.281   .     S
N340   H438    1.029   1_455 S
N340   N439    1.281   1_455 S
I349   C416    2.129   1_455 S
I350   C365    2.129   .     S
C351   O393    1.285   .     A
C351   C357    1.428   .     S
C351   O391    1.290   .     A
C352   O394    1.285   .     A
C352   O392    1.290   .     A
C352   C358    1.428   .     S
C353   C374    1.416   .     A
C353   H383    1.074   .     S
C353   C355    1.385   .     A
C354   H384    1.074   .     S
C354   C356    1.385   .     A
C354   C373    1.416   .     A
C355   H377    1.085   .     S
C355   C821    1.389   1_554 S
C356   H378    1.085   .     S
C356   C822    1.389   .     S
C357   C58     1.328   1_565 S
C357   H85     1.088   1_565 S
C359   O395    1.300   .     A
C359   C361    1.478   .     S
C359   O397    1.300   .     A
C360   O396    1.300   .     A
C360   C362    1.478   .     S
C360   O398    1.300   .     A
C361   C367    1.404   .     A
C361   C365    1.413   .     A
C362   C368    1.403   .     A
C362   C366    1.413   .     A
C363   C371    1.401   .     A
C363   C365    1.394   .     A
C364   C366    1.394   .     A
C364   C372    1.401   .     A
C364   H432    1.084   .     S
C366   I449    2.129   .     S
C367   H380    1.074   .     S
C367   C369    1.407   .     A
C368   H379    1.073   .     S
C368   C370    1.407   .     A
C369   C373    1.431   .     A
C369   C371    1.415   .     A
C370   C372    1.415   .     A
C370   C374    1.431   .     A
C371   C805    1.389   .     S
C372   C806    1.389   1_554 S
C373   C824    1.428   .     S
C374   C823    1.428   1_554 S
Cu375  O398    1.913   .     S
Cu375  O394    1.952   .     S
Cu375  N390    2.017   .     S
Cu375  O391    1.955   .     S
Cu375  O395    1.939   .     S
Cu375  Cu376   2.685   .     S
Cu376  O397    1.913   .     S
Cu376  O393    1.952   .     S
Cu376  N389    2.017   .     S
Cu376  O392    1.955   .     S
Cu376  O396    1.939   .     S
H381   C413    1.084   .     S
H386   C58     1.088   1_565 S
H388   N440    1.029   .     S
N389   H437    1.029   .     S
N389   N440    1.281   .     S
I400   C415    2.129   .     S
C401   O443    1.285   .     A
C401   C407    1.428   .     S
C401   O441    1.290   .     A
C402   O444    1.285   .     A
C402   O442    1.290   .     A
C402   C408    1.428   .     S
C403   C424    1.416   .     A
C403   H433    1.074   .     S
C403   C405    1.385   .     A
C404   H434    1.074   .     S
C404   C406    1.385   .     A
C404   C423    1.416   .     A
C405   H427    1.085   .     S
C405   C871    1.389   1_554 S
C406   H428    1.085   .     S
C406   C872    1.389   .     S
C407   C108    1.328   1_565 S
C407   H135    1.088   1_565 S
C409   O445    1.300   .     A
C409   C411    1.478   .     S
C409   O447    1.300   .     A
C410   O446    1.300   .     A
C410   C412    1.478   .     S
C410   O448    1.300   .     A
C411   C417    1.404   .     A
C411   C415    1.413   .     A
C412   C418    1.403   .     A
C412   C416    1.413   .     A
C413   C421    1.401   .     A
C413   C415    1.394   .     A
C414   C416    1.394   .     A
C414   C422    1.401   .     A
C414   H332    1.084   1_655 S
C416   I349    2.129   1_655 S
C417   H430    1.074   .     S
C417   C419    1.407   .     A
C418   H429    1.073   .     S
C418   C420    1.407   .     A
C419   C423    1.431   .     A
C419   C421    1.415   .     A
C420   C422    1.415   .     A
C420   C424    1.431   .     A
C421   C855    1.389   .     S
C422   C856    1.389   1_554 S
C423   C874    1.428   .     S
C424   C873    1.428   1_554 S
Cu425  O448    1.913   .     S
Cu425  O444    1.952   .     S
Cu425  N440    2.017   .     S
Cu425  O441    1.955   .     S
Cu425  O445    1.939   .     S
Cu425  Cu426   2.685   .     S
Cu426  O447    1.913   .     S
Cu426  O443    1.952   .     S
Cu426  N439    2.017   .     S
Cu426  O442    1.955   .     S
Cu426  O446    1.939   .     S
H431   C313    1.084   1_655 S
H436   C108    1.088   1_565 S
H438   N340    1.029   1_655 S
N439   H337    1.029   1_655 S
N439   N340    1.281   1_655 S
I450   C315    2.129   1_655 S
C451   O493    1.285   .     A
C451   C457    1.428   .     S
C451   O491    1.290   .     A
C452   O494    1.285   .     A
C452   O492    1.290   .     A
C452   C458    1.428   .     S
C453   C474    1.416   .     A
C453   H483    1.074   .     S
C453   C455    1.385   .     A
C454   H484    1.074   .     S
C454   C456    1.385   .     A
C454   C473    1.416   .     A
C455   H477    1.085   .     S
C456   H478    1.085   .     S
C456   C22     1.389   1_556 S
C457   C608    1.328   .     S
C457   H635    1.088   .     S
C458   C757    1.328   1_545 S
C458   H786    1.088   1_545 S
C459   O495    1.300   .     A
C459   C461    1.478   .     S
C459   O497    1.300   .     A
C460   O496    1.300   .     A
C460   C462    1.478   .     S
C460   O498    1.300   .     A
C461   C467    1.404   .     A
C461   C465    1.413   .     A
C462   C468    1.403   .     A
C462   C466    1.413   .     A
C463   C471    1.401   .     A
C463   C465    1.394   .     A
C463   H581    1.084   1_455 S
C464   C466    1.394   .     A
C464   C472    1.401   .     A
C464   H532    1.084   .     S
C465   I600    2.129   1_455 S
C466   I549    2.129   .     S
C467   H480    1.074   .     S
C467   C469    1.407   .     A
C468   H479    1.073   .     S
C468   C470    1.407   .     A
C469   C473    1.431   .     A
C469   C471    1.415   .     A
C470   C472    1.415   .     A
C470   C474    1.431   .     A
C471   C5      1.389   1_556 S
C473   C24     1.428   1_556 S
Cu475  O498    1.913   .     S
Cu475  O494    1.952   .     S
Cu475  N490    2.017   .     S
Cu475  O491    1.955   .     S
Cu475  O495    1.939   .     S
Cu475  Cu476   2.685   .     S
Cu476  O497    1.913   .     S
Cu476  O493    1.952   .     S
Cu476  N489    2.017   .     S
Cu476  O492    1.955   .     S
Cu476  O496    1.939   .     S
H481   C513    1.084   .     S
H482   C564    1.084   1_455 S
H485   C757    1.088   1_545 S
H486   C608    1.088   .     S
H487   N589    1.029   1_455 S
H488   N540    1.029   .     S
N489   H537    1.029   .     S
N489   N540    1.281   .     S
N490   H588    1.029   1_455 S
N490   N589    1.281   1_455 S
I499   C566    2.129   1_455 S
I500   C515    2.129   .     S
C501   O543    1.285   .     A
C501   C507    1.428   .     S
C501   O541    1.290   .     A
C502   O544    1.285   .     A
C502   O542    1.290   .     A
C502   C508    1.428   .     S
C503   C524    1.416   .     A
C503   H533    1.074   .     S
C503   C505    1.385   .     A
C504   H534    1.074   .     S
C504   C506    1.385   .     A
C504   C523    1.416   .     A
C505   H527    1.085   .     S
C506   H528    1.085   .     S
C506   C72     1.389   1_556 S
C507   C658    1.328   .     S
C507   H685    1.088   .     S
C508   C807    1.328   1_545 S
C508   H836    1.088   1_545 S
C509   O545    1.300   .     A
C509   C511    1.478   .     S
C509   O547    1.300   .     A
C510   O546    1.300   .     A
C510   C512    1.478   .     S
C510   O548    1.300   .     A
C511   C517    1.404   .     A
C511   C515    1.413   .     A
C512   C518    1.403   .     A
C512   C516    1.413   .     A
C513   C521    1.401   .     A
C513   C515    1.394   .     A
C514   C516    1.394   .     A
C514   C522    1.401   .     A
C514   H582    1.084   .     S
C516   I599    2.129   .     S
C517   H530    1.074   .     S
C517   C519    1.407   .     A
C518   H529    1.073   .     S
C518   C520    1.407   .     A
C519   C523    1.431   .     A
C519   C521    1.415   .     A
C520   C522    1.415   .     A
C520   C524    1.431   .     A
C521   C55     1.389   1_556 S
C523   C74     1.428   1_556 S
Cu525  O548    1.913   .     S
Cu525  O544    1.952   .     S
Cu525  N540    2.017   .     S
Cu525  O541    1.955   .     S
Cu525  O545    1.939   .     S
Cu525  Cu526   2.685   .     S
Cu526  O547    1.913   .     S
Cu526  O543    1.952   .     S
Cu526  N539    2.017   .     S
Cu526  O542    1.955   .     S
Cu526  O546    1.939   .     S
H531   C563    1.084   .     S
H535   C807    1.088   1_545 S
H536   C658    1.088   .     S
H538   N590    1.029   .     S
N539   H587    1.029   .     S
N539   N590    1.281   .     S
I550   C565    2.129   .     S
C551   O593    1.285   .     A
C551   C557    1.428   .     S
C551   O591    1.290   .     A
C552   O594    1.285   .     A
C552   O592    1.290   .     A
C552   C558    1.428   .     S
C553   C574    1.416   .     A
C553   H583    1.074   .     S
C553   C555    1.385   .     A
C554   H584    1.074   .     S
C554   C556    1.385   .     A
C554   C573    1.416   .     A
C555   H577    1.085   .     S
C556   H578    1.085   .     S
C556   C122    1.389   1_556 S
C557   C708    1.328   .     S
C557   H735    1.088   .     S
C558   C857    1.328   1_545 S
C558   H886    1.088   1_545 S
C559   O595    1.300   .     A
C559   C561    1.478   .     S
C559   O597    1.300   .     A
C560   O596    1.300   .     A
C560   C562    1.478   .     S
C560   O598    1.300   .     A
C561   C567    1.404   .     A
C561   C565    1.413   .     A
C562   C568    1.403   .     A
C562   C566    1.413   .     A
C563   C571    1.401   .     A
C563   C565    1.394   .     A
C564   C566    1.394   .     A
C564   C572    1.401   .     A
C564   H482    1.084   1_655 S
C566   I499    2.129   1_655 S
C567   H580    1.074   .     S
C567   C569    1.407   .     A
C568   H579    1.073   .     S
C568   C570    1.407   .     A
C569   C573    1.431   .     A
C569   C571    1.415   .     A
C570   C572    1.415   .     A
C570   C574    1.431   .     A
C571   C105    1.389   1_556 S
C573   C124    1.428   1_556 S
Cu575  O598    1.913   .     S
Cu575  O594    1.952   .     S
Cu575  N590    2.017   .     S
Cu575  O591    1.955   .     S
Cu575  O595    1.939   .     S
Cu575  Cu576   2.685   .     S
Cu576  O597    1.913   .     S
Cu576  O593    1.952   .     S
Cu576  N589    2.017   .     S
Cu576  O592    1.955   .     S
Cu576  O596    1.939   .     S
H581   C463    1.084   1_655 S
H585   C857    1.088   1_545 S
H586   C708    1.088   .     S
H588   N490    1.029   1_655 S
N589   H487    1.029   1_655 S
N589   N490    1.281   1_655 S
I600   C465    2.129   1_655 S
C601   O643    1.285   .     A
C601   C607    1.428   .     S
C601   O641    1.290   .     A
C602   O644    1.285   .     A
C602   O642    1.290   .     A
C602   C608    1.428   .     S
C603   C624    1.416   .     A
C603   H633    1.074   .     S
C603   C605    1.385   .     A
C604   H634    1.074   .     S
C604   C606    1.385   .     A
C604   C623    1.416   .     A
C605   H627    1.085   .     S
C606   H628    1.085   .     S
C606   C172    1.389   1_556 S
C607   C758    1.328   .     S
C607   H785    1.088   .     S
C609   O645    1.300   .     A
C609   C611    1.478   .     S
C609   O647    1.300   .     A
C610   O646    1.300   .     A
C610   C612    1.478   .     S
C610   O648    1.300   .     A
C611   C617    1.404   .     A
C611   C615    1.413   .     A
C612   C618    1.403   .     A
C612   C616    1.413   .     A
C613   C621    1.401   .     A
C613   C615    1.394   .     A
C613   H731    1.084   1_455 S
C614   C616    1.394   .     A
C614   C622    1.401   .     A
C614   H682    1.084   .     S
C615   I750    2.129   1_455 S
C616   I699    2.129   .     S
C617   H630    1.074   .     S
C617   C619    1.407   .     A
C618   H629    1.073   .     S
C618   C620    1.407   .     A
C619   C623    1.431   .     A
C619   C621    1.415   .     A
C620   C622    1.415   .     A
C620   C624    1.431   .     A
C621   C155    1.389   1_556 S
C623   C174    1.428   1_556 S
Cu625  O648    1.913   .     S
Cu625  O644    1.952   .     S
Cu625  N640    2.017   .     S
Cu625  O641    1.955   .     S
Cu625  O645    1.939   .     S
Cu625  Cu626   2.685   .     S
Cu626  O647    1.913   .     S
Cu626  O643    1.952   .     S
Cu626  N639    2.017   .     S
Cu626  O642    1.955   .     S
Cu626  O646    1.939   .     S
H631   C663    1.084   .     S
H632   C714    1.084   1_455 S
H636   C758    1.088   .     S
H637   N739    1.029   1_455 S
H638   N690    1.029   .     S
N639   H687    1.029   .     S
N639   N690    1.281   .     S
N640   H738    1.029   1_455 S
N640   N739    1.281   1_455 S
I649   C716    2.129   1_455 S
I650   C665    2.129   .     S
C651   O693    1.285   .     A
C651   C657    1.428   .     S
C651   O691    1.290   .     A
C652   O694    1.285   .     A
C652   O692    1.290   .     A
C652   C658    1.428   .     S
C653   C674    1.416   .     A
C653   H683    1.074   .     S
C653   C655    1.385   .     A
C654   H684    1.074   .     S
C654   C656    1.385   .     A
C654   C673    1.416   .     A
C655   H677    1.085   .     S
C656   H678    1.085   .     S
C656   C222    1.389   1_556 S
C657   C808    1.328   .     S
C657   H835    1.088   .     S
C659   O695    1.300   .     A
C659   C661    1.478   .     S
C659   O697    1.300   .     A
C660   O696    1.300   .     A
C660   C662    1.478   .     S
C660   O698    1.300   .     A
C661   C667    1.404   .     A
C661   C665    1.413   .     A
C662   C668    1.403   .     A
C662   C666    1.413   .     A
C663   C671    1.401   .     A
C663   C665    1.394   .     A
C664   C666    1.394   .     A
C664   C672    1.401   .     A
C664   H732    1.084   .     S
C666   I749    2.129   .     S
C667   H680    1.074   .     S
C667   C669    1.407   .     A
C668   H679    1.073   .     S
C668   C670    1.407   .     A
C669   C673    1.431   .     A
C669   C671    1.415   .     A
C670   C672    1.415   .     A
C670   C674    1.431   .     A
C671   C205    1.389   1_556 S
C673   C224    1.428   1_556 S
Cu675  O698    1.913   .     S
Cu675  O694    1.952   .     S
Cu675  N690    2.017   .     S
Cu675  O691    1.955   .     S
Cu675  O695    1.939   .     S
Cu675  Cu676   2.685   .     S
Cu676  O697    1.913   .     S
Cu676  O693    1.952   .     S
Cu676  N689    2.017   .     S
Cu676  O692    1.955   .     S
Cu676  O696    1.939   .     S
H681   C713    1.084   .     S
H686   C808    1.088   .     S
H688   N740    1.029   .     S
N689   H737    1.029   .     S
N689   N740    1.281   .     S
I700   C715    2.129   .     S
C701   O743    1.285   .     A
C701   C707    1.428   .     S
C701   O741    1.290   .     A
C702   O744    1.285   .     A
C702   O742    1.290   .     A
C702   C708    1.428   .     S
C703   C724    1.416   .     A
C703   H733    1.074   .     S
C703   C705    1.385   .     A
C704   H734    1.074   .     S
C704   C706    1.385   .     A
C704   C723    1.416   .     A
C705   H727    1.085   .     S
C706   H728    1.085   .     S
C706   C272    1.389   1_556 S
C707   C858    1.328   .     S
C707   H885    1.088   .     S
C709   O745    1.300   .     A
C709   C711    1.478   .     S
C709   O747    1.300   .     A
C710   O746    1.300   .     A
C710   C712    1.478   .     S
C710   O748    1.300   .     A
C711   C717    1.404   .     A
C711   C715    1.413   .     A
C712   C718    1.403   .     A
C712   C716    1.413   .     A
C713   C721    1.401   .     A
C713   C715    1.394   .     A
C714   C716    1.394   .     A
C714   C722    1.401   .     A
C714   H632    1.084   1_655 S
C716   I649    2.129   1_655 S
C717   H730    1.074   .     S
C717   C719    1.407   .     A
C718   H729    1.073   .     S
C718   C720    1.407   .     A
C719   C723    1.431   .     A
C719   C721    1.415   .     A
C720   C722    1.415   .     A
C720   C724    1.431   .     A
C721   C255    1.389   1_556 S
C723   C274    1.428   1_556 S
Cu725  O748    1.913   .     S
Cu725  O744    1.952   .     S
Cu725  N740    2.017   .     S
Cu725  O741    1.955   .     S
Cu725  O745    1.939   .     S
Cu725  Cu726   2.685   .     S
Cu726  O747    1.913   .     S
Cu726  O743    1.952   .     S
Cu726  N739    2.017   .     S
Cu726  O742    1.955   .     S
Cu726  O746    1.939   .     S
H731   C613    1.084   1_655 S
H736   C858    1.088   .     S
H738   N640    1.029   1_655 S
N739   H637    1.029   1_655 S
N739   N640    1.281   1_655 S
I750   C615    2.129   1_655 S
C751   O793    1.285   .     A
C751   C757    1.428   .     S
C751   O791    1.290   .     A
C752   O794    1.285   .     A
C752   O792    1.290   .     A
C752   C758    1.428   .     S
C753   C774    1.416   .     A
C753   H783    1.074   .     S
C753   C755    1.385   .     A
C754   H784    1.074   .     S
C754   C756    1.385   .     A
C754   C773    1.416   .     A
C755   H777    1.085   .     S
C756   H778    1.085   .     S
C756   C322    1.389   1_556 S
C757   C458    1.328   1_565 S
C757   H485    1.088   1_565 S
C759   O795    1.300   .     A
C759   C761    1.478   .     S
C759   O797    1.300   .     A
C760   O796    1.300   .     A
C760   C762    1.478   .     S
C760   O798    1.300   .     A
C761   C767    1.404   .     A
C761   C765    1.413   .     A
C762   C768    1.403   .     A
C762   C766    1.413   .     A
C763   C771    1.401   .     A
C763   C765    1.394   .     A
C763   H881    1.084   1_455 S
C764   C766    1.394   .     A
C764   C772    1.401   .     A
C764   H832    1.084   .     S
C765   I900    2.129   1_455 S
C766   I849    2.129   .     S
C767   H780    1.074   .     S
C767   C769    1.407   .     A
C768   H779    1.073   .     S
C768   C770    1.407   .     A
C769   C773    1.431   .     A
C769   C771    1.415   .     A
C770   C772    1.415   .     A
C770   C774    1.431   .     A
C771   C305    1.389   1_556 S
C773   C324    1.428   1_556 S
Cu775  O798    1.913   .     S
Cu775  O794    1.952   .     S
Cu775  N790    2.017   .     S
Cu775  O791    1.955   .     S
Cu775  O795    1.939   .     S
Cu775  Cu776   2.685   .     S
Cu776  O797    1.913   .     S
Cu776  O793    1.952   .     S
Cu776  N789    2.017   .     S
Cu776  O792    1.955   .     S
Cu776  O796    1.939   .     S
H781   C813    1.084   .     S
H782   C864    1.084   1_455 S
H786   C458    1.088   1_565 S
H787   N889    1.029   1_455 S
H788   N840    1.029   .     S
N789   H837    1.029   .     S
N789   N840    1.281   .     S
N790   H888    1.029   1_455 S
N790   N889    1.281   1_455 S
I799   C866    2.129   1_455 S
I800   C815    2.129   .     S
C801   O843    1.285   .     A
C801   C807    1.428   .     S
C801   O841    1.290   .     A
C802   O844    1.285   .     A
C802   O842    1.290   .     A
C802   C808    1.428   .     S
C803   C824    1.416   .     A
C803   H833    1.074   .     S
C803   C805    1.385   .     A
C804   H834    1.074   .     S
C804   C806    1.385   .     A
C804   C823    1.416   .     A
C805   H827    1.085   .     S
C806   H828    1.085   .     S
C806   C372    1.389   1_556 S
C807   C508    1.328   1_565 S
C807   H535    1.088   1_565 S
C809   O845    1.300   .     A
C809   C811    1.478   .     S
C809   O847    1.300   .     A
C810   O846    1.300   .     A
C810   C812    1.478   .     S
C810   O848    1.300   .     A
C811   C817    1.404   .     A
C811   C815    1.413   .     A
C812   C818    1.403   .     A
C812   C816    1.413   .     A
C813   C821    1.401   .     A
C813   C815    1.394   .     A
C814   C816    1.394   .     A
C814   C822    1.401   .     A
C814   H882    1.084   .     S
C816   I899    2.129   .     S
C817   H830    1.074   .     S
C817   C819    1.407   .     A
C818   H829    1.073   .     S
C818   C820    1.407   .     A
C819   C823    1.431   .     A
C819   C821    1.415   .     A
C820   C822    1.415   .     A
C820   C824    1.431   .     A
C821   C355    1.389   1_556 S
C823   C374    1.428   1_556 S
Cu825  O848    1.913   .     S
Cu825  O844    1.952   .     S
Cu825  N840    2.017   .     S
Cu825  O841    1.955   .     S
Cu825  O845    1.939   .     S
Cu825  Cu826   2.685   .     S
Cu826  O847    1.913   .     S
Cu826  O843    1.952   .     S
Cu826  N839    2.017   .     S
Cu826  O842    1.955   .     S
Cu826  O846    1.939   .     S
H831   C863    1.084   .     S
H836   C508    1.088   1_565 S
H838   N890    1.029   .     S
N839   H887    1.029   .     S
N839   N890    1.281   .     S
I850   C865    2.129   .     S
C851   O893    1.285   .     A
C851   C857    1.428   .     S
C851   O891    1.290   .     A
C852   O894    1.285   .     A
C852   O892    1.290   .     A
C852   C858    1.428   .     S
C853   C874    1.416   .     A
C853   H883    1.074   .     S
C853   C855    1.385   .     A
C854   H884    1.074   .     S
C854   C856    1.385   .     A
C854   C873    1.416   .     A
C855   H877    1.085   .     S
C856   H878    1.085   .     S
C856   C422    1.389   1_556 S
C857   C558    1.328   1_565 S
C857   H585    1.088   1_565 S
C859   O895    1.300   .     A
C859   C861    1.478   .     S
C859   O897    1.300   .     A
C860   O896    1.300   .     A
C860   C862    1.478   .     S
C860   O898    1.300   .     A
C861   C867    1.404   .     A
C861   C865    1.413   .     A
C862   C868    1.403   .     A
C862   C866    1.413   .     A
C863   C871    1.401   .     A
C863   C865    1.394   .     A
C864   C866    1.394   .     A
C864   C872    1.401   .     A
C864   H782    1.084   1_655 S
C866   I799    2.129   1_655 S
C867   H880    1.074   .     S
C867   C869    1.407   .     A
C868   H879    1.073   .     S
C868   C870    1.407   .     A
C869   C873    1.431   .     A
C869   C871    1.415   .     A
C870   C872    1.415   .     A
C870   C874    1.431   .     A
C871   C405    1.389   1_556 S
C873   C424    1.428   1_556 S
Cu875  O898    1.913   .     S
Cu875  O894    1.952   .     S
Cu875  N890    2.017   .     S
Cu875  O891    1.955   .     S
Cu875  O895    1.939   .     S
Cu875  Cu876   2.685   .     S
Cu876  O897    1.913   .     S
Cu876  O893    1.952   .     S
Cu876  N889    2.017   .     S
Cu876  O892    1.955   .     S
Cu876  O896    1.939   .     S
H881   C763    1.084   1_655 S
H886   C558    1.088   1_565 S
H888   N790    1.029   1_655 S
N889   H787    1.029   1_655 S
N889   N790    1.281   1_655 S
I900   C765    2.129   1_655 S
