data_str_m2_o1_o16_pcu_sym.243
_audit_creation_date              2020-01-03
_audit_creation_method            'Materials Studio'
_symmetry_space_group_name_H-M    'P1'
_symmetry_Int_Tables_number       1
_symmetry_cell_setting            triclinic
loop_
_symmetry_equiv_pos_as_xyz
  x,y,z
_cell_length_a                    28.6603
_cell_length_b                    32.3927
_cell_length_c                    26.9328
_cell_angle_alpha                 90.9684
_cell_angle_beta                  73.8395
_cell_angle_gamma                 90.3849
loop_
_atom_site_label
_atom_site_type_symbol
_atom_site_fract_x
_atom_site_fract_y
_atom_site_fract_z
_atom_site_U_iso_or_equiv
_atom_site_adp_type
_atom_site_occupancy
C1     C     0.16674   0.24595   0.25026   0.00000  Uiso   1.00
C2     C     0.15100   0.14466   0.48590   0.00000  Uiso   1.00
C3     C     0.16602   0.14670   0.43129   0.00000  Uiso   1.00
C4     C     0.18541   0.15389   0.01378   0.00000  Uiso   1.00
C5     C     0.23478   0.16080   0.48651   0.00000  Uiso   1.00
C6     C     0.25022   0.15419   0.43350   0.00000  Uiso   1.00
C7     C     0.21662   0.14545   0.40662   0.00000  Uiso   1.00
C8     C     0.17212   0.15781   0.06775   0.00000  Uiso   1.00
C9     C     0.25493   0.17515   0.06630   0.00000  Uiso   1.00
C10    C     0.12985   0.14859   0.40390   0.00000  Uiso   1.00
C11    C     0.20705   0.31220   0.21890   0.00000  Uiso   1.00
C12    C     0.14165   0.16134   0.34911   0.00000  Uiso   1.00
C13    C     0.20681   0.02166   0.21935   0.00000  Uiso   1.00
C14    C     0.16656   0.04308   0.24965   0.00000  Uiso   1.00
C15    C     0.12661   0.02211   0.28049   0.00000  Uiso   1.00
C16    C     0.12683   0.31271   0.28182   0.00000  Uiso   1.00
C17    C     0.16694   0.29073   0.25041   0.00000  Uiso   1.00
C18    C     0.30090   0.19282   0.28211   0.00000  Uiso   1.00
C19    C     0.01690   0.19244   0.28218   0.00000  Uiso   1.00
C20    C     0.03241   0.14052   0.21786   0.00000  Uiso   1.00
C21    C     0.31632   0.14067   0.21805   0.00000  Uiso   1.00
C22    C     0.16663   0.08751   0.24973   0.00000  Uiso   1.00
C23    C     0.19233   0.16727   0.15033   0.00000  Uiso   1.00
C24    C     0.26862   0.17271   0.01272   0.00000  Uiso   1.00
C25    C     0.20683   0.16693   0.09398   0.00000  Uiso   1.00
C26    C     0.08206   0.13686   0.42939   0.00000  Uiso   1.00
C27    C     0.06986   0.12571   0.48118   0.00000  Uiso   1.00
C28    C     0.10290   0.13187   0.00999   0.00000  Uiso   1.00
Cu29   Cu    0.11978   0.16666   0.25000   0.00000  Uiso   1.00
Cu30   Cu    0.21355   0.16667   0.25000   0.00000  Uiso   1.00
H31    H     0.23754   0.03825   0.19512   0.00000  Uiso   1.00
N32    N     0.04931   0.16666   0.24998   0.00000  Uiso   1.00
N33    N     0.28402   0.16669   0.24999   0.00000  Uiso   1.00
O34    O     0.12708   0.22678   0.25000   0.00000  Uiso   1.00
O35    O     0.20627   0.22679   0.25000   0.00000  Uiso   1.00
O36    O     0.10775   0.16665   0.32549   0.00000  Uiso   1.00
O37    O     0.18694   0.16666   0.32549   0.00000  Uiso   1.00
O38    O     0.12706   0.10654   0.24999   0.00000  Uiso   1.00
O39    O     0.20625   0.10655   0.24999   0.00000  Uiso   1.00
O40    O     0.14640   0.16667   0.17451   0.00000  Uiso   1.00
O41    O     0.22559   0.16668   0.17451   0.00000  Uiso   1.00
H42    H     0.28199   0.18322   0.08601   0.00000  Uiso   1.00
H43    H     0.09591   0.03906   0.30471   0.00000  Uiso   1.00
Cl44   Cl    0.07739   0.28845   0.32574   0.00000  Uiso   1.00
Cl45   Cl    0.26263   0.22814   0.32427   0.00000  Uiso   1.00
H46    H     0.02920   0.21286   0.30809   0.00000  Uiso   1.00
Cl47   Cl    0.07071   0.10532   0.17555   0.00000  Uiso   1.00
H48    H     0.30385   0.11986   0.19256   0.00000  Uiso   1.00
H49    H     0.28850   0.15536   0.41271   0.00000  Uiso   1.00
H50    H     0.30598   0.17926   0.49173   0.00000  Uiso   1.00
H51    H     0.13488   0.15422   0.09011   0.00000  Uiso   1.00
H52    H     0.05477   0.13453   0.40857   0.00000  Uiso   1.00
H53    H     0.09090   0.12405   0.05034   0.00000  Uiso   1.00
Cl54   Cl    0.01384   0.10204   0.00990   0.00000  Uiso   1.00
H55    H     0.23194   0.13578   0.36705   0.00000  Uiso   1.00
Cl56   Cl    0.25728   0.28705   0.17636   0.00000  Uiso   1.00
C57    C     0.50007   0.24595   0.25026   0.00000  Uiso   1.00
C58    C     0.48434   0.14466   0.48590   0.00000  Uiso   1.00
C59    C     0.49935   0.14670   0.43129   0.00000  Uiso   1.00
C60    C     0.51874   0.15389   0.01378   0.00000  Uiso   1.00
C61    C     0.56811   0.16080   0.48651   0.00000  Uiso   1.00
C62    C     0.58356   0.15419   0.43350   0.00000  Uiso   1.00
C63    C     0.54995   0.14545   0.40662   0.00000  Uiso   1.00
C64    C     0.50546   0.15781   0.06775   0.00000  Uiso   1.00
C65    C     0.58827   0.17515   0.06630   0.00000  Uiso   1.00
C66    C     0.46319   0.14859   0.40390   0.00000  Uiso   1.00
C67    C     0.54038   0.31220   0.21890   0.00000  Uiso   1.00
C68    C     0.47499   0.16134   0.34911   0.00000  Uiso   1.00
C69    C     0.54015   0.02166   0.21935   0.00000  Uiso   1.00
C70    C     0.49989   0.04308   0.24965   0.00000  Uiso   1.00
C71    C     0.45994   0.02211   0.28049   0.00000  Uiso   1.00
C72    C     0.46016   0.31271   0.28182   0.00000  Uiso   1.00
C73    C     0.50028   0.29073   0.25041   0.00000  Uiso   1.00
C74    C     0.63424   0.19282   0.28211   0.00000  Uiso   1.00
C75    C     0.35024   0.19244   0.28218   0.00000  Uiso   1.00
C76    C     0.36575   0.14052   0.21786   0.00000  Uiso   1.00
C77    C     0.64965   0.14067   0.21805   0.00000  Uiso   1.00
C78    C     0.49996   0.08751   0.24973   0.00000  Uiso   1.00
C79    C     0.52567   0.16727   0.15033   0.00000  Uiso   1.00
C80    C     0.60195   0.17271   0.01272   0.00000  Uiso   1.00
C81    C     0.54017   0.16693   0.09398   0.00000  Uiso   1.00
C82    C     0.41540   0.13686   0.42939   0.00000  Uiso   1.00
C83    C     0.40319   0.12571   0.48118   0.00000  Uiso   1.00
C84    C     0.43623   0.13187   0.00999   0.00000  Uiso   1.00
Cu85   Cu    0.45311   0.16666   0.25000   0.00000  Uiso   1.00
Cu86   Cu    0.54689   0.16667   0.25000   0.00000  Uiso   1.00
H87    H     0.57088   0.03825   0.19512   0.00000  Uiso   1.00
N88    N     0.38265   0.16666   0.24998   0.00000  Uiso   1.00
N89    N     0.61735   0.16669   0.24999   0.00000  Uiso   1.00
O90    O     0.46042   0.22678   0.25000   0.00000  Uiso   1.00
O91    O     0.53961   0.22679   0.25000   0.00000  Uiso   1.00
O92    O     0.44108   0.16665   0.32549   0.00000  Uiso   1.00
O93    O     0.52027   0.16666   0.32549   0.00000  Uiso   1.00
O94    O     0.46039   0.10654   0.24999   0.00000  Uiso   1.00
O95    O     0.53958   0.10655   0.24999   0.00000  Uiso   1.00
O96    O     0.47973   0.16667   0.17451   0.00000  Uiso   1.00
O97    O     0.55892   0.16668   0.17451   0.00000  Uiso   1.00
H98    H     0.61533   0.18322   0.08601   0.00000  Uiso   1.00
H99    H     0.42924   0.03906   0.30471   0.00000  Uiso   1.00
Cl100  Cl    0.41072   0.28845   0.32574   0.00000  Uiso   1.00
Cl101  Cl    0.59596   0.22814   0.32427   0.00000  Uiso   1.00
H102   H     0.36253   0.21286   0.30809   0.00000  Uiso   1.00
Cl103  Cl    0.40405   0.10532   0.17555   0.00000  Uiso   1.00
H104   H     0.63718   0.11986   0.19256   0.00000  Uiso   1.00
H105   H     0.62184   0.15536   0.41271   0.00000  Uiso   1.00
H106   H     0.63931   0.17926   0.49173   0.00000  Uiso   1.00
H107   H     0.46821   0.15422   0.09011   0.00000  Uiso   1.00
H108   H     0.38811   0.13453   0.40857   0.00000  Uiso   1.00
H109   H     0.42423   0.12405   0.05034   0.00000  Uiso   1.00
Cl110  Cl    0.34718   0.10204   0.00990   0.00000  Uiso   1.00
H111   H     0.56528   0.13578   0.36705   0.00000  Uiso   1.00
Cl112  Cl    0.59061   0.28705   0.17636   0.00000  Uiso   1.00
C113   C     0.83341   0.24595   0.25026   0.00000  Uiso   1.00
C114   C     0.81767   0.14466   0.48590   0.00000  Uiso   1.00
C115   C     0.83268   0.14670   0.43129   0.00000  Uiso   1.00
C116   C     0.85207   0.15389   0.01378   0.00000  Uiso   1.00
C117   C     0.90144   0.16080   0.48651   0.00000  Uiso   1.00
C118   C     0.91689   0.15419   0.43350   0.00000  Uiso   1.00
C119   C     0.88329   0.14545   0.40662   0.00000  Uiso   1.00
C120   C     0.83879   0.15781   0.06775   0.00000  Uiso   1.00
C121   C     0.92160   0.17515   0.06630   0.00000  Uiso   1.00
C122   C     0.79652   0.14859   0.40390   0.00000  Uiso   1.00
C123   C     0.87372   0.31220   0.21890   0.00000  Uiso   1.00
C124   C     0.80832   0.16134   0.34911   0.00000  Uiso   1.00
C125   C     0.87348   0.02166   0.21935   0.00000  Uiso   1.00
C126   C     0.83322   0.04308   0.24965   0.00000  Uiso   1.00
C127   C     0.79328   0.02211   0.28049   0.00000  Uiso   1.00
C128   C     0.79350   0.31271   0.28182   0.00000  Uiso   1.00
C129   C     0.83361   0.29073   0.25041   0.00000  Uiso   1.00
C130   C     0.96757   0.19282   0.28211   0.00000  Uiso   1.00
C131   C     0.68357   0.19244   0.28218   0.00000  Uiso   1.00
C132   C     0.69908   0.14052   0.21786   0.00000  Uiso   1.00
C133   C     0.98299   0.14067   0.21805   0.00000  Uiso   1.00
C134   C     0.83329   0.08751   0.24973   0.00000  Uiso   1.00
C135   C     0.85900   0.16727   0.15033   0.00000  Uiso   1.00
C136   C     0.93529   0.17271   0.01272   0.00000  Uiso   1.00
C137   C     0.87350   0.16693   0.09398   0.00000  Uiso   1.00
C138   C     0.74873   0.13686   0.42939   0.00000  Uiso   1.00
C139   C     0.73652   0.12571   0.48118   0.00000  Uiso   1.00
C140   C     0.76957   0.13187   0.00999   0.00000  Uiso   1.00
Cu141  Cu    0.78645   0.16666   0.25000   0.00000  Uiso   1.00
Cu142  Cu    0.88022   0.16667   0.25000   0.00000  Uiso   1.00
H143   H     0.90421   0.03825   0.19512   0.00000  Uiso   1.00
N144   N     0.71598   0.16666   0.24998   0.00000  Uiso   1.00
N145   N     0.95069   0.16669   0.24999   0.00000  Uiso   1.00
O146   O     0.79375   0.22678   0.25000   0.00000  Uiso   1.00
O147   O     0.87294   0.22679   0.25000   0.00000  Uiso   1.00
O148   O     0.77441   0.16665   0.32549   0.00000  Uiso   1.00
O149   O     0.85360   0.16666   0.32549   0.00000  Uiso   1.00
O150   O     0.79373   0.10654   0.24999   0.00000  Uiso   1.00
O151   O     0.87292   0.10655   0.24999   0.00000  Uiso   1.00
O152   O     0.81306   0.16667   0.17451   0.00000  Uiso   1.00
O153   O     0.89225   0.16668   0.17451   0.00000  Uiso   1.00
H154   H     0.94866   0.18322   0.08601   0.00000  Uiso   1.00
H155   H     0.76258   0.03906   0.30471   0.00000  Uiso   1.00
Cl156  Cl    0.74406   0.28845   0.32574   0.00000  Uiso   1.00
Cl157  Cl    0.92929   0.22814   0.32427   0.00000  Uiso   1.00
H158   H     0.69586   0.21286   0.30809   0.00000  Uiso   1.00
Cl159  Cl    0.73738   0.10532   0.17555   0.00000  Uiso   1.00
H160   H     0.97051   0.11986   0.19256   0.00000  Uiso   1.00
H161   H     0.95517   0.15536   0.41271   0.00000  Uiso   1.00
H162   H     0.97264   0.17926   0.49173   0.00000  Uiso   1.00
H163   H     0.80154   0.15422   0.09011   0.00000  Uiso   1.00
H164   H     0.72144   0.13453   0.40857   0.00000  Uiso   1.00
H165   H     0.75757   0.12405   0.05034   0.00000  Uiso   1.00
Cl166  Cl    0.68051   0.10204   0.00990   0.00000  Uiso   1.00
H167   H     0.89861   0.13578   0.36705   0.00000  Uiso   1.00
Cl168  Cl    0.92395   0.28705   0.17636   0.00000  Uiso   1.00
C169   C     0.16674   0.57928   0.25026   0.00000  Uiso   1.00
C170   C     0.15100   0.47799   0.48590   0.00000  Uiso   1.00
C171   C     0.16602   0.48003   0.43129   0.00000  Uiso   1.00
C172   C     0.18541   0.48723   0.01378   0.00000  Uiso   1.00
C173   C     0.23478   0.49414   0.48651   0.00000  Uiso   1.00
C174   C     0.25022   0.48752   0.43350   0.00000  Uiso   1.00
C175   C     0.21662   0.47878   0.40662   0.00000  Uiso   1.00
C176   C     0.17212   0.49114   0.06775   0.00000  Uiso   1.00
C177   C     0.25493   0.50848   0.06630   0.00000  Uiso   1.00
C178   C     0.12985   0.48193   0.40390   0.00000  Uiso   1.00
C179   C     0.20705   0.64553   0.21890   0.00000  Uiso   1.00
C180   C     0.14165   0.49467   0.34911   0.00000  Uiso   1.00
C181   C     0.20681   0.35500   0.21935   0.00000  Uiso   1.00
C182   C     0.16656   0.37642   0.24965   0.00000  Uiso   1.00
C183   C     0.12661   0.35545   0.28049   0.00000  Uiso   1.00
C184   C     0.12683   0.64604   0.28182   0.00000  Uiso   1.00
C185   C     0.16694   0.62406   0.25041   0.00000  Uiso   1.00
C186   C     0.30090   0.52615   0.28211   0.00000  Uiso   1.00
C187   C     0.01690   0.52577   0.28218   0.00000  Uiso   1.00
C188   C     0.03241   0.47385   0.21786   0.00000  Uiso   1.00
C189   C     0.31632   0.47400   0.21805   0.00000  Uiso   1.00
C190   C     0.16663   0.42085   0.24973   0.00000  Uiso   1.00
C191   C     0.19233   0.50060   0.15033   0.00000  Uiso   1.00
C192   C     0.26862   0.50605   0.01272   0.00000  Uiso   1.00
C193   C     0.20683   0.50026   0.09398   0.00000  Uiso   1.00
C194   C     0.08206   0.47019   0.42939   0.00000  Uiso   1.00
C195   C     0.06986   0.45904   0.48118   0.00000  Uiso   1.00
C196   C     0.10290   0.46521   0.00999   0.00000  Uiso   1.00
Cu197  Cu    0.11978   0.49999   0.25000   0.00000  Uiso   1.00
Cu198  Cu    0.21355   0.50001   0.25000   0.00000  Uiso   1.00
H199   H     0.23754   0.37159   0.19512   0.00000  Uiso   1.00
N200   N     0.04931   0.49999   0.24998   0.00000  Uiso   1.00
N201   N     0.28402   0.50002   0.24999   0.00000  Uiso   1.00
O202   O     0.12708   0.56011   0.25000   0.00000  Uiso   1.00
O203   O     0.20627   0.56012   0.25000   0.00000  Uiso   1.00
O204   O     0.10775   0.49998   0.32549   0.00000  Uiso   1.00
O205   O     0.18694   0.49999   0.32549   0.00000  Uiso   1.00
O206   O     0.12706   0.43988   0.24999   0.00000  Uiso   1.00
O207   O     0.20625   0.43989   0.24999   0.00000  Uiso   1.00
O208   O     0.14640   0.50001   0.17451   0.00000  Uiso   1.00
O209   O     0.22559   0.50002   0.17451   0.00000  Uiso   1.00
H210   H     0.28199   0.51655   0.08601   0.00000  Uiso   1.00
H211   H     0.09591   0.37239   0.30471   0.00000  Uiso   1.00
Cl212  Cl    0.07739   0.62179   0.32574   0.00000  Uiso   1.00
Cl213  Cl    0.26263   0.56148   0.32427   0.00000  Uiso   1.00
H214   H     0.02920   0.54620   0.30809   0.00000  Uiso   1.00
Cl215  Cl    0.07071   0.43865   0.17555   0.00000  Uiso   1.00
H216   H     0.30385   0.45320   0.19256   0.00000  Uiso   1.00
H217   H     0.28850   0.48870   0.41271   0.00000  Uiso   1.00
H218   H     0.30598   0.51259   0.49173   0.00000  Uiso   1.00
H219   H     0.13488   0.48755   0.09011   0.00000  Uiso   1.00
H220   H     0.05477   0.46786   0.40857   0.00000  Uiso   1.00
H221   H     0.09090   0.45739   0.05034   0.00000  Uiso   1.00
Cl222  Cl    0.01384   0.43538   0.00990   0.00000  Uiso   1.00
H223   H     0.23194   0.46912   0.36705   0.00000  Uiso   1.00
Cl224  Cl    0.25728   0.62039   0.17636   0.00000  Uiso   1.00
C225   C     0.50007   0.57928   0.25026   0.00000  Uiso   1.00
C226   C     0.48434   0.47799   0.48590   0.00000  Uiso   1.00
C227   C     0.49935   0.48003   0.43129   0.00000  Uiso   1.00
C228   C     0.51874   0.48723   0.01378   0.00000  Uiso   1.00
C229   C     0.56811   0.49414   0.48651   0.00000  Uiso   1.00
C230   C     0.58356   0.48752   0.43350   0.00000  Uiso   1.00
C231   C     0.54995   0.47878   0.40662   0.00000  Uiso   1.00
C232   C     0.50546   0.49114   0.06775   0.00000  Uiso   1.00
C233   C     0.58827   0.50848   0.06630   0.00000  Uiso   1.00
C234   C     0.46319   0.48193   0.40390   0.00000  Uiso   1.00
C235   C     0.54038   0.64553   0.21890   0.00000  Uiso   1.00
C236   C     0.47499   0.49467   0.34911   0.00000  Uiso   1.00
C237   C     0.54015   0.35500   0.21935   0.00000  Uiso   1.00
C238   C     0.49989   0.37642   0.24965   0.00000  Uiso   1.00
C239   C     0.45994   0.35545   0.28049   0.00000  Uiso   1.00
C240   C     0.46016   0.64604   0.28182   0.00000  Uiso   1.00
C241   C     0.50028   0.62406   0.25041   0.00000  Uiso   1.00
C242   C     0.63424   0.52615   0.28211   0.00000  Uiso   1.00
C243   C     0.35024   0.52577   0.28218   0.00000  Uiso   1.00
C244   C     0.36575   0.47385   0.21786   0.00000  Uiso   1.00
C245   C     0.64965   0.47400   0.21805   0.00000  Uiso   1.00
C246   C     0.49996   0.42085   0.24973   0.00000  Uiso   1.00
C247   C     0.52567   0.50060   0.15033   0.00000  Uiso   1.00
C248   C     0.60195   0.50605   0.01272   0.00000  Uiso   1.00
C249   C     0.54017   0.50026   0.09398   0.00000  Uiso   1.00
C250   C     0.41540   0.47019   0.42939   0.00000  Uiso   1.00
C251   C     0.40319   0.45904   0.48118   0.00000  Uiso   1.00
C252   C     0.43623   0.46521   0.00999   0.00000  Uiso   1.00
Cu253  Cu    0.45311   0.49999   0.25000   0.00000  Uiso   1.00
Cu254  Cu    0.54689   0.50001   0.25000   0.00000  Uiso   1.00
H255   H     0.57088   0.37159   0.19512   0.00000  Uiso   1.00
N256   N     0.38265   0.49999   0.24998   0.00000  Uiso   1.00
N257   N     0.61735   0.50002   0.24999   0.00000  Uiso   1.00
O258   O     0.46042   0.56011   0.25000   0.00000  Uiso   1.00
O259   O     0.53961   0.56012   0.25000   0.00000  Uiso   1.00
O260   O     0.44108   0.49998   0.32549   0.00000  Uiso   1.00
O261   O     0.52027   0.49999   0.32549   0.00000  Uiso   1.00
O262   O     0.46039   0.43988   0.24999   0.00000  Uiso   1.00
O263   O     0.53958   0.43989   0.24999   0.00000  Uiso   1.00
O264   O     0.47973   0.50001   0.17451   0.00000  Uiso   1.00
O265   O     0.55892   0.50002   0.17451   0.00000  Uiso   1.00
H266   H     0.61533   0.51655   0.08601   0.00000  Uiso   1.00
H267   H     0.42924   0.37239   0.30471   0.00000  Uiso   1.00
Cl268  Cl    0.41072   0.62179   0.32574   0.00000  Uiso   1.00
Cl269  Cl    0.59596   0.56148   0.32427   0.00000  Uiso   1.00
H270   H     0.36253   0.54620   0.30809   0.00000  Uiso   1.00
Cl271  Cl    0.40405   0.43865   0.17555   0.00000  Uiso   1.00
H272   H     0.63718   0.45320   0.19256   0.00000  Uiso   1.00
H273   H     0.62184   0.48870   0.41271   0.00000  Uiso   1.00
H274   H     0.63931   0.51259   0.49173   0.00000  Uiso   1.00
H275   H     0.46821   0.48755   0.09011   0.00000  Uiso   1.00
H276   H     0.38811   0.46786   0.40857   0.00000  Uiso   1.00
H277   H     0.42423   0.45739   0.05034   0.00000  Uiso   1.00
Cl278  Cl    0.34718   0.43538   0.00990   0.00000  Uiso   1.00
H279   H     0.56528   0.46912   0.36705   0.00000  Uiso   1.00
Cl280  Cl    0.59061   0.62039   0.17636   0.00000  Uiso   1.00
C281   C     0.83341   0.57928   0.25026   0.00000  Uiso   1.00
C282   C     0.81767   0.47799   0.48590   0.00000  Uiso   1.00
C283   C     0.83268   0.48003   0.43129   0.00000  Uiso   1.00
C284   C     0.85207   0.48723   0.01378   0.00000  Uiso   1.00
C285   C     0.90144   0.49414   0.48651   0.00000  Uiso   1.00
C286   C     0.91689   0.48752   0.43350   0.00000  Uiso   1.00
C287   C     0.88329   0.47878   0.40662   0.00000  Uiso   1.00
C288   C     0.83879   0.49114   0.06775   0.00000  Uiso   1.00
C289   C     0.92160   0.50848   0.06630   0.00000  Uiso   1.00
C290   C     0.79652   0.48193   0.40390   0.00000  Uiso   1.00
C291   C     0.87372   0.64553   0.21890   0.00000  Uiso   1.00
C292   C     0.80832   0.49467   0.34911   0.00000  Uiso   1.00
C293   C     0.87348   0.35500   0.21935   0.00000  Uiso   1.00
C294   C     0.83322   0.37642   0.24965   0.00000  Uiso   1.00
C295   C     0.79328   0.35545   0.28049   0.00000  Uiso   1.00
C296   C     0.79350   0.64604   0.28182   0.00000  Uiso   1.00
C297   C     0.83361   0.62406   0.25041   0.00000  Uiso   1.00
C298   C     0.96757   0.52615   0.28211   0.00000  Uiso   1.00
C299   C     0.68357   0.52577   0.28218   0.00000  Uiso   1.00
C300   C     0.69908   0.47385   0.21786   0.00000  Uiso   1.00
C301   C     0.98299   0.47400   0.21805   0.00000  Uiso   1.00
C302   C     0.83329   0.42085   0.24973   0.00000  Uiso   1.00
C303   C     0.85900   0.50060   0.15033   0.00000  Uiso   1.00
C304   C     0.93529   0.50605   0.01272   0.00000  Uiso   1.00
C305   C     0.87350   0.50026   0.09398   0.00000  Uiso   1.00
C306   C     0.74873   0.47019   0.42939   0.00000  Uiso   1.00
C307   C     0.73652   0.45904   0.48118   0.00000  Uiso   1.00
C308   C     0.76957   0.46521   0.00999   0.00000  Uiso   1.00
Cu309  Cu    0.78645   0.49999   0.25000   0.00000  Uiso   1.00
Cu310  Cu    0.88022   0.50001   0.25000   0.00000  Uiso   1.00
H311   H     0.90421   0.37159   0.19512   0.00000  Uiso   1.00
N312   N     0.71598   0.49999   0.24998   0.00000  Uiso   1.00
N313   N     0.95069   0.50002   0.24999   0.00000  Uiso   1.00
O314   O     0.79375   0.56011   0.25000   0.00000  Uiso   1.00
O315   O     0.87294   0.56012   0.25000   0.00000  Uiso   1.00
O316   O     0.77441   0.49998   0.32549   0.00000  Uiso   1.00
O317   O     0.85360   0.49999   0.32549   0.00000  Uiso   1.00
O318   O     0.79373   0.43988   0.24999   0.00000  Uiso   1.00
O319   O     0.87292   0.43989   0.24999   0.00000  Uiso   1.00
O320   O     0.81306   0.50001   0.17451   0.00000  Uiso   1.00
O321   O     0.89225   0.50002   0.17451   0.00000  Uiso   1.00
H322   H     0.94866   0.51655   0.08601   0.00000  Uiso   1.00
H323   H     0.76258   0.37239   0.30471   0.00000  Uiso   1.00
Cl324  Cl    0.74406   0.62179   0.32574   0.00000  Uiso   1.00
Cl325  Cl    0.92929   0.56148   0.32427   0.00000  Uiso   1.00
H326   H     0.69586   0.54620   0.30809   0.00000  Uiso   1.00
Cl327  Cl    0.73738   0.43865   0.17555   0.00000  Uiso   1.00
H328   H     0.97051   0.45320   0.19256   0.00000  Uiso   1.00
H329   H     0.95517   0.48870   0.41271   0.00000  Uiso   1.00
H330   H     0.97264   0.51259   0.49173   0.00000  Uiso   1.00
H331   H     0.80154   0.48755   0.09011   0.00000  Uiso   1.00
H332   H     0.72144   0.46786   0.40857   0.00000  Uiso   1.00
H333   H     0.75757   0.45739   0.05034   0.00000  Uiso   1.00
Cl334  Cl    0.68051   0.43538   0.00990   0.00000  Uiso   1.00
H335   H     0.89861   0.46912   0.36705   0.00000  Uiso   1.00
Cl336  Cl    0.92395   0.62039   0.17636   0.00000  Uiso   1.00
C337   C     0.16674   0.91261   0.25026   0.00000  Uiso   1.00
C338   C     0.15100   0.81133   0.48590   0.00000  Uiso   1.00
C339   C     0.16602   0.81336   0.43129   0.00000  Uiso   1.00
C340   C     0.18541   0.82056   0.01378   0.00000  Uiso   1.00
C341   C     0.23478   0.82747   0.48651   0.00000  Uiso   1.00
C342   C     0.25022   0.82085   0.43350   0.00000  Uiso   1.00
C343   C     0.21662   0.81212   0.40662   0.00000  Uiso   1.00
C344   C     0.17212   0.82448   0.06775   0.00000  Uiso   1.00
C345   C     0.25493   0.84181   0.06630   0.00000  Uiso   1.00
C346   C     0.12985   0.81526   0.40390   0.00000  Uiso   1.00
C347   C     0.20705   0.97887   0.21890   0.00000  Uiso   1.00
C348   C     0.14165   0.82800   0.34911   0.00000  Uiso   1.00
C349   C     0.20681   0.68833   0.21935   0.00000  Uiso   1.00
C350   C     0.16656   0.70975   0.24965   0.00000  Uiso   1.00
C351   C     0.12661   0.68878   0.28049   0.00000  Uiso   1.00
C352   C     0.12683   0.97938   0.28182   0.00000  Uiso   1.00
C353   C     0.16694   0.95739   0.25041   0.00000  Uiso   1.00
C354   C     0.30090   0.85948   0.28211   0.00000  Uiso   1.00
C355   C     0.01690   0.85910   0.28218   0.00000  Uiso   1.00
C356   C     0.03241   0.80718   0.21786   0.00000  Uiso   1.00
C357   C     0.31632   0.80734   0.21805   0.00000  Uiso   1.00
C358   C     0.16663   0.75418   0.24973   0.00000  Uiso   1.00
C359   C     0.19233   0.83394   0.15033   0.00000  Uiso   1.00
C360   C     0.26862   0.83938   0.01272   0.00000  Uiso   1.00
C361   C     0.20683   0.83360   0.09398   0.00000  Uiso   1.00
C362   C     0.08206   0.80353   0.42939   0.00000  Uiso   1.00
C363   C     0.06986   0.79237   0.48118   0.00000  Uiso   1.00
C364   C     0.10290   0.79854   0.00999   0.00000  Uiso   1.00
Cu365  Cu    0.11978   0.83333   0.25000   0.00000  Uiso   1.00
Cu366  Cu    0.21355   0.83334   0.25000   0.00000  Uiso   1.00
H367   H     0.23754   0.70492   0.19512   0.00000  Uiso   1.00
N368   N     0.04931   0.83332   0.24998   0.00000  Uiso   1.00
N369   N     0.28402   0.83335   0.24999   0.00000  Uiso   1.00
O370   O     0.12708   0.89345   0.25000   0.00000  Uiso   1.00
O371   O     0.20627   0.89346   0.25000   0.00000  Uiso   1.00
O372   O     0.10775   0.83332   0.32549   0.00000  Uiso   1.00
O373   O     0.18694   0.83333   0.32549   0.00000  Uiso   1.00
O374   O     0.12706   0.77321   0.24999   0.00000  Uiso   1.00
O375   O     0.20625   0.77322   0.24999   0.00000  Uiso   1.00
O376   O     0.14640   0.83334   0.17451   0.00000  Uiso   1.00
O377   O     0.22559   0.83335   0.17451   0.00000  Uiso   1.00
H378   H     0.28199   0.84989   0.08601   0.00000  Uiso   1.00
H379   H     0.09591   0.70573   0.30471   0.00000  Uiso   1.00
Cl380  Cl    0.07739   0.95512   0.32574   0.00000  Uiso   1.00
Cl381  Cl    0.26263   0.89481   0.32427   0.00000  Uiso   1.00
H382   H     0.02920   0.87953   0.30809   0.00000  Uiso   1.00
Cl383  Cl    0.07071   0.77198   0.17555   0.00000  Uiso   1.00
H384   H     0.30385   0.78653   0.19256   0.00000  Uiso   1.00
H385   H     0.28850   0.82203   0.41271   0.00000  Uiso   1.00
H386   H     0.30598   0.84592   0.49173   0.00000  Uiso   1.00
H387   H     0.13488   0.82088   0.09011   0.00000  Uiso   1.00
H388   H     0.05477   0.80120   0.40857   0.00000  Uiso   1.00
H389   H     0.09090   0.79072   0.05034   0.00000  Uiso   1.00
Cl390  Cl    0.01384   0.76871   0.00990   0.00000  Uiso   1.00
H391   H     0.23194   0.80245   0.36705   0.00000  Uiso   1.00
Cl392  Cl    0.25728   0.95372   0.17636   0.00000  Uiso   1.00
C393   C     0.50007   0.91261   0.25026   0.00000  Uiso   1.00
C394   C     0.48434   0.81133   0.48590   0.00000  Uiso   1.00
C395   C     0.49935   0.81336   0.43129   0.00000  Uiso   1.00
C396   C     0.51874   0.82056   0.01378   0.00000  Uiso   1.00
C397   C     0.56811   0.82747   0.48651   0.00000  Uiso   1.00
C398   C     0.58356   0.82085   0.43350   0.00000  Uiso   1.00
C399   C     0.54995   0.81212   0.40662   0.00000  Uiso   1.00
C400   C     0.50546   0.82448   0.06775   0.00000  Uiso   1.00
C401   C     0.58827   0.84181   0.06630   0.00000  Uiso   1.00
C402   C     0.46319   0.81526   0.40390   0.00000  Uiso   1.00
C403   C     0.54038   0.97887   0.21890   0.00000  Uiso   1.00
C404   C     0.47499   0.82800   0.34911   0.00000  Uiso   1.00
C405   C     0.54015   0.68833   0.21935   0.00000  Uiso   1.00
C406   C     0.49989   0.70975   0.24965   0.00000  Uiso   1.00
C407   C     0.45994   0.68878   0.28049   0.00000  Uiso   1.00
C408   C     0.46016   0.97938   0.28182   0.00000  Uiso   1.00
C409   C     0.50028   0.95739   0.25041   0.00000  Uiso   1.00
C410   C     0.63424   0.85948   0.28211   0.00000  Uiso   1.00
C411   C     0.35024   0.85910   0.28218   0.00000  Uiso   1.00
C412   C     0.36575   0.80718   0.21786   0.00000  Uiso   1.00
C413   C     0.64965   0.80734   0.21805   0.00000  Uiso   1.00
C414   C     0.49996   0.75418   0.24973   0.00000  Uiso   1.00
C415   C     0.52567   0.83394   0.15033   0.00000  Uiso   1.00
C416   C     0.60195   0.83938   0.01272   0.00000  Uiso   1.00
C417   C     0.54017   0.83360   0.09398   0.00000  Uiso   1.00
C418   C     0.41540   0.80353   0.42939   0.00000  Uiso   1.00
C419   C     0.40319   0.79237   0.48118   0.00000  Uiso   1.00
C420   C     0.43623   0.79854   0.00999   0.00000  Uiso   1.00
Cu421  Cu    0.45311   0.83333   0.25000   0.00000  Uiso   1.00
Cu422  Cu    0.54689   0.83334   0.25000   0.00000  Uiso   1.00
H423   H     0.57088   0.70492   0.19512   0.00000  Uiso   1.00
N424   N     0.38265   0.83332   0.24998   0.00000  Uiso   1.00
N425   N     0.61735   0.83335   0.24999   0.00000  Uiso   1.00
O426   O     0.46042   0.89345   0.25000   0.00000  Uiso   1.00
O427   O     0.53961   0.89346   0.25000   0.00000  Uiso   1.00
O428   O     0.44108   0.83332   0.32549   0.00000  Uiso   1.00
O429   O     0.52027   0.83333   0.32549   0.00000  Uiso   1.00
O430   O     0.46039   0.77321   0.24999   0.00000  Uiso   1.00
O431   O     0.53958   0.77322   0.24999   0.00000  Uiso   1.00
O432   O     0.47973   0.83334   0.17451   0.00000  Uiso   1.00
O433   O     0.55892   0.83335   0.17451   0.00000  Uiso   1.00
H434   H     0.61533   0.84989   0.08601   0.00000  Uiso   1.00
H435   H     0.42924   0.70573   0.30471   0.00000  Uiso   1.00
Cl436  Cl    0.41072   0.95512   0.32574   0.00000  Uiso   1.00
Cl437  Cl    0.59596   0.89481   0.32427   0.00000  Uiso   1.00
H438   H     0.36253   0.87953   0.30809   0.00000  Uiso   1.00
Cl439  Cl    0.40405   0.77198   0.17555   0.00000  Uiso   1.00
H440   H     0.63718   0.78653   0.19256   0.00000  Uiso   1.00
H441   H     0.62184   0.82203   0.41271   0.00000  Uiso   1.00
H442   H     0.63931   0.84592   0.49173   0.00000  Uiso   1.00
H443   H     0.46821   0.82088   0.09011   0.00000  Uiso   1.00
H444   H     0.38811   0.80120   0.40857   0.00000  Uiso   1.00
H445   H     0.42423   0.79072   0.05034   0.00000  Uiso   1.00
Cl446  Cl    0.34718   0.76871   0.00990   0.00000  Uiso   1.00
H447   H     0.56528   0.80245   0.36705   0.00000  Uiso   1.00
Cl448  Cl    0.59061   0.95372   0.17636   0.00000  Uiso   1.00
C449   C     0.83341   0.91261   0.25026   0.00000  Uiso   1.00
C450   C     0.81767   0.81133   0.48590   0.00000  Uiso   1.00
C451   C     0.83268   0.81336   0.43129   0.00000  Uiso   1.00
C452   C     0.85207   0.82056   0.01378   0.00000  Uiso   1.00
C453   C     0.90144   0.82747   0.48651   0.00000  Uiso   1.00
C454   C     0.91689   0.82085   0.43350   0.00000  Uiso   1.00
C455   C     0.88329   0.81212   0.40662   0.00000  Uiso   1.00
C456   C     0.83879   0.82448   0.06775   0.00000  Uiso   1.00
C457   C     0.92160   0.84181   0.06630   0.00000  Uiso   1.00
C458   C     0.79652   0.81526   0.40390   0.00000  Uiso   1.00
C459   C     0.87372   0.97887   0.21890   0.00000  Uiso   1.00
C460   C     0.80832   0.82800   0.34911   0.00000  Uiso   1.00
C461   C     0.87348   0.68833   0.21935   0.00000  Uiso   1.00
C462   C     0.83322   0.70975   0.24965   0.00000  Uiso   1.00
C463   C     0.79328   0.68878   0.28049   0.00000  Uiso   1.00
C464   C     0.79350   0.97938   0.28182   0.00000  Uiso   1.00
C465   C     0.83361   0.95739   0.25041   0.00000  Uiso   1.00
C466   C     0.96757   0.85948   0.28211   0.00000  Uiso   1.00
C467   C     0.68357   0.85910   0.28218   0.00000  Uiso   1.00
C468   C     0.69908   0.80718   0.21786   0.00000  Uiso   1.00
C469   C     0.98299   0.80734   0.21805   0.00000  Uiso   1.00
C470   C     0.83329   0.75418   0.24973   0.00000  Uiso   1.00
C471   C     0.85900   0.83394   0.15033   0.00000  Uiso   1.00
C472   C     0.93529   0.83938   0.01272   0.00000  Uiso   1.00
C473   C     0.87350   0.83360   0.09398   0.00000  Uiso   1.00
C474   C     0.74873   0.80353   0.42939   0.00000  Uiso   1.00
C475   C     0.73652   0.79237   0.48118   0.00000  Uiso   1.00
C476   C     0.76957   0.79854   0.00999   0.00000  Uiso   1.00
Cu477  Cu    0.78645   0.83333   0.25000   0.00000  Uiso   1.00
Cu478  Cu    0.88022   0.83334   0.25000   0.00000  Uiso   1.00
H479   H     0.90421   0.70492   0.19512   0.00000  Uiso   1.00
N480   N     0.71598   0.83332   0.24998   0.00000  Uiso   1.00
N481   N     0.95069   0.83335   0.24999   0.00000  Uiso   1.00
O482   O     0.79375   0.89345   0.25000   0.00000  Uiso   1.00
O483   O     0.87294   0.89346   0.25000   0.00000  Uiso   1.00
O484   O     0.77441   0.83332   0.32549   0.00000  Uiso   1.00
O485   O     0.85360   0.83333   0.32549   0.00000  Uiso   1.00
O486   O     0.79373   0.77321   0.24999   0.00000  Uiso   1.00
O487   O     0.87292   0.77322   0.24999   0.00000  Uiso   1.00
O488   O     0.81306   0.83334   0.17451   0.00000  Uiso   1.00
O489   O     0.89225   0.83335   0.17451   0.00000  Uiso   1.00
H490   H     0.94866   0.84989   0.08601   0.00000  Uiso   1.00
H491   H     0.76258   0.70573   0.30471   0.00000  Uiso   1.00
Cl492  Cl    0.74406   0.95512   0.32574   0.00000  Uiso   1.00
Cl493  Cl    0.92929   0.89481   0.32427   0.00000  Uiso   1.00
H494   H     0.69586   0.87953   0.30809   0.00000  Uiso   1.00
Cl495  Cl    0.73738   0.77198   0.17555   0.00000  Uiso   1.00
H496   H     0.97051   0.78653   0.19256   0.00000  Uiso   1.00
H497   H     0.95517   0.82203   0.41271   0.00000  Uiso   1.00
H498   H     0.97264   0.84592   0.49173   0.00000  Uiso   1.00
H499   H     0.80154   0.82088   0.09011   0.00000  Uiso   1.00
H500   H     0.72144   0.80120   0.40857   0.00000  Uiso   1.00
H501   H     0.75757   0.79072   0.05034   0.00000  Uiso   1.00
Cl502  Cl    0.68051   0.76871   0.00990   0.00000  Uiso   1.00
H503   H     0.89861   0.80245   0.36705   0.00000  Uiso   1.00
Cl504  Cl    0.92395   0.95372   0.17636   0.00000  Uiso   1.00
C505   C     0.16674   0.24595   0.75026   0.00000  Uiso   1.00
C506   C     0.15100   0.14466   0.98590   0.00000  Uiso   1.00
C507   C     0.16602   0.14670   0.93129   0.00000  Uiso   1.00
C508   C     0.18541   0.15389   0.51378   0.00000  Uiso   1.00
C509   C     0.23478   0.16080   0.98651   0.00000  Uiso   1.00
C510   C     0.25022   0.15419   0.93350   0.00000  Uiso   1.00
C511   C     0.21662   0.14545   0.90662   0.00000  Uiso   1.00
C512   C     0.17212   0.15781   0.56775   0.00000  Uiso   1.00
C513   C     0.25493   0.17515   0.56630   0.00000  Uiso   1.00
C514   C     0.12985   0.14859   0.90390   0.00000  Uiso   1.00
C515   C     0.20705   0.31220   0.71890   0.00000  Uiso   1.00
C516   C     0.14165   0.16134   0.84911   0.00000  Uiso   1.00
C517   C     0.20681   0.02166   0.71935   0.00000  Uiso   1.00
C518   C     0.16656   0.04308   0.74965   0.00000  Uiso   1.00
C519   C     0.12661   0.02211   0.78049   0.00000  Uiso   1.00
C520   C     0.12683   0.31271   0.78182   0.00000  Uiso   1.00
C521   C     0.16694   0.29073   0.75041   0.00000  Uiso   1.00
C522   C     0.30090   0.19282   0.78211   0.00000  Uiso   1.00
C523   C     0.01690   0.19244   0.78218   0.00000  Uiso   1.00
C524   C     0.03241   0.14052   0.71786   0.00000  Uiso   1.00
C525   C     0.31632   0.14067   0.71805   0.00000  Uiso   1.00
C526   C     0.16663   0.08751   0.74973   0.00000  Uiso   1.00
C527   C     0.19233   0.16727   0.65033   0.00000  Uiso   1.00
C528   C     0.26862   0.17271   0.51272   0.00000  Uiso   1.00
C529   C     0.20683   0.16693   0.59398   0.00000  Uiso   1.00
C530   C     0.08206   0.13686   0.92939   0.00000  Uiso   1.00
C531   C     0.06986   0.12571   0.98118   0.00000  Uiso   1.00
C532   C     0.10290   0.13187   0.50999   0.00000  Uiso   1.00
Cu533  Cu    0.11978   0.16666   0.75000   0.00000  Uiso   1.00
Cu534  Cu    0.21355   0.16667   0.75000   0.00000  Uiso   1.00
H535   H     0.23754   0.03825   0.69512   0.00000  Uiso   1.00
N536   N     0.04931   0.16666   0.74998   0.00000  Uiso   1.00
N537   N     0.28402   0.16669   0.74999   0.00000  Uiso   1.00
O538   O     0.12708   0.22678   0.75000   0.00000  Uiso   1.00
O539   O     0.20627   0.22679   0.75000   0.00000  Uiso   1.00
O540   O     0.10775   0.16665   0.82549   0.00000  Uiso   1.00
O541   O     0.18694   0.16666   0.82549   0.00000  Uiso   1.00
O542   O     0.12706   0.10654   0.74999   0.00000  Uiso   1.00
O543   O     0.20625   0.10655   0.74999   0.00000  Uiso   1.00
O544   O     0.14640   0.16667   0.67451   0.00000  Uiso   1.00
O545   O     0.22559   0.16668   0.67451   0.00000  Uiso   1.00
H546   H     0.28199   0.18322   0.58601   0.00000  Uiso   1.00
H547   H     0.09591   0.03906   0.80471   0.00000  Uiso   1.00
Cl548  Cl    0.07739   0.28845   0.82574   0.00000  Uiso   1.00
Cl549  Cl    0.26263   0.22814   0.82427   0.00000  Uiso   1.00
H550   H     0.02920   0.21286   0.80809   0.00000  Uiso   1.00
Cl551  Cl    0.07071   0.10532   0.67555   0.00000  Uiso   1.00
H552   H     0.30385   0.11986   0.69256   0.00000  Uiso   1.00
H553   H     0.28850   0.15536   0.91271   0.00000  Uiso   1.00
H554   H     0.30598   0.17926   0.99173   0.00000  Uiso   1.00
H555   H     0.13488   0.15422   0.59011   0.00000  Uiso   1.00
H556   H     0.05477   0.13453   0.90857   0.00000  Uiso   1.00
H557   H     0.09090   0.12405   0.55034   0.00000  Uiso   1.00
Cl558  Cl    0.01384   0.10204   0.50990   0.00000  Uiso   1.00
H559   H     0.23194   0.13578   0.86705   0.00000  Uiso   1.00
Cl560  Cl    0.25728   0.28705   0.67636   0.00000  Uiso   1.00
C561   C     0.50007   0.24595   0.75026   0.00000  Uiso   1.00
C562   C     0.48434   0.14466   0.98590   0.00000  Uiso   1.00
C563   C     0.49935   0.14670   0.93129   0.00000  Uiso   1.00
C564   C     0.51874   0.15389   0.51378   0.00000  Uiso   1.00
C565   C     0.56811   0.16080   0.98651   0.00000  Uiso   1.00
C566   C     0.58356   0.15419   0.93350   0.00000  Uiso   1.00
C567   C     0.54995   0.14545   0.90662   0.00000  Uiso   1.00
C568   C     0.50546   0.15781   0.56775   0.00000  Uiso   1.00
C569   C     0.58827   0.17515   0.56630   0.00000  Uiso   1.00
C570   C     0.46319   0.14859   0.90390   0.00000  Uiso   1.00
C571   C     0.54038   0.31220   0.71890   0.00000  Uiso   1.00
C572   C     0.47499   0.16134   0.84911   0.00000  Uiso   1.00
C573   C     0.54015   0.02166   0.71935   0.00000  Uiso   1.00
C574   C     0.49989   0.04308   0.74965   0.00000  Uiso   1.00
C575   C     0.45994   0.02211   0.78049   0.00000  Uiso   1.00
C576   C     0.46016   0.31271   0.78182   0.00000  Uiso   1.00
C577   C     0.50028   0.29073   0.75041   0.00000  Uiso   1.00
C578   C     0.63424   0.19282   0.78211   0.00000  Uiso   1.00
C579   C     0.35024   0.19244   0.78218   0.00000  Uiso   1.00
C580   C     0.36575   0.14052   0.71786   0.00000  Uiso   1.00
C581   C     0.64965   0.14067   0.71805   0.00000  Uiso   1.00
C582   C     0.49996   0.08751   0.74973   0.00000  Uiso   1.00
C583   C     0.52567   0.16727   0.65033   0.00000  Uiso   1.00
C584   C     0.60195   0.17271   0.51272   0.00000  Uiso   1.00
C585   C     0.54017   0.16693   0.59398   0.00000  Uiso   1.00
C586   C     0.41540   0.13686   0.92939   0.00000  Uiso   1.00
C587   C     0.40319   0.12571   0.98118   0.00000  Uiso   1.00
C588   C     0.43623   0.13187   0.50999   0.00000  Uiso   1.00
Cu589  Cu    0.45311   0.16666   0.75000   0.00000  Uiso   1.00
Cu590  Cu    0.54689   0.16667   0.75000   0.00000  Uiso   1.00
H591   H     0.57088   0.03825   0.69512   0.00000  Uiso   1.00
N592   N     0.38265   0.16666   0.74998   0.00000  Uiso   1.00
N593   N     0.61735   0.16669   0.74999   0.00000  Uiso   1.00
O594   O     0.46042   0.22678   0.75000   0.00000  Uiso   1.00
O595   O     0.53961   0.22679   0.75000   0.00000  Uiso   1.00
O596   O     0.44108   0.16665   0.82549   0.00000  Uiso   1.00
O597   O     0.52027   0.16666   0.82549   0.00000  Uiso   1.00
O598   O     0.46039   0.10654   0.74999   0.00000  Uiso   1.00
O599   O     0.53958   0.10655   0.74999   0.00000  Uiso   1.00
O600   O     0.47973   0.16667   0.67451   0.00000  Uiso   1.00
O601   O     0.55892   0.16668   0.67451   0.00000  Uiso   1.00
H602   H     0.61533   0.18322   0.58601   0.00000  Uiso   1.00
H603   H     0.42924   0.03906   0.80471   0.00000  Uiso   1.00
Cl604  Cl    0.41072   0.28845   0.82574   0.00000  Uiso   1.00
Cl605  Cl    0.59596   0.22814   0.82427   0.00000  Uiso   1.00
H606   H     0.36253   0.21286   0.80809   0.00000  Uiso   1.00
Cl607  Cl    0.40405   0.10532   0.67555   0.00000  Uiso   1.00
H608   H     0.63718   0.11986   0.69256   0.00000  Uiso   1.00
H609   H     0.62184   0.15536   0.91271   0.00000  Uiso   1.00
H610   H     0.63931   0.17926   0.99173   0.00000  Uiso   1.00
H611   H     0.46821   0.15422   0.59011   0.00000  Uiso   1.00
H612   H     0.38811   0.13453   0.90857   0.00000  Uiso   1.00
H613   H     0.42423   0.12405   0.55034   0.00000  Uiso   1.00
Cl614  Cl    0.34718   0.10204   0.50990   0.00000  Uiso   1.00
H615   H     0.56528   0.13578   0.86705   0.00000  Uiso   1.00
Cl616  Cl    0.59061   0.28705   0.67636   0.00000  Uiso   1.00
C617   C     0.83341   0.24595   0.75026   0.00000  Uiso   1.00
C618   C     0.81767   0.14466   0.98590   0.00000  Uiso   1.00
C619   C     0.83268   0.14670   0.93129   0.00000  Uiso   1.00
C620   C     0.85207   0.15389   0.51378   0.00000  Uiso   1.00
C621   C     0.90144   0.16080   0.98651   0.00000  Uiso   1.00
C622   C     0.91689   0.15419   0.93350   0.00000  Uiso   1.00
C623   C     0.88329   0.14545   0.90662   0.00000  Uiso   1.00
C624   C     0.83879   0.15781   0.56775   0.00000  Uiso   1.00
C625   C     0.92160   0.17515   0.56630   0.00000  Uiso   1.00
C626   C     0.79652   0.14859   0.90390   0.00000  Uiso   1.00
C627   C     0.87372   0.31220   0.71890   0.00000  Uiso   1.00
C628   C     0.80832   0.16134   0.84911   0.00000  Uiso   1.00
C629   C     0.87348   0.02166   0.71935   0.00000  Uiso   1.00
C630   C     0.83322   0.04308   0.74965   0.00000  Uiso   1.00
C631   C     0.79328   0.02211   0.78049   0.00000  Uiso   1.00
C632   C     0.79350   0.31271   0.78182   0.00000  Uiso   1.00
C633   C     0.83361   0.29073   0.75041   0.00000  Uiso   1.00
C634   C     0.96757   0.19282   0.78211   0.00000  Uiso   1.00
C635   C     0.68357   0.19244   0.78218   0.00000  Uiso   1.00
C636   C     0.69908   0.14052   0.71786   0.00000  Uiso   1.00
C637   C     0.98299   0.14067   0.71805   0.00000  Uiso   1.00
C638   C     0.83329   0.08751   0.74973   0.00000  Uiso   1.00
C639   C     0.85900   0.16727   0.65033   0.00000  Uiso   1.00
C640   C     0.93529   0.17271   0.51272   0.00000  Uiso   1.00
C641   C     0.87350   0.16693   0.59398   0.00000  Uiso   1.00
C642   C     0.74873   0.13686   0.92939   0.00000  Uiso   1.00
C643   C     0.73652   0.12571   0.98118   0.00000  Uiso   1.00
C644   C     0.76957   0.13187   0.50999   0.00000  Uiso   1.00
Cu645  Cu    0.78645   0.16666   0.75000   0.00000  Uiso   1.00
Cu646  Cu    0.88022   0.16667   0.75000   0.00000  Uiso   1.00
H647   H     0.90421   0.03825   0.69512   0.00000  Uiso   1.00
N648   N     0.71598   0.16666   0.74998   0.00000  Uiso   1.00
N649   N     0.95069   0.16669   0.74999   0.00000  Uiso   1.00
O650   O     0.79375   0.22678   0.75000   0.00000  Uiso   1.00
O651   O     0.87294   0.22679   0.75000   0.00000  Uiso   1.00
O652   O     0.77441   0.16665   0.82549   0.00000  Uiso   1.00
O653   O     0.85360   0.16666   0.82549   0.00000  Uiso   1.00
O654   O     0.79373   0.10654   0.74999   0.00000  Uiso   1.00
O655   O     0.87292   0.10655   0.74999   0.00000  Uiso   1.00
O656   O     0.81306   0.16667   0.67451   0.00000  Uiso   1.00
O657   O     0.89225   0.16668   0.67451   0.00000  Uiso   1.00
H658   H     0.94866   0.18322   0.58601   0.00000  Uiso   1.00
H659   H     0.76258   0.03906   0.80471   0.00000  Uiso   1.00
Cl660  Cl    0.74406   0.28845   0.82574   0.00000  Uiso   1.00
Cl661  Cl    0.92929   0.22814   0.82427   0.00000  Uiso   1.00
H662   H     0.69586   0.21286   0.80809   0.00000  Uiso   1.00
Cl663  Cl    0.73738   0.10532   0.67555   0.00000  Uiso   1.00
H664   H     0.97051   0.11986   0.69256   0.00000  Uiso   1.00
H665   H     0.95517   0.15536   0.91271   0.00000  Uiso   1.00
H666   H     0.97264   0.17926   0.99173   0.00000  Uiso   1.00
H667   H     0.80154   0.15422   0.59011   0.00000  Uiso   1.00
H668   H     0.72144   0.13453   0.90857   0.00000  Uiso   1.00
H669   H     0.75757   0.12405   0.55034   0.00000  Uiso   1.00
Cl670  Cl    0.68051   0.10204   0.50990   0.00000  Uiso   1.00
H671   H     0.89861   0.13578   0.86705   0.00000  Uiso   1.00
Cl672  Cl    0.92395   0.28705   0.67636   0.00000  Uiso   1.00
C673   C     0.16674   0.57928   0.75026   0.00000  Uiso   1.00
C674   C     0.15100   0.47799   0.98590   0.00000  Uiso   1.00
C675   C     0.16602   0.48003   0.93129   0.00000  Uiso   1.00
C676   C     0.18541   0.48723   0.51378   0.00000  Uiso   1.00
C677   C     0.23478   0.49414   0.98651   0.00000  Uiso   1.00
C678   C     0.25022   0.48752   0.93350   0.00000  Uiso   1.00
C679   C     0.21662   0.47878   0.90662   0.00000  Uiso   1.00
C680   C     0.17212   0.49114   0.56775   0.00000  Uiso   1.00
C681   C     0.25493   0.50848   0.56630   0.00000  Uiso   1.00
C682   C     0.12985   0.48193   0.90390   0.00000  Uiso   1.00
C683   C     0.20705   0.64553   0.71890   0.00000  Uiso   1.00
C684   C     0.14165   0.49467   0.84911   0.00000  Uiso   1.00
C685   C     0.20681   0.35500   0.71935   0.00000  Uiso   1.00
C686   C     0.16656   0.37642   0.74965   0.00000  Uiso   1.00
C687   C     0.12661   0.35545   0.78049   0.00000  Uiso   1.00
C688   C     0.12683   0.64604   0.78182   0.00000  Uiso   1.00
C689   C     0.16694   0.62406   0.75041   0.00000  Uiso   1.00
C690   C     0.30090   0.52615   0.78211   0.00000  Uiso   1.00
C691   C     0.01690   0.52577   0.78218   0.00000  Uiso   1.00
C692   C     0.03241   0.47385   0.71786   0.00000  Uiso   1.00
C693   C     0.31632   0.47400   0.71805   0.00000  Uiso   1.00
C694   C     0.16663   0.42085   0.74973   0.00000  Uiso   1.00
C695   C     0.19233   0.50060   0.65033   0.00000  Uiso   1.00
C696   C     0.26862   0.50605   0.51272   0.00000  Uiso   1.00
C697   C     0.20683   0.50026   0.59398   0.00000  Uiso   1.00
C698   C     0.08206   0.47019   0.92939   0.00000  Uiso   1.00
C699   C     0.06986   0.45904   0.98118   0.00000  Uiso   1.00
C700   C     0.10290   0.46521   0.50999   0.00000  Uiso   1.00
Cu701  Cu    0.11978   0.49999   0.75000   0.00000  Uiso   1.00
Cu702  Cu    0.21355   0.50001   0.75000   0.00000  Uiso   1.00
H703   H     0.23754   0.37159   0.69512   0.00000  Uiso   1.00
N704   N     0.04931   0.49999   0.74998   0.00000  Uiso   1.00
N705   N     0.28402   0.50002   0.74999   0.00000  Uiso   1.00
O706   O     0.12708   0.56011   0.75000   0.00000  Uiso   1.00
O707   O     0.20627   0.56012   0.75000   0.00000  Uiso   1.00
O708   O     0.10775   0.49998   0.82549   0.00000  Uiso   1.00
O709   O     0.18694   0.49999   0.82549   0.00000  Uiso   1.00
O710   O     0.12706   0.43988   0.74999   0.00000  Uiso   1.00
O711   O     0.20625   0.43989   0.74999   0.00000  Uiso   1.00
O712   O     0.14640   0.50001   0.67451   0.00000  Uiso   1.00
O713   O     0.22559   0.50002   0.67451   0.00000  Uiso   1.00
H714   H     0.28199   0.51655   0.58601   0.00000  Uiso   1.00
H715   H     0.09591   0.37239   0.80471   0.00000  Uiso   1.00
Cl716  Cl    0.07739   0.62179   0.82574   0.00000  Uiso   1.00
Cl717  Cl    0.26263   0.56148   0.82427   0.00000  Uiso   1.00
H718   H     0.02920   0.54620   0.80809   0.00000  Uiso   1.00
Cl719  Cl    0.07071   0.43865   0.67555   0.00000  Uiso   1.00
H720   H     0.30385   0.45320   0.69256   0.00000  Uiso   1.00
H721   H     0.28850   0.48870   0.91271   0.00000  Uiso   1.00
H722   H     0.30598   0.51259   0.99173   0.00000  Uiso   1.00
H723   H     0.13488   0.48755   0.59011   0.00000  Uiso   1.00
H724   H     0.05477   0.46786   0.90857   0.00000  Uiso   1.00
H725   H     0.09090   0.45739   0.55034   0.00000  Uiso   1.00
Cl726  Cl    0.01384   0.43538   0.50990   0.00000  Uiso   1.00
H727   H     0.23194   0.46912   0.86705   0.00000  Uiso   1.00
Cl728  Cl    0.25728   0.62039   0.67636   0.00000  Uiso   1.00
C729   C     0.50007   0.57928   0.75026   0.00000  Uiso   1.00
C730   C     0.48434   0.47799   0.98590   0.00000  Uiso   1.00
C731   C     0.49935   0.48003   0.93129   0.00000  Uiso   1.00
C732   C     0.51874   0.48723   0.51378   0.00000  Uiso   1.00
C733   C     0.56811   0.49414   0.98651   0.00000  Uiso   1.00
C734   C     0.58356   0.48752   0.93350   0.00000  Uiso   1.00
C735   C     0.54995   0.47878   0.90662   0.00000  Uiso   1.00
C736   C     0.50546   0.49114   0.56775   0.00000  Uiso   1.00
C737   C     0.58827   0.50848   0.56630   0.00000  Uiso   1.00
C738   C     0.46319   0.48193   0.90390   0.00000  Uiso   1.00
C739   C     0.54038   0.64553   0.71890   0.00000  Uiso   1.00
C740   C     0.47499   0.49467   0.84911   0.00000  Uiso   1.00
C741   C     0.54015   0.35500   0.71935   0.00000  Uiso   1.00
C742   C     0.49989   0.37642   0.74965   0.00000  Uiso   1.00
C743   C     0.45994   0.35545   0.78049   0.00000  Uiso   1.00
C744   C     0.46016   0.64604   0.78182   0.00000  Uiso   1.00
C745   C     0.50028   0.62406   0.75041   0.00000  Uiso   1.00
C746   C     0.63424   0.52615   0.78211   0.00000  Uiso   1.00
C747   C     0.35024   0.52577   0.78218   0.00000  Uiso   1.00
C748   C     0.36575   0.47385   0.71786   0.00000  Uiso   1.00
C749   C     0.64965   0.47400   0.71805   0.00000  Uiso   1.00
C750   C     0.49996   0.42085   0.74973   0.00000  Uiso   1.00
C751   C     0.52567   0.50060   0.65033   0.00000  Uiso   1.00
C752   C     0.60195   0.50605   0.51272   0.00000  Uiso   1.00
C753   C     0.54017   0.50026   0.59398   0.00000  Uiso   1.00
C754   C     0.41540   0.47019   0.92939   0.00000  Uiso   1.00
C755   C     0.40319   0.45904   0.98118   0.00000  Uiso   1.00
C756   C     0.43623   0.46521   0.50999   0.00000  Uiso   1.00
Cu757  Cu    0.45311   0.49999   0.75000   0.00000  Uiso   1.00
Cu758  Cu    0.54689   0.50001   0.75000   0.00000  Uiso   1.00
H759   H     0.57088   0.37159   0.69512   0.00000  Uiso   1.00
N760   N     0.38265   0.49999   0.74998   0.00000  Uiso   1.00
N761   N     0.61735   0.50002   0.74999   0.00000  Uiso   1.00
O762   O     0.46042   0.56011   0.75000   0.00000  Uiso   1.00
O763   O     0.53961   0.56012   0.75000   0.00000  Uiso   1.00
O764   O     0.44108   0.49998   0.82549   0.00000  Uiso   1.00
O765   O     0.52027   0.49999   0.82549   0.00000  Uiso   1.00
O766   O     0.46039   0.43988   0.74999   0.00000  Uiso   1.00
O767   O     0.53958   0.43989   0.74999   0.00000  Uiso   1.00
O768   O     0.47973   0.50001   0.67451   0.00000  Uiso   1.00
O769   O     0.55892   0.50002   0.67451   0.00000  Uiso   1.00
H770   H     0.61533   0.51655   0.58601   0.00000  Uiso   1.00
H771   H     0.42924   0.37239   0.80471   0.00000  Uiso   1.00
Cl772  Cl    0.41072   0.62179   0.82574   0.00000  Uiso   1.00
Cl773  Cl    0.59596   0.56148   0.82427   0.00000  Uiso   1.00
H774   H     0.36253   0.54620   0.80809   0.00000  Uiso   1.00
Cl775  Cl    0.40405   0.43865   0.67555   0.00000  Uiso   1.00
H776   H     0.63718   0.45320   0.69256   0.00000  Uiso   1.00
H777   H     0.62184   0.48870   0.91271   0.00000  Uiso   1.00
H778   H     0.63931   0.51259   0.99173   0.00000  Uiso   1.00
H779   H     0.46821   0.48755   0.59011   0.00000  Uiso   1.00
H780   H     0.38811   0.46786   0.90857   0.00000  Uiso   1.00
H781   H     0.42423   0.45739   0.55034   0.00000  Uiso   1.00
Cl782  Cl    0.34718   0.43538   0.50990   0.00000  Uiso   1.00
H783   H     0.56528   0.46912   0.86705   0.00000  Uiso   1.00
Cl784  Cl    0.59061   0.62039   0.67636   0.00000  Uiso   1.00
C785   C     0.83341   0.57928   0.75026   0.00000  Uiso   1.00
C786   C     0.81767   0.47799   0.98590   0.00000  Uiso   1.00
C787   C     0.83268   0.48003   0.93129   0.00000  Uiso   1.00
C788   C     0.85207   0.48723   0.51378   0.00000  Uiso   1.00
C789   C     0.90144   0.49414   0.98651   0.00000  Uiso   1.00
C790   C     0.91689   0.48752   0.93350   0.00000  Uiso   1.00
C791   C     0.88329   0.47878   0.90662   0.00000  Uiso   1.00
C792   C     0.83879   0.49114   0.56775   0.00000  Uiso   1.00
C793   C     0.92160   0.50848   0.56630   0.00000  Uiso   1.00
C794   C     0.79652   0.48193   0.90390   0.00000  Uiso   1.00
C795   C     0.87372   0.64553   0.71890   0.00000  Uiso   1.00
C796   C     0.80832   0.49467   0.84911   0.00000  Uiso   1.00
C797   C     0.87348   0.35500   0.71935   0.00000  Uiso   1.00
C798   C     0.83322   0.37642   0.74965   0.00000  Uiso   1.00
C799   C     0.79328   0.35545   0.78049   0.00000  Uiso   1.00
C800   C     0.79350   0.64604   0.78182   0.00000  Uiso   1.00
C801   C     0.83361   0.62406   0.75041   0.00000  Uiso   1.00
C802   C     0.96757   0.52615   0.78211   0.00000  Uiso   1.00
C803   C     0.68357   0.52577   0.78218   0.00000  Uiso   1.00
C804   C     0.69908   0.47385   0.71786   0.00000  Uiso   1.00
C805   C     0.98299   0.47400   0.71805   0.00000  Uiso   1.00
C806   C     0.83329   0.42085   0.74973   0.00000  Uiso   1.00
C807   C     0.85900   0.50060   0.65033   0.00000  Uiso   1.00
C808   C     0.93529   0.50605   0.51272   0.00000  Uiso   1.00
C809   C     0.87350   0.50026   0.59398   0.00000  Uiso   1.00
C810   C     0.74873   0.47019   0.92939   0.00000  Uiso   1.00
C811   C     0.73652   0.45904   0.98118   0.00000  Uiso   1.00
C812   C     0.76957   0.46521   0.50999   0.00000  Uiso   1.00
Cu813  Cu    0.78645   0.49999   0.75000   0.00000  Uiso   1.00
Cu814  Cu    0.88022   0.50001   0.75000   0.00000  Uiso   1.00
H815   H     0.90421   0.37159   0.69512   0.00000  Uiso   1.00
N816   N     0.71598   0.49999   0.74998   0.00000  Uiso   1.00
N817   N     0.95069   0.50002   0.74999   0.00000  Uiso   1.00
O818   O     0.79375   0.56011   0.75000   0.00000  Uiso   1.00
O819   O     0.87294   0.56012   0.75000   0.00000  Uiso   1.00
O820   O     0.77441   0.49998   0.82549   0.00000  Uiso   1.00
O821   O     0.85360   0.49999   0.82549   0.00000  Uiso   1.00
O822   O     0.79373   0.43988   0.74999   0.00000  Uiso   1.00
O823   O     0.87292   0.43989   0.74999   0.00000  Uiso   1.00
O824   O     0.81306   0.50001   0.67451   0.00000  Uiso   1.00
O825   O     0.89225   0.50002   0.67451   0.00000  Uiso   1.00
H826   H     0.94866   0.51655   0.58601   0.00000  Uiso   1.00
H827   H     0.76258   0.37239   0.80471   0.00000  Uiso   1.00
Cl828  Cl    0.74406   0.62179   0.82574   0.00000  Uiso   1.00
Cl829  Cl    0.92929   0.56148   0.82427   0.00000  Uiso   1.00
H830   H     0.69586   0.54620   0.80809   0.00000  Uiso   1.00
Cl831  Cl    0.73738   0.43865   0.67555   0.00000  Uiso   1.00
H832   H     0.97051   0.45320   0.69256   0.00000  Uiso   1.00
H833   H     0.95517   0.48870   0.91271   0.00000  Uiso   1.00
H834   H     0.97264   0.51259   0.99173   0.00000  Uiso   1.00
H835   H     0.80154   0.48755   0.59011   0.00000  Uiso   1.00
H836   H     0.72144   0.46786   0.90857   0.00000  Uiso   1.00
H837   H     0.75757   0.45739   0.55034   0.00000  Uiso   1.00
Cl838  Cl    0.68051   0.43538   0.50990   0.00000  Uiso   1.00
H839   H     0.89861   0.46912   0.86705   0.00000  Uiso   1.00
Cl840  Cl    0.92395   0.62039   0.67636   0.00000  Uiso   1.00
C841   C     0.16674   0.91261   0.75026   0.00000  Uiso   1.00
C842   C     0.15100   0.81133   0.98590   0.00000  Uiso   1.00
C843   C     0.16602   0.81336   0.93129   0.00000  Uiso   1.00
C844   C     0.18541   0.82056   0.51378   0.00000  Uiso   1.00
C845   C     0.23478   0.82747   0.98651   0.00000  Uiso   1.00
C846   C     0.25022   0.82085   0.93350   0.00000  Uiso   1.00
C847   C     0.21662   0.81212   0.90662   0.00000  Uiso   1.00
C848   C     0.17212   0.82448   0.56775   0.00000  Uiso   1.00
C849   C     0.25493   0.84181   0.56630   0.00000  Uiso   1.00
C850   C     0.12985   0.81526   0.90390   0.00000  Uiso   1.00
C851   C     0.20705   0.97887   0.71890   0.00000  Uiso   1.00
C852   C     0.14165   0.82800   0.84911   0.00000  Uiso   1.00
C853   C     0.20681   0.68833   0.71935   0.00000  Uiso   1.00
C854   C     0.16656   0.70975   0.74965   0.00000  Uiso   1.00
C855   C     0.12661   0.68878   0.78049   0.00000  Uiso   1.00
C856   C     0.12683   0.97938   0.78182   0.00000  Uiso   1.00
C857   C     0.16694   0.95739   0.75041   0.00000  Uiso   1.00
C858   C     0.30090   0.85948   0.78211   0.00000  Uiso   1.00
C859   C     0.01690   0.85910   0.78218   0.00000  Uiso   1.00
C860   C     0.03241   0.80718   0.71786   0.00000  Uiso   1.00
C861   C     0.31632   0.80734   0.71805   0.00000  Uiso   1.00
C862   C     0.16663   0.75418   0.74973   0.00000  Uiso   1.00
C863   C     0.19233   0.83394   0.65033   0.00000  Uiso   1.00
C864   C     0.26862   0.83938   0.51272   0.00000  Uiso   1.00
C865   C     0.20683   0.83360   0.59398   0.00000  Uiso   1.00
C866   C     0.08206   0.80353   0.92939   0.00000  Uiso   1.00
C867   C     0.06986   0.79237   0.98118   0.00000  Uiso   1.00
C868   C     0.10290   0.79854   0.50999   0.00000  Uiso   1.00
Cu869  Cu    0.11978   0.83333   0.75000   0.00000  Uiso   1.00
Cu870  Cu    0.21355   0.83334   0.75000   0.00000  Uiso   1.00
H871   H     0.23754   0.70492   0.69512   0.00000  Uiso   1.00
N872   N     0.04931   0.83332   0.74998   0.00000  Uiso   1.00
N873   N     0.28402   0.83335   0.74999   0.00000  Uiso   1.00
O874   O     0.12708   0.89345   0.75000   0.00000  Uiso   1.00
O875   O     0.20627   0.89346   0.75000   0.00000  Uiso   1.00
O876   O     0.10775   0.83332   0.82549   0.00000  Uiso   1.00
O877   O     0.18694   0.83333   0.82549   0.00000  Uiso   1.00
O878   O     0.12706   0.77321   0.74999   0.00000  Uiso   1.00
O879   O     0.20625   0.77322   0.74999   0.00000  Uiso   1.00
O880   O     0.14640   0.83334   0.67451   0.00000  Uiso   1.00
O881   O     0.22559   0.83335   0.67451   0.00000  Uiso   1.00
H882   H     0.28199   0.84989   0.58601   0.00000  Uiso   1.00
H883   H     0.09591   0.70573   0.80471   0.00000  Uiso   1.00
Cl884  Cl    0.07739   0.95512   0.82574   0.00000  Uiso   1.00
Cl885  Cl    0.26263   0.89481   0.82427   0.00000  Uiso   1.00
H886   H     0.02920   0.87953   0.80809   0.00000  Uiso   1.00
Cl887  Cl    0.07071   0.77198   0.67555   0.00000  Uiso   1.00
H888   H     0.30385   0.78653   0.69256   0.00000  Uiso   1.00
H889   H     0.28850   0.82203   0.91271   0.00000  Uiso   1.00
H890   H     0.30598   0.84592   0.99173   0.00000  Uiso   1.00
H891   H     0.13488   0.82088   0.59011   0.00000  Uiso   1.00
H892   H     0.05477   0.80120   0.90857   0.00000  Uiso   1.00
H893   H     0.09090   0.79072   0.55034   0.00000  Uiso   1.00
Cl894  Cl    0.01384   0.76871   0.50990   0.00000  Uiso   1.00
H895   H     0.23194   0.80245   0.86705   0.00000  Uiso   1.00
Cl896  Cl    0.25728   0.95372   0.67636   0.00000  Uiso   1.00
C897   C     0.50007   0.91261   0.75026   0.00000  Uiso   1.00
C898   C     0.48434   0.81133   0.98590   0.00000  Uiso   1.00
C899   C     0.49935   0.81336   0.93129   0.00000  Uiso   1.00
C900   C     0.51874   0.82056   0.51378   0.00000  Uiso   1.00
C901   C     0.56811   0.82747   0.98651   0.00000  Uiso   1.00
C902   C     0.58356   0.82085   0.93350   0.00000  Uiso   1.00
C903   C     0.54995   0.81212   0.90662   0.00000  Uiso   1.00
C904   C     0.50546   0.82448   0.56775   0.00000  Uiso   1.00
C905   C     0.58827   0.84181   0.56630   0.00000  Uiso   1.00
C906   C     0.46319   0.81526   0.90390   0.00000  Uiso   1.00
C907   C     0.54038   0.97887   0.71890   0.00000  Uiso   1.00
C908   C     0.47499   0.82800   0.84911   0.00000  Uiso   1.00
C909   C     0.54015   0.68833   0.71935   0.00000  Uiso   1.00
C910   C     0.49989   0.70975   0.74965   0.00000  Uiso   1.00
C911   C     0.45994   0.68878   0.78049   0.00000  Uiso   1.00
C912   C     0.46016   0.97938   0.78182   0.00000  Uiso   1.00
C913   C     0.50028   0.95739   0.75041   0.00000  Uiso   1.00
C914   C     0.63424   0.85948   0.78211   0.00000  Uiso   1.00
C915   C     0.35024   0.85910   0.78218   0.00000  Uiso   1.00
C916   C     0.36575   0.80718   0.71786   0.00000  Uiso   1.00
C917   C     0.64965   0.80734   0.71805   0.00000  Uiso   1.00
C918   C     0.49996   0.75418   0.74973   0.00000  Uiso   1.00
C919   C     0.52567   0.83394   0.65033   0.00000  Uiso   1.00
C920   C     0.60195   0.83938   0.51272   0.00000  Uiso   1.00
C921   C     0.54017   0.83360   0.59398   0.00000  Uiso   1.00
C922   C     0.41540   0.80353   0.92939   0.00000  Uiso   1.00
C923   C     0.40319   0.79237   0.98118   0.00000  Uiso   1.00
C924   C     0.43623   0.79854   0.50999   0.00000  Uiso   1.00
Cu925  Cu    0.45311   0.83333   0.75000   0.00000  Uiso   1.00
Cu926  Cu    0.54689   0.83334   0.75000   0.00000  Uiso   1.00
H927   H     0.57088   0.70492   0.69512   0.00000  Uiso   1.00
N928   N     0.38265   0.83332   0.74998   0.00000  Uiso   1.00
N929   N     0.61735   0.83335   0.74999   0.00000  Uiso   1.00
O930   O     0.46042   0.89345   0.75000   0.00000  Uiso   1.00
O931   O     0.53961   0.89346   0.75000   0.00000  Uiso   1.00
O932   O     0.44108   0.83332   0.82549   0.00000  Uiso   1.00
O933   O     0.52027   0.83333   0.82549   0.00000  Uiso   1.00
O934   O     0.46039   0.77321   0.74999   0.00000  Uiso   1.00
O935   O     0.53958   0.77322   0.74999   0.00000  Uiso   1.00
O936   O     0.47973   0.83334   0.67451   0.00000  Uiso   1.00
O937   O     0.55892   0.83335   0.67451   0.00000  Uiso   1.00
H938   H     0.61533   0.84989   0.58601   0.00000  Uiso   1.00
H939   H     0.42924   0.70573   0.80471   0.00000  Uiso   1.00
Cl940  Cl    0.41072   0.95512   0.82574   0.00000  Uiso   1.00
Cl941  Cl    0.59596   0.89481   0.82427   0.00000  Uiso   1.00
H942   H     0.36253   0.87953   0.80809   0.00000  Uiso   1.00
Cl943  Cl    0.40405   0.77198   0.67555   0.00000  Uiso   1.00
H944   H     0.63718   0.78653   0.69256   0.00000  Uiso   1.00
H945   H     0.62184   0.82203   0.91271   0.00000  Uiso   1.00
H946   H     0.63931   0.84592   0.99173   0.00000  Uiso   1.00
H947   H     0.46821   0.82088   0.59011   0.00000  Uiso   1.00
H948   H     0.38811   0.80120   0.90857   0.00000  Uiso   1.00
H949   H     0.42423   0.79072   0.55034   0.00000  Uiso   1.00
Cl950  Cl    0.34718   0.76871   0.50990   0.00000  Uiso   1.00
H951   H     0.56528   0.80245   0.86705   0.00000  Uiso   1.00
Cl952  Cl    0.59061   0.95372   0.67636   0.00000  Uiso   1.00
C953   C     0.83341   0.91261   0.75026   0.00000  Uiso   1.00
C954   C     0.81767   0.81133   0.98590   0.00000  Uiso   1.00
C955   C     0.83268   0.81336   0.93129   0.00000  Uiso   1.00
C956   C     0.85207   0.82056   0.51378   0.00000  Uiso   1.00
C957   C     0.90144   0.82747   0.98651   0.00000  Uiso   1.00
C958   C     0.91689   0.82085   0.93350   0.00000  Uiso   1.00
C959   C     0.88329   0.81212   0.90662   0.00000  Uiso   1.00
C960   C     0.83879   0.82448   0.56775   0.00000  Uiso   1.00
C961   C     0.92160   0.84181   0.56630   0.00000  Uiso   1.00
C962   C     0.79652   0.81526   0.90390   0.00000  Uiso   1.00
C963   C     0.87372   0.97887   0.71890   0.00000  Uiso   1.00
C964   C     0.80832   0.82800   0.84911   0.00000  Uiso   1.00
C965   C     0.87348   0.68833   0.71935   0.00000  Uiso   1.00
C966   C     0.83322   0.70975   0.74965   0.00000  Uiso   1.00
C967   C     0.79328   0.68878   0.78049   0.00000  Uiso   1.00
C968   C     0.79350   0.97938   0.78182   0.00000  Uiso   1.00
C969   C     0.83361   0.95739   0.75041   0.00000  Uiso   1.00
C970   C     0.96757   0.85948   0.78211   0.00000  Uiso   1.00
C971   C     0.68357   0.85910   0.78218   0.00000  Uiso   1.00
C972   C     0.69908   0.80718   0.71786   0.00000  Uiso   1.00
C973   C     0.98299   0.80734   0.71805   0.00000  Uiso   1.00
C974   C     0.83329   0.75418   0.74973   0.00000  Uiso   1.00
C975   C     0.85900   0.83394   0.65033   0.00000  Uiso   1.00
C976   C     0.93529   0.83938   0.51272   0.00000  Uiso   1.00
C977   C     0.87350   0.83360   0.59398   0.00000  Uiso   1.00
C978   C     0.74873   0.80353   0.92939   0.00000  Uiso   1.00
C979   C     0.73652   0.79237   0.98118   0.00000  Uiso   1.00
C980   C     0.76957   0.79854   0.50999   0.00000  Uiso   1.00
Cu981  Cu    0.78645   0.83333   0.75000   0.00000  Uiso   1.00
Cu982  Cu    0.88022   0.83334   0.75000   0.00000  Uiso   1.00
H983   H     0.90421   0.70492   0.69512   0.00000  Uiso   1.00
N984   N     0.71598   0.83332   0.74998   0.00000  Uiso   1.00
N985   N     0.95069   0.83335   0.74999   0.00000  Uiso   1.00
O986   O     0.79375   0.89345   0.75000   0.00000  Uiso   1.00
O987   O     0.87294   0.89346   0.75000   0.00000  Uiso   1.00
O988   O     0.77441   0.83332   0.82549   0.00000  Uiso   1.00
O989   O     0.85360   0.83333   0.82549   0.00000  Uiso   1.00
O990   O     0.79373   0.77321   0.74999   0.00000  Uiso   1.00
O991   O     0.87292   0.77322   0.74999   0.00000  Uiso   1.00
O992   O     0.81306   0.83334   0.67451   0.00000  Uiso   1.00
O993   O     0.89225   0.83335   0.67451   0.00000  Uiso   1.00
H994   H     0.94866   0.84989   0.58601   0.00000  Uiso   1.00
H995   H     0.76258   0.70573   0.80471   0.00000  Uiso   1.00
Cl996  Cl    0.74406   0.95512   0.82574   0.00000  Uiso   1.00
Cl997  Cl    0.92929   0.89481   0.82427   0.00000  Uiso   1.00
H998   H     0.69586   0.87953   0.80809   0.00000  Uiso   1.00
Cl999  Cl    0.73738   0.77198   0.67555   0.00000  Uiso   1.00
H1000  H     0.97051   0.78653   0.69256   0.00000  Uiso   1.00
H1001  H     0.95517   0.82203   0.91271   0.00000  Uiso   1.00
H1002  H     0.97264   0.84592   0.99173   0.00000  Uiso   1.00
H1003  H     0.80154   0.82088   0.59011   0.00000  Uiso   1.00
H1004  H     0.72144   0.80120   0.90857   0.00000  Uiso   1.00
H1005  H     0.75757   0.79072   0.55034   0.00000  Uiso   1.00
Cl1006 Cl    0.68051   0.76871   0.50990   0.00000  Uiso   1.00
H1007  H     0.89861   0.80245   0.86705   0.00000  Uiso   1.00
Cl1008 Cl    0.92395   0.95372   0.67636   0.00000  Uiso   1.00
loop_
_geom_bond_atom_site_label_1
_geom_bond_atom_site_label_2
_geom_bond_distance
_geom_bond_site_symmetry_2
_ccdc_geom_bond_type
C1     C17     1.450   .     S
C1     O34     1.293   .     A
C1     O35     1.294   .     A
C2     C3      1.415   .     A
C2     C508    1.423   .     S
C2     C532    1.413   .     S
C3     C10     1.432   .     A
C3     C7      1.418   .     A
C4     C8      1.400   .     A
C4     C506    1.423   1_554 S
C4     C509    1.419   1_554 S
C5     C6      1.385   .     A
C5     C508    1.419   .     S
C5     C528    1.398   .     S
C6     C7      1.382   .     A
C6     H49     1.085   .     S
C7     H55     1.076   .     S
C8     C25     1.399   .     A
C8     H51     1.076   .     S
C9     C24     1.387   .     A
C9     H42     1.083   .     S
C9     C25     1.399   .     A
C10    C26     1.404   .     A
C10    C12     1.484   .     S
C11    C17     1.411   .     A
C11    Cl56    1.765   .     S
C11    C181    1.386   .     S
C12    O36     1.315   .     A
C12    O37     1.288   .     A
C13    C14     1.395   .     A
C13    H31     1.084   .     S
C13    C347    1.386   1_545 S
C14    C22     1.439   .     S
C14    C15     1.393   .     A
C15    H43     1.084   .     S
C15    C352    1.386   1_545 S
C16    Cl44    1.763   .     S
C16    C17     1.412   .     A
C16    C183    1.386   .     S
C18    N33     1.379   .     A
C18    Cl45    1.755   .     S
C18    C75     1.415   .     S
C19    H46     1.080   .     S
C19    N32     1.360   .     A
C19    C130    1.415   1_455 S
C20    Cl47    1.755   .     S
C20    N32     1.380   .     A
C20    C133    1.415   1_455 S
C21    H48     1.082   .     S
C21    N33     1.360   .     A
C21    C76     1.415   .     S
C22    O39     1.290   .     A
C22    O38     1.293   .     A
C23    O41     1.296   .     A
C23    C25     1.458   .     S
C23    O40     1.296   .     A
C24    C509    1.398   1_554 S
C24    H554    1.084   1_554 S
C26    H52     1.083   .     S
C26    C27     1.394   .     A
C27    C532    1.393   .     S
C27    Cl558   1.754   .     S
C28    H53     1.079   .     S
C28    C506    1.413   1_554 S
C28    C531    1.393   1_554 S
Cu29   O38     1.960   .     S
Cu29   Cu30    2.688   .     S
Cu29   O36     1.965   .     S
Cu29   O40     1.963   .     S
Cu29   N32     2.020   .     S
Cu29   O34     1.957   .     S
Cu30   O39     1.957   .     S
Cu30   O41     1.965   .     S
Cu30   O35     1.960   .     S
Cu30   N33     2.020   .     S
Cu30   O37     1.963   .     S
H50    C528    1.084   .     S
Cl54   C531    1.754   1_554 S
C57    C73     1.450   .     S
C57    O90     1.293   .     A
C57    O91     1.294   .     A
C58    C59     1.415   .     A
C58    C564    1.423   .     S
C58    C588    1.413   .     S
C59    C66     1.432   .     A
C59    C63     1.418   .     A
C60    C64     1.400   .     A
C60    C562    1.423   1_554 S
C60    C565    1.419   1_554 S
C61    C62     1.385   .     A
C61    C564    1.419   .     S
C61    C584    1.398   .     S
C62    C63     1.382   .     A
C62    H105    1.085   .     S
C63    H111    1.076   .     S
C64    C81     1.399   .     A
C64    H107    1.076   .     S
C65    C80     1.387   .     A
C65    H98     1.083   .     S
C65    C81     1.399   .     A
C66    C82     1.404   .     A
C66    C68     1.484   .     S
C67    C73     1.411   .     A
C67    Cl112   1.765   .     S
C67    C237    1.386   .     S
C68    O92     1.315   .     A
C68    O93     1.288   .     A
C69    C70     1.395   .     A
C69    H87     1.084   .     S
C69    C403    1.386   1_545 S
C70    C78     1.439   .     S
C70    C71     1.393   .     A
C71    H99     1.084   .     S
C71    C408    1.386   1_545 S
C72    Cl100   1.763   .     S
C72    C73     1.412   .     A
C72    C239    1.386   .     S
C74    N89     1.379   .     A
C74    Cl101   1.755   .     S
C74    C131    1.415   .     S
C75    H102    1.080   .     S
C75    N88     1.360   .     A
C76    Cl103   1.755   .     S
C76    N88     1.380   .     A
C77    H104    1.082   .     S
C77    N89     1.360   .     A
C77    C132    1.415   .     S
C78    O95     1.290   .     A
C78    O94     1.293   .     A
C79    O97     1.296   .     A
C79    C81     1.458   .     S
C79    O96     1.296   .     A
C80    C565    1.398   1_554 S
C80    H610    1.084   1_554 S
C82    H108    1.083   .     S
C82    C83     1.394   .     A
C83    C588    1.393   .     S
C83    Cl614   1.754   .     S
C84    H109    1.079   .     S
C84    C562    1.413   1_554 S
C84    C587    1.393   1_554 S
Cu85   O94     1.960   .     S
Cu85   Cu86    2.688   .     S
Cu85   O92     1.965   .     S
Cu85   O96     1.963   .     S
Cu85   N88     2.020   .     S
Cu85   O90     1.957   .     S
Cu86   O95     1.957   .     S
Cu86   O97     1.965   .     S
Cu86   O91     1.960   .     S
Cu86   N89     2.020   .     S
Cu86   O93     1.963   .     S
H106   C584    1.084   .     S
Cl110  C587    1.754   1_554 S
C113   C129    1.450   .     S
C113   O146    1.293   .     A
C113   O147    1.294   .     A
C114   C115    1.415   .     A
C114   C620    1.423   .     S
C114   C644    1.413   .     S
C115   C122    1.432   .     A
C115   C119    1.418   .     A
C116   C120    1.400   .     A
C116   C618    1.423   1_554 S
C116   C621    1.419   1_554 S
C117   C118    1.385   .     A
C117   C620    1.419   .     S
C117   C640    1.398   .     S
C118   C119    1.382   .     A
C118   H161    1.085   .     S
C119   H167    1.076   .     S
C120   C137    1.399   .     A
C120   H163    1.076   .     S
C121   C136    1.387   .     A
C121   H154    1.083   .     S
C121   C137    1.399   .     A
C122   C138    1.404   .     A
C122   C124    1.484   .     S
C123   C129    1.411   .     A
C123   Cl168   1.765   .     S
C123   C293    1.386   .     S
C124   O148    1.315   .     A
C124   O149    1.288   .     A
C125   C126    1.395   .     A
C125   H143    1.084   .     S
C125   C459    1.386   1_545 S
C126   C134    1.439   .     S
C126   C127    1.393   .     A
C127   H155    1.084   .     S
C127   C464    1.386   1_545 S
C128   Cl156   1.763   .     S
C128   C129    1.412   .     A
C128   C295    1.386   .     S
C130   N145    1.379   .     A
C130   Cl157   1.755   .     S
C130   C19     1.415   1_655 S
C131   H158    1.080   .     S
C131   N144    1.360   .     A
C132   Cl159   1.755   .     S
C132   N144    1.380   .     A
C133   H160    1.082   .     S
C133   N145    1.360   .     A
C133   C20     1.415   1_655 S
C134   O151    1.290   .     A
C134   O150    1.293   .     A
C135   O153    1.296   .     A
C135   C137    1.458   .     S
C135   O152    1.296   .     A
C136   C621    1.398   1_554 S
C136   H666    1.084   1_554 S
C138   H164    1.083   .     S
C138   C139    1.394   .     A
C139   C644    1.393   .     S
C139   Cl670   1.754   .     S
C140   H165    1.079   .     S
C140   C618    1.413   1_554 S
C140   C643    1.393   1_554 S
Cu141  O150    1.960   .     S
Cu141  Cu142   2.688   .     S
Cu141  O148    1.965   .     S
Cu141  O152    1.963   .     S
Cu141  N144    2.020   .     S
Cu141  O146    1.957   .     S
Cu142  O151    1.957   .     S
Cu142  O153    1.965   .     S
Cu142  O147    1.960   .     S
Cu142  N145    2.020   .     S
Cu142  O149    1.963   .     S
H162   C640    1.084   .     S
Cl166  C643    1.754   1_554 S
C169   C185    1.450   .     S
C169   O202    1.293   .     A
C169   O203    1.294   .     A
C170   C171    1.415   .     A
C170   C676    1.423   .     S
C170   C700    1.413   .     S
C171   C178    1.432   .     A
C171   C175    1.418   .     A
C172   C176    1.400   .     A
C172   C674    1.423   1_554 S
C172   C677    1.419   1_554 S
C173   C174    1.385   .     A
C173   C676    1.419   .     S
C173   C696    1.398   .     S
C174   C175    1.382   .     A
C174   H217    1.085   .     S
C175   H223    1.076   .     S
C176   C193    1.399   .     A
C176   H219    1.076   .     S
C177   C192    1.387   .     A
C177   H210    1.083   .     S
C177   C193    1.399   .     A
C178   C194    1.404   .     A
C178   C180    1.484   .     S
C179   C185    1.411   .     A
C179   Cl224   1.765   .     S
C179   C349    1.386   .     S
C180   O204    1.315   .     A
C180   O205    1.288   .     A
C181   C182    1.395   .     A
C181   H199    1.084   .     S
C182   C190    1.439   .     S
C182   C183    1.393   .     A
C183   H211    1.084   .     S
C184   Cl212   1.763   .     S
C184   C185    1.412   .     A
C184   C351    1.386   .     S
C186   N201    1.379   .     A
C186   Cl213   1.755   .     S
C186   C243    1.415   .     S
C187   H214    1.080   .     S
C187   N200    1.360   .     A
C187   C298    1.415   1_455 S
C188   Cl215   1.755   .     S
C188   N200    1.380   .     A
C188   C301    1.415   1_455 S
C189   H216    1.082   .     S
C189   N201    1.360   .     A
C189   C244    1.415   .     S
C190   O207    1.290   .     A
C190   O206    1.293   .     A
C191   O209    1.296   .     A
C191   C193    1.458   .     S
C191   O208    1.296   .     A
C192   C677    1.398   1_554 S
C192   H722    1.084   1_554 S
C194   H220    1.083   .     S
C194   C195    1.394   .     A
C195   C700    1.393   .     S
C195   Cl726   1.754   .     S
C196   H221    1.079   .     S
C196   C674    1.413   1_554 S
C196   C699    1.393   1_554 S
Cu197  O206    1.960   .     S
Cu197  Cu198   2.688   .     S
Cu197  O204    1.965   .     S
Cu197  O208    1.963   .     S
Cu197  N200    2.020   .     S
Cu197  O202    1.957   .     S
Cu198  O207    1.957   .     S
Cu198  O209    1.965   .     S
Cu198  O203    1.960   .     S
Cu198  N201    2.020   .     S
Cu198  O205    1.963   .     S
H218   C696    1.084   .     S
Cl222  C699    1.754   1_554 S
C225   C241    1.450   .     S
C225   O258    1.293   .     A
C225   O259    1.294   .     A
C226   C227    1.415   .     A
C226   C732    1.423   .     S
C226   C756    1.413   .     S
C227   C234    1.432   .     A
C227   C231    1.418   .     A
C228   C232    1.400   .     A
C228   C730    1.423   1_554 S
C228   C733    1.419   1_554 S
C229   C230    1.385   .     A
C229   C732    1.419   .     S
C229   C752    1.398   .     S
C230   C231    1.382   .     A
C230   H273    1.085   .     S
C231   H279    1.076   .     S
C232   C249    1.399   .     A
C232   H275    1.076   .     S
C233   C248    1.387   .     A
C233   H266    1.083   .     S
C233   C249    1.399   .     A
C234   C250    1.404   .     A
C234   C236    1.484   .     S
C235   C241    1.411   .     A
C235   Cl280   1.765   .     S
C235   C405    1.386   .     S
C236   O260    1.315   .     A
C236   O261    1.288   .     A
C237   C238    1.395   .     A
C237   H255    1.084   .     S
C238   C246    1.439   .     S
C238   C239    1.393   .     A
C239   H267    1.084   .     S
C240   Cl268   1.763   .     S
C240   C241    1.412   .     A
C240   C407    1.386   .     S
C242   N257    1.379   .     A
C242   Cl269   1.755   .     S
C242   C299    1.415   .     S
C243   H270    1.080   .     S
C243   N256    1.360   .     A
C244   Cl271   1.755   .     S
C244   N256    1.380   .     A
C245   H272    1.082   .     S
C245   N257    1.360   .     A
C245   C300    1.415   .     S
C246   O263    1.290   .     A
C246   O262    1.293   .     A
C247   O265    1.296   .     A
C247   C249    1.458   .     S
C247   O264    1.296   .     A
C248   C733    1.398   1_554 S
C248   H778    1.084   1_554 S
C250   H276    1.083   .     S
C250   C251    1.394   .     A
C251   C756    1.393   .     S
C251   Cl782   1.754   .     S
C252   H277    1.079   .     S
C252   C730    1.413   1_554 S
C252   C755    1.393   1_554 S
Cu253  O262    1.960   .     S
Cu253  Cu254   2.688   .     S
Cu253  O260    1.965   .     S
Cu253  O264    1.963   .     S
Cu253  N256    2.020   .     S
Cu253  O258    1.957   .     S
Cu254  O263    1.957   .     S
Cu254  O265    1.965   .     S
Cu254  O259    1.960   .     S
Cu254  N257    2.020   .     S
Cu254  O261    1.963   .     S
H274   C752    1.084   .     S
Cl278  C755    1.754   1_554 S
C281   C297    1.450   .     S
C281   O314    1.293   .     A
C281   O315    1.294   .     A
C282   C283    1.415   .     A
C282   C788    1.423   .     S
C282   C812    1.413   .     S
C283   C290    1.432   .     A
C283   C287    1.418   .     A
C284   C288    1.400   .     A
C284   C786    1.423   1_554 S
C284   C789    1.419   1_554 S
C285   C286    1.385   .     A
C285   C788    1.419   .     S
C285   C808    1.398   .     S
C286   C287    1.382   .     A
C286   H329    1.085   .     S
C287   H335    1.076   .     S
C288   C305    1.399   .     A
C288   H331    1.076   .     S
C289   C304    1.387   .     A
C289   H322    1.083   .     S
C289   C305    1.399   .     A
C290   C306    1.404   .     A
C290   C292    1.484   .     S
C291   C297    1.411   .     A
C291   Cl336   1.765   .     S
C291   C461    1.386   .     S
C292   O316    1.315   .     A
C292   O317    1.288   .     A
C293   C294    1.395   .     A
C293   H311    1.084   .     S
C294   C302    1.439   .     S
C294   C295    1.393   .     A
C295   H323    1.084   .     S
C296   Cl324   1.763   .     S
C296   C297    1.412   .     A
C296   C463    1.386   .     S
C298   N313    1.379   .     A
C298   Cl325   1.755   .     S
C298   C187    1.415   1_655 S
C299   H326    1.080   .     S
C299   N312    1.360   .     A
C300   Cl327   1.755   .     S
C300   N312    1.380   .     A
C301   H328    1.082   .     S
C301   N313    1.360   .     A
C301   C188    1.415   1_655 S
C302   O319    1.290   .     A
C302   O318    1.293   .     A
C303   O321    1.296   .     A
C303   C305    1.458   .     S
C303   O320    1.296   .     A
C304   C789    1.398   1_554 S
C304   H834    1.084   1_554 S
C306   H332    1.083   .     S
C306   C307    1.394   .     A
C307   C812    1.393   .     S
C307   Cl838   1.754   .     S
C308   H333    1.079   .     S
C308   C786    1.413   1_554 S
C308   C811    1.393   1_554 S
Cu309  O318    1.960   .     S
Cu309  Cu310   2.688   .     S
Cu309  O316    1.965   .     S
Cu309  O320    1.963   .     S
Cu309  N312    2.020   .     S
Cu309  O314    1.957   .     S
Cu310  O319    1.957   .     S
Cu310  O321    1.965   .     S
Cu310  O315    1.960   .     S
Cu310  N313    2.020   .     S
Cu310  O317    1.963   .     S
H330   C808    1.084   .     S
Cl334  C811    1.754   1_554 S
C337   C353    1.450   .     S
C337   O370    1.293   .     A
C337   O371    1.294   .     A
C338   C339    1.415   .     A
C338   C844    1.423   .     S
C338   C868    1.413   .     S
C339   C346    1.432   .     A
C339   C343    1.418   .     A
C340   C344    1.400   .     A
C340   C842    1.423   1_554 S
C340   C845    1.419   1_554 S
C341   C342    1.385   .     A
C341   C844    1.419   .     S
C341   C864    1.398   .     S
C342   C343    1.382   .     A
C342   H385    1.085   .     S
C343   H391    1.076   .     S
C344   C361    1.399   .     A
C344   H387    1.076   .     S
C345   C360    1.387   .     A
C345   H378    1.083   .     S
C345   C361    1.399   .     A
C346   C362    1.404   .     A
C346   C348    1.484   .     S
C347   C353    1.411   .     A
C347   Cl392   1.765   .     S
C347   C13     1.386   1_565 S
C348   O372    1.315   .     A
C348   O373    1.288   .     A
C349   C350    1.395   .     A
C349   H367    1.084   .     S
C350   C358    1.439   .     S
C350   C351    1.393   .     A
C351   H379    1.084   .     S
C352   Cl380   1.763   .     S
C352   C353    1.412   .     A
C352   C15     1.386   1_565 S
C354   N369    1.379   .     A
C354   Cl381   1.755   .     S
C354   C411    1.415   .     S
C355   H382    1.080   .     S
C355   N368    1.360   .     A
C355   C466    1.415   1_455 S
C356   Cl383   1.755   .     S
C356   N368    1.380   .     A
C356   C469    1.415   1_455 S
C357   H384    1.082   .     S
C357   N369    1.360   .     A
C357   C412    1.415   .     S
C358   O375    1.290   .     A
C358   O374    1.293   .     A
C359   O377    1.296   .     A
C359   C361    1.458   .     S
C359   O376    1.296   .     A
C360   C845    1.398   1_554 S
C360   H890    1.084   1_554 S
C362   H388    1.083   .     S
C362   C363    1.394   .     A
C363   C868    1.393   .     S
C363   Cl894   1.754   .     S
C364   H389    1.079   .     S
C364   C842    1.413   1_554 S
C364   C867    1.393   1_554 S
Cu365  O374    1.960   .     S
Cu365  Cu366   2.688   .     S
Cu365  O372    1.965   .     S
Cu365  O376    1.963   .     S
Cu365  N368    2.020   .     S
Cu365  O370    1.957   .     S
Cu366  O375    1.957   .     S
Cu366  O377    1.965   .     S
Cu366  O371    1.960   .     S
Cu366  N369    2.020   .     S
Cu366  O373    1.963   .     S
H386   C864    1.084   .     S
Cl390  C867    1.754   1_554 S
C393   C409    1.450   .     S
C393   O426    1.293   .     A
C393   O427    1.294   .     A
C394   C395    1.415   .     A
C394   C900    1.423   .     S
C394   C924    1.413   .     S
C395   C402    1.432   .     A
C395   C399    1.418   .     A
C396   C400    1.400   .     A
C396   C898    1.423   1_554 S
C396   C901    1.419   1_554 S
C397   C398    1.385   .     A
C397   C900    1.419   .     S
C397   C920    1.398   .     S
C398   C399    1.382   .     A
C398   H441    1.085   .     S
C399   H447    1.076   .     S
C400   C417    1.399   .     A
C400   H443    1.076   .     S
C401   C416    1.387   .     A
C401   H434    1.083   .     S
C401   C417    1.399   .     A
C402   C418    1.404   .     A
C402   C404    1.484   .     S
C403   C409    1.411   .     A
C403   Cl448   1.765   .     S
C403   C69     1.386   1_565 S
C404   O428    1.315   .     A
C404   O429    1.288   .     A
C405   C406    1.395   .     A
C405   H423    1.084   .     S
C406   C414    1.439   .     S
C406   C407    1.393   .     A
C407   H435    1.084   .     S
C408   Cl436   1.763   .     S
C408   C409    1.412   .     A
C408   C71     1.386   1_565 S
C410   N425    1.379   .     A
C410   Cl437   1.755   .     S
C410   C467    1.415   .     S
C411   H438    1.080   .     S
C411   N424    1.360   .     A
C412   Cl439   1.755   .     S
C412   N424    1.380   .     A
C413   H440    1.082   .     S
C413   N425    1.360   .     A
C413   C468    1.415   .     S
C414   O431    1.290   .     A
C414   O430    1.293   .     A
C415   O433    1.296   .     A
C415   C417    1.458   .     S
C415   O432    1.296   .     A
C416   C901    1.398   1_554 S
C416   H946    1.084   1_554 S
C418   H444    1.083   .     S
C418   C419    1.394   .     A
C419   C924    1.393   .     S
C419   Cl950   1.754   .     S
C420   H445    1.079   .     S
C420   C898    1.413   1_554 S
C420   C923    1.393   1_554 S
Cu421  O430    1.960   .     S
Cu421  Cu422   2.688   .     S
Cu421  O428    1.965   .     S
Cu421  O432    1.963   .     S
Cu421  N424    2.020   .     S
Cu421  O426    1.957   .     S
Cu422  O431    1.957   .     S
Cu422  O433    1.965   .     S
Cu422  O427    1.960   .     S
Cu422  N425    2.020   .     S
Cu422  O429    1.963   .     S
H442   C920    1.084   .     S
Cl446  C923    1.754   1_554 S
C449   C465    1.450   .     S
C449   O482    1.293   .     A
C449   O483    1.294   .     A
C450   C451    1.415   .     A
C450   C956    1.423   .     S
C450   C980    1.413   .     S
C451   C458    1.432   .     A
C451   C455    1.418   .     A
C452   C456    1.400   .     A
C452   C954    1.423   1_554 S
C452   C957    1.419   1_554 S
C453   C454    1.385   .     A
C453   C956    1.419   .     S
C453   C976    1.398   .     S
C454   C455    1.382   .     A
C454   H497    1.085   .     S
C455   H503    1.076   .     S
C456   C473    1.399   .     A
C456   H499    1.076   .     S
C457   C472    1.387   .     A
C457   H490    1.083   .     S
C457   C473    1.399   .     A
C458   C474    1.404   .     A
C458   C460    1.484   .     S
C459   C465    1.411   .     A
C459   Cl504   1.765   .     S
C459   C125    1.386   1_565 S
C460   O484    1.315   .     A
C460   O485    1.288   .     A
C461   C462    1.395   .     A
C461   H479    1.084   .     S
C462   C470    1.439   .     S
C462   C463    1.393   .     A
C463   H491    1.084   .     S
C464   Cl492   1.763   .     S
C464   C465    1.412   .     A
C464   C127    1.386   1_565 S
C466   N481    1.379   .     A
C466   Cl493   1.755   .     S
C466   C355    1.415   1_655 S
C467   H494    1.080   .     S
C467   N480    1.360   .     A
C468   Cl495   1.755   .     S
C468   N480    1.380   .     A
C469   H496    1.082   .     S
C469   N481    1.360   .     A
C469   C356    1.415   1_655 S
C470   O487    1.290   .     A
C470   O486    1.293   .     A
C471   O489    1.296   .     A
C471   C473    1.458   .     S
C471   O488    1.296   .     A
C472   C957    1.398   1_554 S
C472   H1002   1.084   1_554 S
C474   H500    1.083   .     S
C474   C475    1.394   .     A
C475   C980    1.393   .     S
C475   Cl1006  1.754   .     S
C476   H501    1.079   .     S
C476   C954    1.413   1_554 S
C476   C979    1.393   1_554 S
Cu477  O486    1.960   .     S
Cu477  Cu478   2.688   .     S
Cu477  O484    1.965   .     S
Cu477  O488    1.963   .     S
Cu477  N480    2.020   .     S
Cu477  O482    1.957   .     S
Cu478  O487    1.957   .     S
Cu478  O489    1.965   .     S
Cu478  O483    1.960   .     S
Cu478  N481    2.020   .     S
Cu478  O485    1.963   .     S
H498   C976    1.084   .     S
Cl502  C979    1.754   1_554 S
C505   C521    1.450   .     S
C505   O538    1.293   .     A
C505   O539    1.294   .     A
C506   C507    1.415   .     A
C506   C4      1.423   1_556 S
C506   C28     1.413   1_556 S
C507   C514    1.432   .     A
C507   C511    1.418   .     A
C508   C512    1.400   .     A
C509   C510    1.385   .     A
C509   C4      1.419   1_556 S
C509   C24     1.398   1_556 S
C510   C511    1.382   .     A
C510   H553    1.085   .     S
C511   H559    1.076   .     S
C512   C529    1.399   .     A
C512   H555    1.076   .     S
C513   C528    1.387   .     A
C513   H546    1.083   .     S
C513   C529    1.399   .     A
C514   C530    1.404   .     A
C514   C516    1.484   .     S
C515   C521    1.411   .     A
C515   Cl560   1.765   .     S
C515   C685    1.386   .     S
C516   O540    1.315   .     A
C516   O541    1.288   .     A
C517   C518    1.395   .     A
C517   H535    1.084   .     S
C517   C851    1.386   1_545 S
C518   C526    1.439   .     S
C518   C519    1.393   .     A
C519   H547    1.084   .     S
C519   C856    1.386   1_545 S
C520   Cl548   1.763   .     S
C520   C521    1.412   .     A
C520   C687    1.386   .     S
C522   N537    1.379   .     A
C522   Cl549   1.755   .     S
C522   C579    1.415   .     S
C523   H550    1.080   .     S
C523   N536    1.360   .     A
C523   C634    1.415   1_455 S
C524   Cl551   1.755   .     S
C524   N536    1.380   .     A
C524   C637    1.415   1_455 S
C525   H552    1.082   .     S
C525   N537    1.360   .     A
C525   C580    1.415   .     S
C526   O543    1.290   .     A
C526   O542    1.293   .     A
C527   O545    1.296   .     A
C527   C529    1.458   .     S
C527   O544    1.296   .     A
C530   H556    1.083   .     S
C530   C531    1.394   .     A
C531   C28     1.393   1_556 S
C531   Cl54    1.754   1_556 S
C532   H557    1.079   .     S
Cu533  O542    1.960   .     S
Cu533  Cu534   2.688   .     S
Cu533  O540    1.965   .     S
Cu533  O544    1.963   .     S
Cu533  N536    2.020   .     S
Cu533  O538    1.957   .     S
Cu534  O543    1.957   .     S
Cu534  O545    1.965   .     S
Cu534  O539    1.960   .     S
Cu534  N537    2.020   .     S
Cu534  O541    1.963   .     S
H554   C24     1.084   1_556 S
C561   C577    1.450   .     S
C561   O594    1.293   .     A
C561   O595    1.294   .     A
C562   C563    1.415   .     A
C562   C60     1.423   1_556 S
C562   C84     1.413   1_556 S
C563   C570    1.432   .     A
C563   C567    1.418   .     A
C564   C568    1.400   .     A
C565   C566    1.385   .     A
C565   C60     1.419   1_556 S
C565   C80     1.398   1_556 S
C566   C567    1.382   .     A
C566   H609    1.085   .     S
C567   H615    1.076   .     S
C568   C585    1.399   .     A
C568   H611    1.076   .     S
C569   C584    1.387   .     A
C569   H602    1.083   .     S
C569   C585    1.399   .     A
C570   C586    1.404   .     A
C570   C572    1.484   .     S
C571   C577    1.411   .     A
C571   Cl616   1.765   .     S
C571   C741    1.386   .     S
C572   O596    1.315   .     A
C572   O597    1.288   .     A
C573   C574    1.395   .     A
C573   H591    1.084   .     S
C573   C907    1.386   1_545 S
C574   C582    1.439   .     S
C574   C575    1.393   .     A
C575   H603    1.084   .     S
C575   C912    1.386   1_545 S
C576   Cl604   1.763   .     S
C576   C577    1.412   .     A
C576   C743    1.386   .     S
C578   N593    1.379   .     A
C578   Cl605   1.755   .     S
C578   C635    1.415   .     S
C579   H606    1.080   .     S
C579   N592    1.360   .     A
C580   Cl607   1.755   .     S
C580   N592    1.380   .     A
C581   H608    1.082   .     S
C581   N593    1.360   .     A
C581   C636    1.415   .     S
C582   O599    1.290   .     A
C582   O598    1.293   .     A
C583   O601    1.296   .     A
C583   C585    1.458   .     S
C583   O600    1.296   .     A
C586   H612    1.083   .     S
C586   C587    1.394   .     A
C587   C84     1.393   1_556 S
C587   Cl110   1.754   1_556 S
C588   H613    1.079   .     S
Cu589  O598    1.960   .     S
Cu589  Cu590   2.688   .     S
Cu589  O596    1.965   .     S
Cu589  O600    1.963   .     S
Cu589  N592    2.020   .     S
Cu589  O594    1.957   .     S
Cu590  O599    1.957   .     S
Cu590  O601    1.965   .     S
Cu590  O595    1.960   .     S
Cu590  N593    2.020   .     S
Cu590  O597    1.963   .     S
H610   C80     1.084   1_556 S
C617   C633    1.450   .     S
C617   O650    1.293   .     A
C617   O651    1.294   .     A
C618   C619    1.415   .     A
C618   C116    1.423   1_556 S
C618   C140    1.413   1_556 S
C619   C626    1.432   .     A
C619   C623    1.418   .     A
C620   C624    1.400   .     A
C621   C622    1.385   .     A
C621   C116    1.419   1_556 S
C621   C136    1.398   1_556 S
C622   C623    1.382   .     A
C622   H665    1.085   .     S
C623   H671    1.076   .     S
C624   C641    1.399   .     A
C624   H667    1.076   .     S
C625   C640    1.387   .     A
C625   H658    1.083   .     S
C625   C641    1.399   .     A
C626   C642    1.404   .     A
C626   C628    1.484   .     S
C627   C633    1.411   .     A
C627   Cl672   1.765   .     S
C627   C797    1.386   .     S
C628   O652    1.315   .     A
C628   O653    1.288   .     A
C629   C630    1.395   .     A
C629   H647    1.084   .     S
C629   C963    1.386   1_545 S
C630   C638    1.439   .     S
C630   C631    1.393   .     A
C631   H659    1.084   .     S
C631   C968    1.386   1_545 S
C632   Cl660   1.763   .     S
C632   C633    1.412   .     A
C632   C799    1.386   .     S
C634   N649    1.379   .     A
C634   Cl661   1.755   .     S
C634   C523    1.415   1_655 S
C635   H662    1.080   .     S
C635   N648    1.360   .     A
C636   Cl663   1.755   .     S
C636   N648    1.380   .     A
C637   H664    1.082   .     S
C637   N649    1.360   .     A
C637   C524    1.415   1_655 S
C638   O655    1.290   .     A
C638   O654    1.293   .     A
C639   O657    1.296   .     A
C639   C641    1.458   .     S
C639   O656    1.296   .     A
C642   H668    1.083   .     S
C642   C643    1.394   .     A
C643   C140    1.393   1_556 S
C643   Cl166   1.754   1_556 S
C644   H669    1.079   .     S
Cu645  O654    1.960   .     S
Cu645  Cu646   2.688   .     S
Cu645  O652    1.965   .     S
Cu645  O656    1.963   .     S
Cu645  N648    2.020   .     S
Cu645  O650    1.957   .     S
Cu646  O655    1.957   .     S
Cu646  O657    1.965   .     S
Cu646  O651    1.960   .     S
Cu646  N649    2.020   .     S
Cu646  O653    1.963   .     S
H666   C136    1.084   1_556 S
C673   C689    1.450   .     S
C673   O706    1.293   .     A
C673   O707    1.294   .     A
C674   C675    1.415   .     A
C674   C172    1.423   1_556 S
C674   C196    1.413   1_556 S
C675   C682    1.432   .     A
C675   C679    1.418   .     A
C676   C680    1.400   .     A
C677   C678    1.385   .     A
C677   C172    1.419   1_556 S
C677   C192    1.398   1_556 S
C678   C679    1.382   .     A
C678   H721    1.085   .     S
C679   H727    1.076   .     S
C680   C697    1.399   .     A
C680   H723    1.076   .     S
C681   C696    1.387   .     A
C681   H714    1.083   .     S
C681   C697    1.399   .     A
C682   C698    1.404   .     A
C682   C684    1.484   .     S
C683   C689    1.411   .     A
C683   Cl728   1.765   .     S
C683   C853    1.386   .     S
C684   O708    1.315   .     A
C684   O709    1.288   .     A
C685   C686    1.395   .     A
C685   H703    1.084   .     S
C686   C694    1.439   .     S
C686   C687    1.393   .     A
C687   H715    1.084   .     S
C688   Cl716   1.763   .     S
C688   C689    1.412   .     A
C688   C855    1.386   .     S
C690   N705    1.379   .     A
C690   Cl717   1.755   .     S
C690   C747    1.415   .     S
C691   H718    1.080   .     S
C691   N704    1.360   .     A
C691   C802    1.415   1_455 S
C692   Cl719   1.755   .     S
C692   N704    1.380   .     A
C692   C805    1.415   1_455 S
C693   H720    1.082   .     S
C693   N705    1.360   .     A
C693   C748    1.415   .     S
C694   O711    1.290   .     A
C694   O710    1.293   .     A
C695   O713    1.296   .     A
C695   C697    1.458   .     S
C695   O712    1.296   .     A
C698   H724    1.083   .     S
C698   C699    1.394   .     A
C699   C196    1.393   1_556 S
C699   Cl222   1.754   1_556 S
C700   H725    1.079   .     S
Cu701  O710    1.960   .     S
Cu701  Cu702   2.688   .     S
Cu701  O708    1.965   .     S
Cu701  O712    1.963   .     S
Cu701  N704    2.020   .     S
Cu701  O706    1.957   .     S
Cu702  O711    1.957   .     S
Cu702  O713    1.965   .     S
Cu702  O707    1.960   .     S
Cu702  N705    2.020   .     S
Cu702  O709    1.963   .     S
H722   C192    1.084   1_556 S
C729   C745    1.450   .     S
C729   O762    1.293   .     A
C729   O763    1.294   .     A
C730   C731    1.415   .     A
C730   C228    1.423   1_556 S
C730   C252    1.413   1_556 S
C731   C738    1.432   .     A
C731   C735    1.418   .     A
C732   C736    1.400   .     A
C733   C734    1.385   .     A
C733   C228    1.419   1_556 S
C733   C248    1.398   1_556 S
C734   C735    1.382   .     A
C734   H777    1.085   .     S
C735   H783    1.076   .     S
C736   C753    1.399   .     A
C736   H779    1.076   .     S
C737   C752    1.387   .     A
C737   H770    1.083   .     S
C737   C753    1.399   .     A
C738   C754    1.404   .     A
C738   C740    1.484   .     S
C739   C745    1.411   .     A
C739   Cl784   1.765   .     S
C739   C909    1.386   .     S
C740   O764    1.315   .     A
C740   O765    1.288   .     A
C741   C742    1.395   .     A
C741   H759    1.084   .     S
C742   C750    1.439   .     S
C742   C743    1.393   .     A
C743   H771    1.084   .     S
C744   Cl772   1.763   .     S
C744   C745    1.412   .     A
C744   C911    1.386   .     S
C746   N761    1.379   .     A
C746   Cl773   1.755   .     S
C746   C803    1.415   .     S
C747   H774    1.080   .     S
C747   N760    1.360   .     A
C748   Cl775   1.755   .     S
C748   N760    1.380   .     A
C749   H776    1.082   .     S
C749   N761    1.360   .     A
C749   C804    1.415   .     S
C750   O767    1.290   .     A
C750   O766    1.293   .     A
C751   O769    1.296   .     A
C751   C753    1.458   .     S
C751   O768    1.296   .     A
C754   H780    1.083   .     S
C754   C755    1.394   .     A
C755   C252    1.393   1_556 S
C755   Cl278   1.754   1_556 S
C756   H781    1.079   .     S
Cu757  O766    1.960   .     S
Cu757  Cu758   2.688   .     S
Cu757  O764    1.965   .     S
Cu757  O768    1.963   .     S
Cu757  N760    2.020   .     S
Cu757  O762    1.957   .     S
Cu758  O767    1.957   .     S
Cu758  O769    1.965   .     S
Cu758  O763    1.960   .     S
Cu758  N761    2.020   .     S
Cu758  O765    1.963   .     S
H778   C248    1.084   1_556 S
C785   C801    1.450   .     S
C785   O818    1.293   .     A
C785   O819    1.294   .     A
C786   C787    1.415   .     A
C786   C284    1.423   1_556 S
C786   C308    1.413   1_556 S
C787   C794    1.432   .     A
C787   C791    1.418   .     A
C788   C792    1.400   .     A
C789   C790    1.385   .     A
C789   C284    1.419   1_556 S
C789   C304    1.398   1_556 S
C790   C791    1.382   .     A
C790   H833    1.085   .     S
C791   H839    1.076   .     S
C792   C809    1.399   .     A
C792   H835    1.076   .     S
C793   C808    1.387   .     A
C793   H826    1.083   .     S
C793   C809    1.399   .     A
C794   C810    1.404   .     A
C794   C796    1.484   .     S
C795   C801    1.411   .     A
C795   Cl840   1.765   .     S
C795   C965    1.386   .     S
C796   O820    1.315   .     A
C796   O821    1.288   .     A
C797   C798    1.395   .     A
C797   H815    1.084   .     S
C798   C806    1.439   .     S
C798   C799    1.393   .     A
C799   H827    1.084   .     S
C800   Cl828   1.763   .     S
C800   C801    1.412   .     A
C800   C967    1.386   .     S
C802   N817    1.379   .     A
C802   Cl829   1.755   .     S
C802   C691    1.415   1_655 S
C803   H830    1.080   .     S
C803   N816    1.360   .     A
C804   Cl831   1.755   .     S
C804   N816    1.380   .     A
C805   H832    1.082   .     S
C805   N817    1.360   .     A
C805   C692    1.415   1_655 S
C806   O823    1.290   .     A
C806   O822    1.293   .     A
C807   O825    1.296   .     A
C807   C809    1.458   .     S
C807   O824    1.296   .     A
C810   H836    1.083   .     S
C810   C811    1.394   .     A
C811   C308    1.393   1_556 S
C811   Cl334   1.754   1_556 S
C812   H837    1.079   .     S
Cu813  O822    1.960   .     S
Cu813  Cu814   2.688   .     S
Cu813  O820    1.965   .     S
Cu813  O824    1.963   .     S
Cu813  N816    2.020   .     S
Cu813  O818    1.957   .     S
Cu814  O823    1.957   .     S
Cu814  O825    1.965   .     S
Cu814  O819    1.960   .     S
Cu814  N817    2.020   .     S
Cu814  O821    1.963   .     S
H834   C304    1.084   1_556 S
C841   C857    1.450   .     S
C841   O874    1.293   .     A
C841   O875    1.294   .     A
C842   C843    1.415   .     A
C842   C340    1.423   1_556 S
C842   C364    1.413   1_556 S
C843   C850    1.432   .     A
C843   C847    1.418   .     A
C844   C848    1.400   .     A
C845   C846    1.385   .     A
C845   C340    1.419   1_556 S
C845   C360    1.398   1_556 S
C846   C847    1.382   .     A
C846   H889    1.085   .     S
C847   H895    1.076   .     S
C848   C865    1.399   .     A
C848   H891    1.076   .     S
C849   C864    1.387   .     A
C849   H882    1.083   .     S
C849   C865    1.399   .     A
C850   C866    1.404   .     A
C850   C852    1.484   .     S
C851   C857    1.411   .     A
C851   Cl896   1.765   .     S
C851   C517    1.386   1_565 S
C852   O876    1.315   .     A
C852   O877    1.288   .     A
C853   C854    1.395   .     A
C853   H871    1.084   .     S
C854   C862    1.439   .     S
C854   C855    1.393   .     A
C855   H883    1.084   .     S
C856   Cl884   1.763   .     S
C856   C857    1.412   .     A
C856   C519    1.386   1_565 S
C858   N873    1.379   .     A
C858   Cl885   1.755   .     S
C858   C915    1.415   .     S
C859   H886    1.080   .     S
C859   N872    1.360   .     A
C859   C970    1.415   1_455 S
C860   Cl887   1.755   .     S
C860   N872    1.380   .     A
C860   C973    1.415   1_455 S
C861   H888    1.082   .     S
C861   N873    1.360   .     A
C861   C916    1.415   .     S
C862   O879    1.290   .     A
C862   O878    1.293   .     A
C863   O881    1.296   .     A
C863   C865    1.458   .     S
C863   O880    1.296   .     A
C866   H892    1.083   .     S
C866   C867    1.394   .     A
C867   C364    1.393   1_556 S
C867   Cl390   1.754   1_556 S
C868   H893    1.079   .     S
Cu869  O878    1.960   .     S
Cu869  Cu870   2.688   .     S
Cu869  O876    1.965   .     S
Cu869  O880    1.963   .     S
Cu869  N872    2.020   .     S
Cu869  O874    1.957   .     S
Cu870  O879    1.957   .     S
Cu870  O881    1.965   .     S
Cu870  O875    1.960   .     S
Cu870  N873    2.020   .     S
Cu870  O877    1.963   .     S
H890   C360    1.084   1_556 S
C897   C913    1.450   .     S
C897   O930    1.293   .     A
C897   O931    1.294   .     A
C898   C899    1.415   .     A
C898   C396    1.423   1_556 S
C898   C420    1.413   1_556 S
C899   C906    1.432   .     A
C899   C903    1.418   .     A
C900   C904    1.400   .     A
C901   C902    1.385   .     A
C901   C396    1.419   1_556 S
C901   C416    1.398   1_556 S
C902   C903    1.382   .     A
C902   H945    1.085   .     S
C903   H951    1.076   .     S
C904   C921    1.399   .     A
C904   H947    1.076   .     S
C905   C920    1.387   .     A
C905   H938    1.083   .     S
C905   C921    1.399   .     A
C906   C922    1.404   .     A
C906   C908    1.484   .     S
C907   C913    1.411   .     A
C907   Cl952   1.765   .     S
C907   C573    1.386   1_565 S
C908   O932    1.315   .     A
C908   O933    1.288   .     A
C909   C910    1.395   .     A
C909   H927    1.084   .     S
C910   C918    1.439   .     S
C910   C911    1.393   .     A
C911   H939    1.084   .     S
C912   Cl940   1.763   .     S
C912   C913    1.412   .     A
C912   C575    1.386   1_565 S
C914   N929    1.379   .     A
C914   Cl941   1.755   .     S
C914   C971    1.415   .     S
C915   H942    1.080   .     S
C915   N928    1.360   .     A
C916   Cl943   1.755   .     S
C916   N928    1.380   .     A
C917   H944    1.082   .     S
C917   N929    1.360   .     A
C917   C972    1.415   .     S
C918   O935    1.290   .     A
C918   O934    1.293   .     A
C919   O937    1.296   .     A
C919   C921    1.458   .     S
C919   O936    1.296   .     A
C922   H948    1.083   .     S
C922   C923    1.394   .     A
C923   C420    1.393   1_556 S
C923   Cl446   1.754   1_556 S
C924   H949    1.079   .     S
Cu925  O934    1.960   .     S
Cu925  Cu926   2.688   .     S
Cu925  O932    1.965   .     S
Cu925  O936    1.963   .     S
Cu925  N928    2.020   .     S
Cu925  O930    1.957   .     S
Cu926  O935    1.957   .     S
Cu926  O937    1.965   .     S
Cu926  O931    1.960   .     S
Cu926  N929    2.020   .     S
Cu926  O933    1.963   .     S
H946   C416    1.084   1_556 S
C953   C969    1.450   .     S
C953   O986    1.293   .     A
C953   O987    1.294   .     A
C954   C955    1.415   .     A
C954   C452    1.423   1_556 S
C954   C476    1.413   1_556 S
C955   C962    1.432   .     A
C955   C959    1.418   .     A
C956   C960    1.400   .     A
C957   C958    1.385   .     A
C957   C452    1.419   1_556 S
C957   C472    1.398   1_556 S
C958   C959    1.382   .     A
C958   H1001   1.085   .     S
C959   H1007   1.076   .     S
C960   C977    1.399   .     A
C960   H1003   1.076   .     S
C961   C976    1.387   .     A
C961   H994    1.083   .     S
C961   C977    1.399   .     A
C962   C978    1.404   .     A
C962   C964    1.484   .     S
C963   C969    1.411   .     A
C963   Cl1008  1.765   .     S
C963   C629    1.386   1_565 S
C964   O988    1.315   .     A
C964   O989    1.288   .     A
C965   C966    1.395   .     A
C965   H983    1.084   .     S
C966   C974    1.439   .     S
C966   C967    1.393   .     A
C967   H995    1.084   .     S
C968   Cl996   1.763   .     S
C968   C969    1.412   .     A
C968   C631    1.386   1_565 S
C970   N985    1.379   .     A
C970   Cl997   1.755   .     S
C970   C859    1.415   1_655 S
C971   H998    1.080   .     S
C971   N984    1.360   .     A
C972   Cl999   1.755   .     S
C972   N984    1.380   .     A
C973   H1000   1.082   .     S
C973   N985    1.360   .     A
C973   C860    1.415   1_655 S
C974   O991    1.290   .     A
C974   O990    1.293   .     A
C975   O993    1.296   .     A
C975   C977    1.458   .     S
C975   O992    1.296   .     A
C978   H1004   1.083   .     S
C978   C979    1.394   .     A
C979   C476    1.393   1_556 S
C979   Cl502   1.754   1_556 S
C980   H1005   1.079   .     S
Cu981  O990    1.960   .     S
Cu981  Cu982   2.688   .     S
Cu981  O988    1.965   .     S
Cu981  O992    1.963   .     S
Cu981  N984    2.020   .     S
Cu981  O986    1.957   .     S
Cu982  O991    1.957   .     S
Cu982  O993    1.965   .     S
Cu982  O987    1.960   .     S
Cu982  N985    2.020   .     S
Cu982  O989    1.963   .     S
H1002  C472    1.084   1_556 S
