data_str_m2_o1_o18_pcu_sym.136
_audit_creation_date              2020-01-03
_audit_creation_method            'Materials Studio'
_symmetry_space_group_name_H-M    'P1'
_symmetry_Int_Tables_number       1
_symmetry_cell_setting            triclinic
loop_
_symmetry_equiv_pos_as_xyz
  x,y,z
_cell_length_a                    28.7447
_cell_length_b                    32.4843
_cell_length_c                    31.0513
_cell_angle_alpha                 88.7386
_cell_angle_beta                  73.6946
_cell_angle_gamma                 90.4987
loop_
_atom_site_label
_atom_site_type_symbol
_atom_site_fract_x
_atom_site_fract_y
_atom_site_fract_z
_atom_site_U_iso_or_equiv
_atom_site_adp_type
_atom_site_occupancy
C1     C     0.33318   0.08742   0.25008   0.00000  Uiso   1.00
C2     C     0.00014   0.24591   0.24994   0.00000  Uiso   1.00
C3     C     0.18549   0.13085   0.04307   0.00000  Uiso   1.00
C4     C     0.13924   0.17287   0.45147   0.00000  Uiso   1.00
C5     C     0.23319   0.12232   0.02055   0.00000  Uiso   1.00
C6     C     0.09125   0.18049   0.47371   0.00000  Uiso   1.00
C7     C     0.29061   0.02091   0.25130   0.00000  Uiso   1.00
C8     C     0.04271   0.31242   0.24875   0.00000  Uiso   1.00
C9     C     0.29078   0.31166   0.25122   0.00000  Uiso   1.00
C10    C     0.04254   0.02168   0.24883   0.00000  Uiso   1.00
C11    C     0.00016   0.29057   0.24995   0.00000  Uiso   1.00
C12    C     0.33316   0.04277   0.25009   0.00000  Uiso   1.00
C13    C     0.18076   0.14387   0.28171   0.00000  Uiso   1.00
C14    C     0.15258   0.18940   0.21826   0.00000  Uiso   1.00
C15    C     0.13146   0.14438   0.28134   0.00000  Uiso   1.00
C16    C     0.20187   0.18895   0.21865   0.00000  Uiso   1.00
C17    C     0.30589   0.16553   0.33598   0.00000  Uiso   1.00
C18    C     0.02741   0.16724   0.16397   0.00000  Uiso   1.00
C19    C     0.29030   0.15882   0.38478   0.00000  Uiso   1.00
C20    C     0.04238   0.16912   0.11472   0.00000  Uiso   1.00
C21    C     0.30281   0.12760   0.45255   0.00000  Uiso   1.00
C22    C     0.02557   0.18709   0.04407   0.00000  Uiso   1.00
C23    C     0.32034   0.13945   0.40707   0.00000  Uiso   1.00
C24    C     0.01025   0.18191   0.09092   0.00000  Uiso   1.00
C25    C     0.24279   0.16761   0.40794   0.00000  Uiso   1.00
C26    C     0.08986   0.15982   0.09178   0.00000  Uiso   1.00
C27    C     0.22257   0.15428   0.45261   0.00000  Uiso   1.00
C28    C     0.10631   0.16201   0.04475   0.00000  Uiso   1.00
C29    C     0.25328   0.13484   0.47562   0.00000  Uiso   1.00
C30    C     0.07408   0.17682   0.02057   0.00000  Uiso   1.00
C31    C     0.17250   0.16006   0.47480   0.00000  Uiso   1.00
C32    C     0.15473   0.15126   0.02145   0.00000  Uiso   1.00
Cu33   Cu    0.04689   0.16667   0.25000   0.00000  Uiso   1.00
Cu34   Cu    0.28645   0.16666   0.25000   0.00000  Uiso   1.00
H35    H     0.25364   0.10569   0.03935   0.00000  Uiso   1.00
H36    H     0.06820   0.18909   0.45306   0.00000  Uiso   1.00
H37    H     0.11390   0.15209   0.11169   0.00000  Uiso   1.00
H38    H     0.22228   0.18516   0.38998   0.00000  Uiso   1.00
H39    H     0.30693   0.18975   0.10932   0.00000  Uiso   1.00
H40    H     0.02406   0.13287   0.38860   0.00000  Uiso   1.00
H41    H     0.17318   0.11927   0.07723   0.00000  Uiso   1.00
H42    H     0.14862   0.17576   0.41541   0.00000  Uiso   1.00
H43    H     0.25723   0.03661   0.25235   0.00000  Uiso   1.00
H44    H     0.07609   0.29672   0.24770   0.00000  Uiso   1.00
H45    H     0.25745   0.29535   0.25219   0.00000  Uiso   1.00
H46    H     0.07587   0.03798   0.24786   0.00000  Uiso   1.00
H47    H     0.10426   0.12634   0.30584   0.00000  Uiso   1.00
H48    H     0.22906   0.20698   0.19413   0.00000  Uiso   1.00
N49    N     0.11736   0.16668   0.24999   0.00000  Uiso   1.00
N50    N     0.21597   0.16666   0.25001   0.00000  Uiso   1.00
O51    O     0.03958   0.10655   0.25000   0.00000  Uiso   1.00
O52    O     0.29375   0.22678   0.25000   0.00000  Uiso   1.00
O53    O     0.29372   0.10654   0.25000   0.00000  Uiso   1.00
O54    O     0.03961   0.22679   0.24999   0.00000  Uiso   1.00
O55    O     0.01852   0.16668   0.31491   0.00000  Uiso   1.00
O56    O     0.31481   0.16666   0.18508   0.00000  Uiso   1.00
O57    O     0.27267   0.16667   0.31492   0.00000  Uiso   1.00
O58    O     0.06067   0.16667   0.18508   0.00000  Uiso   1.00
C59    C     0.00375   0.10750   0.47438   0.00000  Uiso   1.00
H60    H     0.32984   0.10562   0.01047   0.00000  Uiso   1.00
O61    O     0.04171   0.09316   0.45184   0.00000  Uiso   1.00
C62    C     0.32383   0.20478   0.02146   0.00000  Uiso   1.00
H63    H     0.00170   0.21564   0.48689   0.00000  Uiso   1.00
O64    O     0.28106   0.20816   0.04184   0.00000  Uiso   1.00
C65    C     0.19226   0.11746   0.31683   0.00000  Uiso   1.00
H66    H     0.22776   0.10525   0.31291   0.00000  Uiso   1.00
O67    O     0.16097   0.10818   0.35143   0.00000  Uiso   1.00
C68    C     0.14110   0.21564   0.18302   0.00000  Uiso   1.00
H69    H     0.10575   0.22825   0.18714   0.00000  Uiso   1.00
O70    O     0.17221   0.22422   0.14808   0.00000  Uiso   1.00
C71    C     0.66652   0.08742   0.25008   0.00000  Uiso   1.00
C72    C     0.33348   0.24591   0.24994   0.00000  Uiso   1.00
C73    C     0.51882   0.13085   0.04307   0.00000  Uiso   1.00
C74    C     0.47258   0.17287   0.45147   0.00000  Uiso   1.00
C75    C     0.56652   0.12232   0.02055   0.00000  Uiso   1.00
C76    C     0.42458   0.18049   0.47371   0.00000  Uiso   1.00
C77    C     0.62394   0.02091   0.25130   0.00000  Uiso   1.00
C78    C     0.37604   0.31242   0.24875   0.00000  Uiso   1.00
C79    C     0.62411   0.31166   0.25122   0.00000  Uiso   1.00
C80    C     0.37588   0.02168   0.24883   0.00000  Uiso   1.00
C81    C     0.33349   0.29057   0.24995   0.00000  Uiso   1.00
C82    C     0.66650   0.04277   0.25009   0.00000  Uiso   1.00
C83    C     0.51409   0.14387   0.28171   0.00000  Uiso   1.00
C84    C     0.48592   0.18940   0.21826   0.00000  Uiso   1.00
C85    C     0.46479   0.14438   0.28134   0.00000  Uiso   1.00
C86    C     0.53520   0.18895   0.21865   0.00000  Uiso   1.00
C87    C     0.63922   0.16553   0.33598   0.00000  Uiso   1.00
C88    C     0.36075   0.16724   0.16397   0.00000  Uiso   1.00
C89    C     0.62363   0.15882   0.38478   0.00000  Uiso   1.00
C90    C     0.37571   0.16912   0.11472   0.00000  Uiso   1.00
C91    C     0.63614   0.12760   0.45255   0.00000  Uiso   1.00
C92    C     0.35890   0.18709   0.04407   0.00000  Uiso   1.00
C93    C     0.65368   0.13945   0.40707   0.00000  Uiso   1.00
C94    C     0.34358   0.18191   0.09092   0.00000  Uiso   1.00
C95    C     0.57612   0.16761   0.40794   0.00000  Uiso   1.00
C96    C     0.42319   0.15982   0.09178   0.00000  Uiso   1.00
C97    C     0.55590   0.15428   0.45261   0.00000  Uiso   1.00
C98    C     0.43964   0.16201   0.04475   0.00000  Uiso   1.00
C99    C     0.58662   0.13484   0.47562   0.00000  Uiso   1.00
C100   C     0.40741   0.17682   0.02057   0.00000  Uiso   1.00
C101   C     0.50584   0.16006   0.47480   0.00000  Uiso   1.00
C102   C     0.48806   0.15126   0.02145   0.00000  Uiso   1.00
Cu103  Cu    0.38022   0.16667   0.25000   0.00000  Uiso   1.00
Cu104  Cu    0.61978   0.16666   0.25000   0.00000  Uiso   1.00
H105   H     0.58697   0.10569   0.03935   0.00000  Uiso   1.00
H106   H     0.40154   0.18909   0.45306   0.00000  Uiso   1.00
H107   H     0.44723   0.15209   0.11169   0.00000  Uiso   1.00
H108   H     0.55561   0.18516   0.38998   0.00000  Uiso   1.00
H109   H     0.64026   0.18975   0.10932   0.00000  Uiso   1.00
H110   H     0.35739   0.13287   0.38860   0.00000  Uiso   1.00
H111   H     0.50651   0.11927   0.07723   0.00000  Uiso   1.00
H112   H     0.48196   0.17576   0.41541   0.00000  Uiso   1.00
H113   H     0.59056   0.03661   0.25235   0.00000  Uiso   1.00
H114   H     0.40942   0.29672   0.24770   0.00000  Uiso   1.00
H115   H     0.59078   0.29535   0.25219   0.00000  Uiso   1.00
H116   H     0.40920   0.03798   0.24786   0.00000  Uiso   1.00
H117   H     0.43759   0.12634   0.30584   0.00000  Uiso   1.00
H118   H     0.56239   0.20698   0.19413   0.00000  Uiso   1.00
N119   N     0.45069   0.16668   0.24999   0.00000  Uiso   1.00
N120   N     0.54931   0.16666   0.25001   0.00000  Uiso   1.00
O121   O     0.37291   0.10655   0.25000   0.00000  Uiso   1.00
O122   O     0.62709   0.22678   0.25000   0.00000  Uiso   1.00
O123   O     0.62706   0.10654   0.25000   0.00000  Uiso   1.00
O124   O     0.37294   0.22679   0.24999   0.00000  Uiso   1.00
O125   O     0.35186   0.16668   0.31491   0.00000  Uiso   1.00
O126   O     0.64814   0.16666   0.18508   0.00000  Uiso   1.00
O127   O     0.60600   0.16667   0.31492   0.00000  Uiso   1.00
O128   O     0.39400   0.16667   0.18508   0.00000  Uiso   1.00
C129   C     0.33708   0.10750   0.47438   0.00000  Uiso   1.00
H130   H     0.66318   0.10562   0.01047   0.00000  Uiso   1.00
O131   O     0.37505   0.09316   0.45184   0.00000  Uiso   1.00
C132   C     0.65717   0.20478   0.02146   0.00000  Uiso   1.00
H133   H     0.33504   0.21564   0.48689   0.00000  Uiso   1.00
O134   O     0.61440   0.20816   0.04184   0.00000  Uiso   1.00
C135   C     0.52559   0.11746   0.31683   0.00000  Uiso   1.00
H136   H     0.56109   0.10525   0.31291   0.00000  Uiso   1.00
O137   O     0.49430   0.10818   0.35143   0.00000  Uiso   1.00
C138   C     0.47443   0.21564   0.18302   0.00000  Uiso   1.00
H139   H     0.43908   0.22825   0.18714   0.00000  Uiso   1.00
O140   O     0.50555   0.22422   0.14808   0.00000  Uiso   1.00
C141   C     0.99985   0.08742   0.25008   0.00000  Uiso   1.00
C142   C     0.66681   0.24591   0.24994   0.00000  Uiso   1.00
C143   C     0.85215   0.13085   0.04307   0.00000  Uiso   1.00
C144   C     0.80591   0.17287   0.45147   0.00000  Uiso   1.00
C145   C     0.89985   0.12232   0.02055   0.00000  Uiso   1.00
C146   C     0.75792   0.18049   0.47371   0.00000  Uiso   1.00
C147   C     0.95728   0.02091   0.25130   0.00000  Uiso   1.00
C148   C     0.70937   0.31242   0.24875   0.00000  Uiso   1.00
C149   C     0.95744   0.31166   0.25122   0.00000  Uiso   1.00
C150   C     0.70921   0.02168   0.24883   0.00000  Uiso   1.00
C151   C     0.66683   0.29057   0.24995   0.00000  Uiso   1.00
C152   C     0.99983   0.04277   0.25009   0.00000  Uiso   1.00
C153   C     0.84742   0.14387   0.28171   0.00000  Uiso   1.00
C154   C     0.81925   0.18940   0.21826   0.00000  Uiso   1.00
C155   C     0.79812   0.14438   0.28134   0.00000  Uiso   1.00
C156   C     0.86854   0.18895   0.21865   0.00000  Uiso   1.00
C157   C     0.97256   0.16553   0.33598   0.00000  Uiso   1.00
C158   C     0.69408   0.16724   0.16397   0.00000  Uiso   1.00
C159   C     0.95697   0.15882   0.38478   0.00000  Uiso   1.00
C160   C     0.70905   0.16912   0.11472   0.00000  Uiso   1.00
C161   C     0.96948   0.12760   0.45255   0.00000  Uiso   1.00
C162   C     0.69223   0.18709   0.04407   0.00000  Uiso   1.00
C163   C     0.98701   0.13945   0.40707   0.00000  Uiso   1.00
C164   C     0.67692   0.18191   0.09092   0.00000  Uiso   1.00
C165   C     0.90946   0.16761   0.40794   0.00000  Uiso   1.00
C166   C     0.75653   0.15982   0.09178   0.00000  Uiso   1.00
C167   C     0.88924   0.15428   0.45261   0.00000  Uiso   1.00
C168   C     0.77298   0.16201   0.04475   0.00000  Uiso   1.00
C169   C     0.91995   0.13484   0.47562   0.00000  Uiso   1.00
C170   C     0.74075   0.17682   0.02057   0.00000  Uiso   1.00
C171   C     0.83917   0.16006   0.47480   0.00000  Uiso   1.00
C172   C     0.82139   0.15126   0.02145   0.00000  Uiso   1.00
Cu173  Cu    0.71355   0.16667   0.25000   0.00000  Uiso   1.00
Cu174  Cu    0.95311   0.16666   0.25000   0.00000  Uiso   1.00
H175   H     0.92030   0.10569   0.03935   0.00000  Uiso   1.00
H176   H     0.73487   0.18909   0.45306   0.00000  Uiso   1.00
H177   H     0.78056   0.15209   0.11169   0.00000  Uiso   1.00
H178   H     0.88895   0.18516   0.38998   0.00000  Uiso   1.00
H179   H     0.97359   0.18975   0.10932   0.00000  Uiso   1.00
H180   H     0.69072   0.13287   0.38860   0.00000  Uiso   1.00
H181   H     0.83985   0.11927   0.07723   0.00000  Uiso   1.00
H182   H     0.81529   0.17576   0.41541   0.00000  Uiso   1.00
H183   H     0.92390   0.03661   0.25235   0.00000  Uiso   1.00
H184   H     0.74275   0.29672   0.24770   0.00000  Uiso   1.00
H185   H     0.92412   0.29535   0.25219   0.00000  Uiso   1.00
H186   H     0.74254   0.03798   0.24786   0.00000  Uiso   1.00
H187   H     0.77092   0.12634   0.30584   0.00000  Uiso   1.00
H188   H     0.89573   0.20698   0.19413   0.00000  Uiso   1.00
N189   N     0.78403   0.16668   0.24999   0.00000  Uiso   1.00
N190   N     0.88264   0.16666   0.25001   0.00000  Uiso   1.00
O191   O     0.70625   0.10655   0.25000   0.00000  Uiso   1.00
O192   O     0.96042   0.22678   0.25000   0.00000  Uiso   1.00
O193   O     0.96039   0.10654   0.25000   0.00000  Uiso   1.00
O194   O     0.70628   0.22679   0.24999   0.00000  Uiso   1.00
O195   O     0.68519   0.16668   0.31491   0.00000  Uiso   1.00
O196   O     0.98148   0.16666   0.18508   0.00000  Uiso   1.00
O197   O     0.93933   0.16667   0.31492   0.00000  Uiso   1.00
O198   O     0.72733   0.16667   0.18508   0.00000  Uiso   1.00
C199   C     0.67042   0.10750   0.47438   0.00000  Uiso   1.00
H200   H     0.99651   0.10562   0.01047   0.00000  Uiso   1.00
O201   O     0.70838   0.09316   0.45184   0.00000  Uiso   1.00
C202   C     0.99050   0.20478   0.02146   0.00000  Uiso   1.00
H203   H     0.66837   0.21564   0.48689   0.00000  Uiso   1.00
O204   O     0.94773   0.20816   0.04184   0.00000  Uiso   1.00
C205   C     0.85893   0.11746   0.31683   0.00000  Uiso   1.00
H206   H     0.89442   0.10525   0.31291   0.00000  Uiso   1.00
O207   O     0.82764   0.10818   0.35143   0.00000  Uiso   1.00
C208   C     0.80776   0.21564   0.18302   0.00000  Uiso   1.00
H209   H     0.77242   0.22825   0.18714   0.00000  Uiso   1.00
O210   O     0.83888   0.22422   0.14808   0.00000  Uiso   1.00
C211   C     0.33318   0.42075   0.25008   0.00000  Uiso   1.00
C212   C     0.00014   0.57925   0.24994   0.00000  Uiso   1.00
C213   C     0.18549   0.46419   0.04307   0.00000  Uiso   1.00
C214   C     0.13924   0.50620   0.45147   0.00000  Uiso   1.00
C215   C     0.23319   0.45566   0.02055   0.00000  Uiso   1.00
C216   C     0.09125   0.51382   0.47371   0.00000  Uiso   1.00
C217   C     0.29061   0.35424   0.25130   0.00000  Uiso   1.00
C218   C     0.04271   0.64576   0.24875   0.00000  Uiso   1.00
C219   C     0.29078   0.64499   0.25122   0.00000  Uiso   1.00
C220   C     0.04254   0.35501   0.24883   0.00000  Uiso   1.00
C221   C     0.00016   0.62390   0.24995   0.00000  Uiso   1.00
C222   C     0.33316   0.37610   0.25009   0.00000  Uiso   1.00
C223   C     0.18076   0.47721   0.28171   0.00000  Uiso   1.00
C224   C     0.15258   0.52274   0.21826   0.00000  Uiso   1.00
C225   C     0.13146   0.47771   0.28134   0.00000  Uiso   1.00
C226   C     0.20187   0.52228   0.21865   0.00000  Uiso   1.00
C227   C     0.30589   0.49886   0.33598   0.00000  Uiso   1.00
C228   C     0.02741   0.50057   0.16397   0.00000  Uiso   1.00
C229   C     0.29030   0.49215   0.38478   0.00000  Uiso   1.00
C230   C     0.04238   0.50245   0.11472   0.00000  Uiso   1.00
C231   C     0.30281   0.46093   0.45255   0.00000  Uiso   1.00
C232   C     0.02557   0.52042   0.04407   0.00000  Uiso   1.00
C233   C     0.32034   0.47278   0.40707   0.00000  Uiso   1.00
C234   C     0.01025   0.51524   0.09092   0.00000  Uiso   1.00
C235   C     0.24279   0.50094   0.40794   0.00000  Uiso   1.00
C236   C     0.08986   0.49315   0.09178   0.00000  Uiso   1.00
C237   C     0.22257   0.48761   0.45261   0.00000  Uiso   1.00
C238   C     0.10631   0.49534   0.04475   0.00000  Uiso   1.00
C239   C     0.25328   0.46817   0.47562   0.00000  Uiso   1.00
C240   C     0.07408   0.51015   0.02057   0.00000  Uiso   1.00
C241   C     0.17250   0.49339   0.47480   0.00000  Uiso   1.00
C242   C     0.15473   0.48459   0.02145   0.00000  Uiso   1.00
Cu243  Cu    0.04689   0.50001   0.25000   0.00000  Uiso   1.00
Cu244  Cu    0.28645   0.49999   0.25000   0.00000  Uiso   1.00
H245   H     0.25364   0.43902   0.03935   0.00000  Uiso   1.00
H246   H     0.06820   0.52242   0.45306   0.00000  Uiso   1.00
H247   H     0.11390   0.48542   0.11169   0.00000  Uiso   1.00
H248   H     0.22228   0.51850   0.38998   0.00000  Uiso   1.00
H249   H     0.30693   0.52308   0.10932   0.00000  Uiso   1.00
H250   H     0.02406   0.46621   0.38860   0.00000  Uiso   1.00
H251   H     0.17318   0.45261   0.07723   0.00000  Uiso   1.00
H252   H     0.14862   0.50909   0.41541   0.00000  Uiso   1.00
H253   H     0.25723   0.36995   0.25235   0.00000  Uiso   1.00
H254   H     0.07609   0.63006   0.24770   0.00000  Uiso   1.00
H255   H     0.25745   0.62869   0.25219   0.00000  Uiso   1.00
H256   H     0.07587   0.37132   0.24786   0.00000  Uiso   1.00
H257   H     0.10426   0.45967   0.30584   0.00000  Uiso   1.00
H258   H     0.22906   0.54031   0.19413   0.00000  Uiso   1.00
N259   N     0.11736   0.50001   0.24999   0.00000  Uiso   1.00
N260   N     0.21597   0.49999   0.25001   0.00000  Uiso   1.00
O261   O     0.03958   0.43989   0.25000   0.00000  Uiso   1.00
O262   O     0.29375   0.56011   0.25000   0.00000  Uiso   1.00
O263   O     0.29372   0.43988   0.25000   0.00000  Uiso   1.00
O264   O     0.03961   0.56012   0.24999   0.00000  Uiso   1.00
O265   O     0.01852   0.50001   0.31491   0.00000  Uiso   1.00
O266   O     0.31481   0.49999   0.18508   0.00000  Uiso   1.00
O267   O     0.27267   0.50000   0.31492   0.00000  Uiso   1.00
O268   O     0.06067   0.50000   0.18508   0.00000  Uiso   1.00
C269   C     0.00375   0.44084   0.47438   0.00000  Uiso   1.00
H270   H     0.32984   0.43895   0.01047   0.00000  Uiso   1.00
O271   O     0.04171   0.42649   0.45184   0.00000  Uiso   1.00
C272   C     0.32383   0.53811   0.02146   0.00000  Uiso   1.00
H273   H     0.00170   0.54897   0.48689   0.00000  Uiso   1.00
O274   O     0.28106   0.54149   0.04184   0.00000  Uiso   1.00
C275   C     0.19226   0.45079   0.31683   0.00000  Uiso   1.00
H276   H     0.22776   0.43859   0.31291   0.00000  Uiso   1.00
O277   O     0.16097   0.44151   0.35143   0.00000  Uiso   1.00
C278   C     0.14110   0.54897   0.18302   0.00000  Uiso   1.00
H279   H     0.10575   0.56158   0.18714   0.00000  Uiso   1.00
O280   O     0.17221   0.55755   0.14808   0.00000  Uiso   1.00
C281   C     0.66652   0.42075   0.25008   0.00000  Uiso   1.00
C282   C     0.33348   0.57925   0.24994   0.00000  Uiso   1.00
C283   C     0.51882   0.46419   0.04307   0.00000  Uiso   1.00
C284   C     0.47258   0.50620   0.45147   0.00000  Uiso   1.00
C285   C     0.56652   0.45566   0.02055   0.00000  Uiso   1.00
C286   C     0.42458   0.51382   0.47371   0.00000  Uiso   1.00
C287   C     0.62394   0.35424   0.25130   0.00000  Uiso   1.00
C288   C     0.37604   0.64576   0.24875   0.00000  Uiso   1.00
C289   C     0.62411   0.64499   0.25122   0.00000  Uiso   1.00
C290   C     0.37588   0.35501   0.24883   0.00000  Uiso   1.00
C291   C     0.33349   0.62390   0.24995   0.00000  Uiso   1.00
C292   C     0.66650   0.37610   0.25009   0.00000  Uiso   1.00
C293   C     0.51409   0.47721   0.28171   0.00000  Uiso   1.00
C294   C     0.48592   0.52274   0.21826   0.00000  Uiso   1.00
C295   C     0.46479   0.47771   0.28134   0.00000  Uiso   1.00
C296   C     0.53520   0.52228   0.21865   0.00000  Uiso   1.00
C297   C     0.63922   0.49886   0.33598   0.00000  Uiso   1.00
C298   C     0.36075   0.50057   0.16397   0.00000  Uiso   1.00
C299   C     0.62363   0.49215   0.38478   0.00000  Uiso   1.00
C300   C     0.37571   0.50245   0.11472   0.00000  Uiso   1.00
C301   C     0.63614   0.46093   0.45255   0.00000  Uiso   1.00
C302   C     0.35890   0.52042   0.04407   0.00000  Uiso   1.00
C303   C     0.65368   0.47278   0.40707   0.00000  Uiso   1.00
C304   C     0.34358   0.51524   0.09092   0.00000  Uiso   1.00
C305   C     0.57612   0.50094   0.40794   0.00000  Uiso   1.00
C306   C     0.42319   0.49315   0.09178   0.00000  Uiso   1.00
C307   C     0.55590   0.48761   0.45261   0.00000  Uiso   1.00
C308   C     0.43964   0.49534   0.04475   0.00000  Uiso   1.00
C309   C     0.58662   0.46817   0.47562   0.00000  Uiso   1.00
C310   C     0.40741   0.51015   0.02057   0.00000  Uiso   1.00
C311   C     0.50584   0.49339   0.47480   0.00000  Uiso   1.00
C312   C     0.48806   0.48459   0.02145   0.00000  Uiso   1.00
Cu313  Cu    0.38022   0.50001   0.25000   0.00000  Uiso   1.00
Cu314  Cu    0.61978   0.49999   0.25000   0.00000  Uiso   1.00
H315   H     0.58697   0.43902   0.03935   0.00000  Uiso   1.00
H316   H     0.40154   0.52242   0.45306   0.00000  Uiso   1.00
H317   H     0.44723   0.48542   0.11169   0.00000  Uiso   1.00
H318   H     0.55561   0.51850   0.38998   0.00000  Uiso   1.00
H319   H     0.64026   0.52308   0.10932   0.00000  Uiso   1.00
H320   H     0.35739   0.46621   0.38860   0.00000  Uiso   1.00
H321   H     0.50651   0.45261   0.07723   0.00000  Uiso   1.00
H322   H     0.48196   0.50909   0.41541   0.00000  Uiso   1.00
H323   H     0.59056   0.36995   0.25235   0.00000  Uiso   1.00
H324   H     0.40942   0.63006   0.24770   0.00000  Uiso   1.00
H325   H     0.59078   0.62869   0.25219   0.00000  Uiso   1.00
H326   H     0.40920   0.37132   0.24786   0.00000  Uiso   1.00
H327   H     0.43759   0.45967   0.30584   0.00000  Uiso   1.00
H328   H     0.56239   0.54031   0.19413   0.00000  Uiso   1.00
N329   N     0.45069   0.50001   0.24999   0.00000  Uiso   1.00
N330   N     0.54931   0.49999   0.25001   0.00000  Uiso   1.00
O331   O     0.37291   0.43989   0.25000   0.00000  Uiso   1.00
O332   O     0.62709   0.56011   0.25000   0.00000  Uiso   1.00
O333   O     0.62706   0.43988   0.25000   0.00000  Uiso   1.00
O334   O     0.37294   0.56012   0.24999   0.00000  Uiso   1.00
O335   O     0.35186   0.50001   0.31491   0.00000  Uiso   1.00
O336   O     0.64814   0.49999   0.18508   0.00000  Uiso   1.00
O337   O     0.60600   0.50000   0.31492   0.00000  Uiso   1.00
O338   O     0.39400   0.50000   0.18508   0.00000  Uiso   1.00
C339   C     0.33708   0.44084   0.47438   0.00000  Uiso   1.00
H340   H     0.66318   0.43895   0.01047   0.00000  Uiso   1.00
O341   O     0.37505   0.42649   0.45184   0.00000  Uiso   1.00
C342   C     0.65717   0.53811   0.02146   0.00000  Uiso   1.00
H343   H     0.33504   0.54897   0.48689   0.00000  Uiso   1.00
O344   O     0.61440   0.54149   0.04184   0.00000  Uiso   1.00
C345   C     0.52559   0.45079   0.31683   0.00000  Uiso   1.00
H346   H     0.56109   0.43859   0.31291   0.00000  Uiso   1.00
O347   O     0.49430   0.44151   0.35143   0.00000  Uiso   1.00
C348   C     0.47443   0.54897   0.18302   0.00000  Uiso   1.00
H349   H     0.43908   0.56158   0.18714   0.00000  Uiso   1.00
O350   O     0.50555   0.55755   0.14808   0.00000  Uiso   1.00
C351   C     0.99985   0.42075   0.25008   0.00000  Uiso   1.00
C352   C     0.66681   0.57925   0.24994   0.00000  Uiso   1.00
C353   C     0.85215   0.46419   0.04307   0.00000  Uiso   1.00
C354   C     0.80591   0.50620   0.45147   0.00000  Uiso   1.00
C355   C     0.89985   0.45566   0.02055   0.00000  Uiso   1.00
C356   C     0.75792   0.51382   0.47371   0.00000  Uiso   1.00
C357   C     0.95728   0.35424   0.25130   0.00000  Uiso   1.00
C358   C     0.70937   0.64576   0.24875   0.00000  Uiso   1.00
C359   C     0.95744   0.64499   0.25122   0.00000  Uiso   1.00
C360   C     0.70921   0.35501   0.24883   0.00000  Uiso   1.00
C361   C     0.66683   0.62390   0.24995   0.00000  Uiso   1.00
C362   C     0.99983   0.37610   0.25009   0.00000  Uiso   1.00
C363   C     0.84742   0.47721   0.28171   0.00000  Uiso   1.00
C364   C     0.81925   0.52274   0.21826   0.00000  Uiso   1.00
C365   C     0.79812   0.47771   0.28134   0.00000  Uiso   1.00
C366   C     0.86854   0.52228   0.21865   0.00000  Uiso   1.00
C367   C     0.97256   0.49886   0.33598   0.00000  Uiso   1.00
C368   C     0.69408   0.50057   0.16397   0.00000  Uiso   1.00
C369   C     0.95697   0.49215   0.38478   0.00000  Uiso   1.00
C370   C     0.70905   0.50245   0.11472   0.00000  Uiso   1.00
C371   C     0.96948   0.46093   0.45255   0.00000  Uiso   1.00
C372   C     0.69223   0.52042   0.04407   0.00000  Uiso   1.00
C373   C     0.98701   0.47278   0.40707   0.00000  Uiso   1.00
C374   C     0.67692   0.51524   0.09092   0.00000  Uiso   1.00
C375   C     0.90946   0.50094   0.40794   0.00000  Uiso   1.00
C376   C     0.75653   0.49315   0.09178   0.00000  Uiso   1.00
C377   C     0.88924   0.48761   0.45261   0.00000  Uiso   1.00
C378   C     0.77298   0.49534   0.04475   0.00000  Uiso   1.00
C379   C     0.91995   0.46817   0.47562   0.00000  Uiso   1.00
C380   C     0.74075   0.51015   0.02057   0.00000  Uiso   1.00
C381   C     0.83917   0.49339   0.47480   0.00000  Uiso   1.00
C382   C     0.82139   0.48459   0.02145   0.00000  Uiso   1.00
Cu383  Cu    0.71355   0.50001   0.25000   0.00000  Uiso   1.00
Cu384  Cu    0.95311   0.49999   0.25000   0.00000  Uiso   1.00
H385   H     0.92030   0.43902   0.03935   0.00000  Uiso   1.00
H386   H     0.73487   0.52242   0.45306   0.00000  Uiso   1.00
H387   H     0.78056   0.48542   0.11169   0.00000  Uiso   1.00
H388   H     0.88895   0.51850   0.38998   0.00000  Uiso   1.00
H389   H     0.97359   0.52308   0.10932   0.00000  Uiso   1.00
H390   H     0.69072   0.46621   0.38860   0.00000  Uiso   1.00
H391   H     0.83985   0.45261   0.07723   0.00000  Uiso   1.00
H392   H     0.81529   0.50909   0.41541   0.00000  Uiso   1.00
H393   H     0.92390   0.36995   0.25235   0.00000  Uiso   1.00
H394   H     0.74275   0.63006   0.24770   0.00000  Uiso   1.00
H395   H     0.92412   0.62869   0.25219   0.00000  Uiso   1.00
H396   H     0.74254   0.37132   0.24786   0.00000  Uiso   1.00
H397   H     0.77092   0.45967   0.30584   0.00000  Uiso   1.00
H398   H     0.89573   0.54031   0.19413   0.00000  Uiso   1.00
N399   N     0.78403   0.50001   0.24999   0.00000  Uiso   1.00
N400   N     0.88264   0.49999   0.25001   0.00000  Uiso   1.00
O401   O     0.70625   0.43989   0.25000   0.00000  Uiso   1.00
O402   O     0.96042   0.56011   0.25000   0.00000  Uiso   1.00
O403   O     0.96039   0.43988   0.25000   0.00000  Uiso   1.00
O404   O     0.70628   0.56012   0.24999   0.00000  Uiso   1.00
O405   O     0.68519   0.50001   0.31491   0.00000  Uiso   1.00
O406   O     0.98148   0.49999   0.18508   0.00000  Uiso   1.00
O407   O     0.93933   0.50000   0.31492   0.00000  Uiso   1.00
O408   O     0.72733   0.50000   0.18508   0.00000  Uiso   1.00
C409   C     0.67042   0.44084   0.47438   0.00000  Uiso   1.00
H410   H     0.99651   0.43895   0.01047   0.00000  Uiso   1.00
O411   O     0.70838   0.42649   0.45184   0.00000  Uiso   1.00
C412   C     0.99050   0.53811   0.02146   0.00000  Uiso   1.00
H413   H     0.66837   0.54897   0.48689   0.00000  Uiso   1.00
O414   O     0.94773   0.54149   0.04184   0.00000  Uiso   1.00
C415   C     0.85893   0.45079   0.31683   0.00000  Uiso   1.00
H416   H     0.89442   0.43859   0.31291   0.00000  Uiso   1.00
O417   O     0.82764   0.44151   0.35143   0.00000  Uiso   1.00
C418   C     0.80776   0.54897   0.18302   0.00000  Uiso   1.00
H419   H     0.77242   0.56158   0.18714   0.00000  Uiso   1.00
O420   O     0.83888   0.55755   0.14808   0.00000  Uiso   1.00
C421   C     0.33318   0.75409   0.25008   0.00000  Uiso   1.00
C422   C     0.00014   0.91258   0.24994   0.00000  Uiso   1.00
C423   C     0.18549   0.79752   0.04307   0.00000  Uiso   1.00
C424   C     0.13924   0.83953   0.45147   0.00000  Uiso   1.00
C425   C     0.23319   0.78899   0.02055   0.00000  Uiso   1.00
C426   C     0.09125   0.84715   0.47371   0.00000  Uiso   1.00
C427   C     0.29061   0.68758   0.25130   0.00000  Uiso   1.00
C428   C     0.04271   0.97909   0.24875   0.00000  Uiso   1.00
C429   C     0.29078   0.97832   0.25122   0.00000  Uiso   1.00
C430   C     0.04254   0.68834   0.24883   0.00000  Uiso   1.00
C431   C     0.00016   0.95723   0.24995   0.00000  Uiso   1.00
C432   C     0.33316   0.70944   0.25009   0.00000  Uiso   1.00
C433   C     0.18076   0.81054   0.28171   0.00000  Uiso   1.00
C434   C     0.15258   0.85607   0.21826   0.00000  Uiso   1.00
C435   C     0.13146   0.81104   0.28134   0.00000  Uiso   1.00
C436   C     0.20187   0.85561   0.21865   0.00000  Uiso   1.00
C437   C     0.30589   0.83219   0.33598   0.00000  Uiso   1.00
C438   C     0.02741   0.83390   0.16397   0.00000  Uiso   1.00
C439   C     0.29030   0.82549   0.38478   0.00000  Uiso   1.00
C440   C     0.04238   0.83578   0.11472   0.00000  Uiso   1.00
C441   C     0.30281   0.79426   0.45255   0.00000  Uiso   1.00
C442   C     0.02557   0.85376   0.04407   0.00000  Uiso   1.00
C443   C     0.32034   0.80611   0.40707   0.00000  Uiso   1.00
C444   C     0.01025   0.84857   0.09092   0.00000  Uiso   1.00
C445   C     0.24279   0.83428   0.40794   0.00000  Uiso   1.00
C446   C     0.08986   0.82648   0.09178   0.00000  Uiso   1.00
C447   C     0.22257   0.82095   0.45261   0.00000  Uiso   1.00
C448   C     0.10631   0.82867   0.04475   0.00000  Uiso   1.00
C449   C     0.25328   0.80151   0.47562   0.00000  Uiso   1.00
C450   C     0.07408   0.84349   0.02057   0.00000  Uiso   1.00
C451   C     0.17250   0.82672   0.47480   0.00000  Uiso   1.00
C452   C     0.15473   0.81792   0.02145   0.00000  Uiso   1.00
Cu453  Cu    0.04689   0.83334   0.25000   0.00000  Uiso   1.00
Cu454  Cu    0.28645   0.83333   0.25000   0.00000  Uiso   1.00
H455   H     0.25364   0.77236   0.03935   0.00000  Uiso   1.00
H456   H     0.06820   0.85575   0.45306   0.00000  Uiso   1.00
H457   H     0.11390   0.81875   0.11169   0.00000  Uiso   1.00
H458   H     0.22228   0.85183   0.38998   0.00000  Uiso   1.00
H459   H     0.30693   0.85642   0.10932   0.00000  Uiso   1.00
H460   H     0.02406   0.79954   0.38860   0.00000  Uiso   1.00
H461   H     0.17318   0.78594   0.07723   0.00000  Uiso   1.00
H462   H     0.14862   0.84242   0.41541   0.00000  Uiso   1.00
H463   H     0.25723   0.70328   0.25235   0.00000  Uiso   1.00
H464   H     0.07609   0.96339   0.24770   0.00000  Uiso   1.00
H465   H     0.25745   0.96202   0.25219   0.00000  Uiso   1.00
H466   H     0.07587   0.70465   0.24786   0.00000  Uiso   1.00
H467   H     0.10426   0.79300   0.30584   0.00000  Uiso   1.00
H468   H     0.22906   0.87365   0.19413   0.00000  Uiso   1.00
N469   N     0.11736   0.83334   0.24999   0.00000  Uiso   1.00
N470   N     0.21597   0.83332   0.25001   0.00000  Uiso   1.00
O471   O     0.03958   0.77322   0.25000   0.00000  Uiso   1.00
O472   O     0.29375   0.89345   0.25000   0.00000  Uiso   1.00
O473   O     0.29372   0.77321   0.25000   0.00000  Uiso   1.00
O474   O     0.03961   0.89346   0.24999   0.00000  Uiso   1.00
O475   O     0.01852   0.83334   0.31491   0.00000  Uiso   1.00
O476   O     0.31481   0.83332   0.18508   0.00000  Uiso   1.00
O477   O     0.27267   0.83333   0.31492   0.00000  Uiso   1.00
O478   O     0.06067   0.83333   0.18508   0.00000  Uiso   1.00
C479   C     0.00375   0.77417   0.47438   0.00000  Uiso   1.00
H480   H     0.32984   0.77229   0.01047   0.00000  Uiso   1.00
O481   O     0.04171   0.75982   0.45184   0.00000  Uiso   1.00
C482   C     0.32383   0.87145   0.02146   0.00000  Uiso   1.00
H483   H     0.00170   0.88231   0.48689   0.00000  Uiso   1.00
O484   O     0.28106   0.87482   0.04184   0.00000  Uiso   1.00
C485   C     0.19226   0.78413   0.31683   0.00000  Uiso   1.00
H486   H     0.22776   0.77192   0.31291   0.00000  Uiso   1.00
O487   O     0.16097   0.77484   0.35143   0.00000  Uiso   1.00
C488   C     0.14110   0.88230   0.18302   0.00000  Uiso   1.00
H489   H     0.10575   0.89492   0.18714   0.00000  Uiso   1.00
O490   O     0.17221   0.89089   0.14808   0.00000  Uiso   1.00
C491   C     0.66652   0.75409   0.25008   0.00000  Uiso   1.00
C492   C     0.33348   0.91258   0.24994   0.00000  Uiso   1.00
C493   C     0.51882   0.79752   0.04307   0.00000  Uiso   1.00
C494   C     0.47258   0.83953   0.45147   0.00000  Uiso   1.00
C495   C     0.56652   0.78899   0.02055   0.00000  Uiso   1.00
C496   C     0.42458   0.84715   0.47371   0.00000  Uiso   1.00
C497   C     0.62394   0.68758   0.25130   0.00000  Uiso   1.00
C498   C     0.37604   0.97909   0.24875   0.00000  Uiso   1.00
C499   C     0.62411   0.97832   0.25122   0.00000  Uiso   1.00
C500   C     0.37588   0.68834   0.24883   0.00000  Uiso   1.00
C501   C     0.33349   0.95723   0.24995   0.00000  Uiso   1.00
C502   C     0.66650   0.70944   0.25009   0.00000  Uiso   1.00
C503   C     0.51409   0.81054   0.28171   0.00000  Uiso   1.00
C504   C     0.48592   0.85607   0.21826   0.00000  Uiso   1.00
C505   C     0.46479   0.81104   0.28134   0.00000  Uiso   1.00
C506   C     0.53520   0.85561   0.21865   0.00000  Uiso   1.00
C507   C     0.63922   0.83219   0.33598   0.00000  Uiso   1.00
C508   C     0.36075   0.83390   0.16397   0.00000  Uiso   1.00
C509   C     0.62363   0.82549   0.38478   0.00000  Uiso   1.00
C510   C     0.37571   0.83578   0.11472   0.00000  Uiso   1.00
C511   C     0.63614   0.79426   0.45255   0.00000  Uiso   1.00
C512   C     0.35890   0.85376   0.04407   0.00000  Uiso   1.00
C513   C     0.65368   0.80611   0.40707   0.00000  Uiso   1.00
C514   C     0.34358   0.84857   0.09092   0.00000  Uiso   1.00
C515   C     0.57612   0.83428   0.40794   0.00000  Uiso   1.00
C516   C     0.42319   0.82648   0.09178   0.00000  Uiso   1.00
C517   C     0.55590   0.82095   0.45261   0.00000  Uiso   1.00
C518   C     0.43964   0.82867   0.04475   0.00000  Uiso   1.00
C519   C     0.58662   0.80151   0.47562   0.00000  Uiso   1.00
C520   C     0.40741   0.84349   0.02057   0.00000  Uiso   1.00
C521   C     0.50584   0.82672   0.47480   0.00000  Uiso   1.00
C522   C     0.48806   0.81792   0.02145   0.00000  Uiso   1.00
Cu523  Cu    0.38022   0.83334   0.25000   0.00000  Uiso   1.00
Cu524  Cu    0.61978   0.83333   0.25000   0.00000  Uiso   1.00
H525   H     0.58697   0.77236   0.03935   0.00000  Uiso   1.00
H526   H     0.40154   0.85575   0.45306   0.00000  Uiso   1.00
H527   H     0.44723   0.81875   0.11169   0.00000  Uiso   1.00
H528   H     0.55561   0.85183   0.38998   0.00000  Uiso   1.00
H529   H     0.64026   0.85642   0.10932   0.00000  Uiso   1.00
H530   H     0.35739   0.79954   0.38860   0.00000  Uiso   1.00
H531   H     0.50651   0.78594   0.07723   0.00000  Uiso   1.00
H532   H     0.48196   0.84242   0.41541   0.00000  Uiso   1.00
H533   H     0.59056   0.70328   0.25235   0.00000  Uiso   1.00
H534   H     0.40942   0.96339   0.24770   0.00000  Uiso   1.00
H535   H     0.59078   0.96202   0.25219   0.00000  Uiso   1.00
H536   H     0.40920   0.70465   0.24786   0.00000  Uiso   1.00
H537   H     0.43759   0.79300   0.30584   0.00000  Uiso   1.00
H538   H     0.56239   0.87365   0.19413   0.00000  Uiso   1.00
N539   N     0.45069   0.83334   0.24999   0.00000  Uiso   1.00
N540   N     0.54931   0.83332   0.25001   0.00000  Uiso   1.00
O541   O     0.37291   0.77322   0.25000   0.00000  Uiso   1.00
O542   O     0.62709   0.89345   0.25000   0.00000  Uiso   1.00
O543   O     0.62706   0.77321   0.25000   0.00000  Uiso   1.00
O544   O     0.37294   0.89346   0.24999   0.00000  Uiso   1.00
O545   O     0.35186   0.83334   0.31491   0.00000  Uiso   1.00
O546   O     0.64814   0.83332   0.18508   0.00000  Uiso   1.00
O547   O     0.60600   0.83333   0.31492   0.00000  Uiso   1.00
O548   O     0.39400   0.83333   0.18508   0.00000  Uiso   1.00
C549   C     0.33708   0.77417   0.47438   0.00000  Uiso   1.00
H550   H     0.66318   0.77229   0.01047   0.00000  Uiso   1.00
O551   O     0.37505   0.75982   0.45184   0.00000  Uiso   1.00
C552   C     0.65717   0.87145   0.02146   0.00000  Uiso   1.00
H553   H     0.33504   0.88231   0.48689   0.00000  Uiso   1.00
O554   O     0.61440   0.87482   0.04184   0.00000  Uiso   1.00
C555   C     0.52559   0.78413   0.31683   0.00000  Uiso   1.00
H556   H     0.56109   0.77192   0.31291   0.00000  Uiso   1.00
O557   O     0.49430   0.77484   0.35143   0.00000  Uiso   1.00
C558   C     0.47443   0.88230   0.18302   0.00000  Uiso   1.00
H559   H     0.43908   0.89492   0.18714   0.00000  Uiso   1.00
O560   O     0.50555   0.89089   0.14808   0.00000  Uiso   1.00
C561   C     0.99985   0.75409   0.25008   0.00000  Uiso   1.00
C562   C     0.66681   0.91258   0.24994   0.00000  Uiso   1.00
C563   C     0.85215   0.79752   0.04307   0.00000  Uiso   1.00
C564   C     0.80591   0.83953   0.45147   0.00000  Uiso   1.00
C565   C     0.89985   0.78899   0.02055   0.00000  Uiso   1.00
C566   C     0.75792   0.84715   0.47371   0.00000  Uiso   1.00
C567   C     0.95728   0.68758   0.25130   0.00000  Uiso   1.00
C568   C     0.70937   0.97909   0.24875   0.00000  Uiso   1.00
C569   C     0.95744   0.97832   0.25122   0.00000  Uiso   1.00
C570   C     0.70921   0.68834   0.24883   0.00000  Uiso   1.00
C571   C     0.66683   0.95723   0.24995   0.00000  Uiso   1.00
C572   C     0.99983   0.70944   0.25009   0.00000  Uiso   1.00
C573   C     0.84742   0.81054   0.28171   0.00000  Uiso   1.00
C574   C     0.81925   0.85607   0.21826   0.00000  Uiso   1.00
C575   C     0.79812   0.81104   0.28134   0.00000  Uiso   1.00
C576   C     0.86854   0.85561   0.21865   0.00000  Uiso   1.00
C577   C     0.97256   0.83219   0.33598   0.00000  Uiso   1.00
C578   C     0.69408   0.83390   0.16397   0.00000  Uiso   1.00
C579   C     0.95697   0.82549   0.38478   0.00000  Uiso   1.00
C580   C     0.70905   0.83578   0.11472   0.00000  Uiso   1.00
C581   C     0.96948   0.79426   0.45255   0.00000  Uiso   1.00
C582   C     0.69223   0.85376   0.04407   0.00000  Uiso   1.00
C583   C     0.98701   0.80611   0.40707   0.00000  Uiso   1.00
C584   C     0.67692   0.84857   0.09092   0.00000  Uiso   1.00
C585   C     0.90946   0.83428   0.40794   0.00000  Uiso   1.00
C586   C     0.75653   0.82648   0.09178   0.00000  Uiso   1.00
C587   C     0.88924   0.82095   0.45261   0.00000  Uiso   1.00
C588   C     0.77298   0.82867   0.04475   0.00000  Uiso   1.00
C589   C     0.91995   0.80151   0.47562   0.00000  Uiso   1.00
C590   C     0.74075   0.84349   0.02057   0.00000  Uiso   1.00
C591   C     0.83917   0.82672   0.47480   0.00000  Uiso   1.00
C592   C     0.82139   0.81792   0.02145   0.00000  Uiso   1.00
Cu593  Cu    0.71355   0.83334   0.25000   0.00000  Uiso   1.00
Cu594  Cu    0.95311   0.83333   0.25000   0.00000  Uiso   1.00
H595   H     0.92030   0.77236   0.03935   0.00000  Uiso   1.00
H596   H     0.73487   0.85575   0.45306   0.00000  Uiso   1.00
H597   H     0.78056   0.81875   0.11169   0.00000  Uiso   1.00
H598   H     0.88895   0.85183   0.38998   0.00000  Uiso   1.00
H599   H     0.97359   0.85642   0.10932   0.00000  Uiso   1.00
H600   H     0.69072   0.79954   0.38860   0.00000  Uiso   1.00
H601   H     0.83985   0.78594   0.07723   0.00000  Uiso   1.00
H602   H     0.81529   0.84242   0.41541   0.00000  Uiso   1.00
H603   H     0.92390   0.70328   0.25235   0.00000  Uiso   1.00
H604   H     0.74275   0.96339   0.24770   0.00000  Uiso   1.00
H605   H     0.92412   0.96202   0.25219   0.00000  Uiso   1.00
H606   H     0.74254   0.70465   0.24786   0.00000  Uiso   1.00
H607   H     0.77092   0.79300   0.30584   0.00000  Uiso   1.00
H608   H     0.89573   0.87365   0.19413   0.00000  Uiso   1.00
N609   N     0.78403   0.83334   0.24999   0.00000  Uiso   1.00
N610   N     0.88264   0.83332   0.25001   0.00000  Uiso   1.00
O611   O     0.70625   0.77322   0.25000   0.00000  Uiso   1.00
O612   O     0.96042   0.89345   0.25000   0.00000  Uiso   1.00
O613   O     0.96039   0.77321   0.25000   0.00000  Uiso   1.00
O614   O     0.70628   0.89346   0.24999   0.00000  Uiso   1.00
O615   O     0.68519   0.83334   0.31491   0.00000  Uiso   1.00
O616   O     0.98148   0.83332   0.18508   0.00000  Uiso   1.00
O617   O     0.93933   0.83333   0.31492   0.00000  Uiso   1.00
O618   O     0.72733   0.83333   0.18508   0.00000  Uiso   1.00
C619   C     0.67042   0.77417   0.47438   0.00000  Uiso   1.00
H620   H     0.99651   0.77229   0.01047   0.00000  Uiso   1.00
O621   O     0.70838   0.75982   0.45184   0.00000  Uiso   1.00
C622   C     0.99050   0.87145   0.02146   0.00000  Uiso   1.00
H623   H     0.66837   0.88231   0.48689   0.00000  Uiso   1.00
O624   O     0.94773   0.87482   0.04184   0.00000  Uiso   1.00
C625   C     0.85893   0.78413   0.31683   0.00000  Uiso   1.00
H626   H     0.89442   0.77192   0.31291   0.00000  Uiso   1.00
O627   O     0.82764   0.77484   0.35143   0.00000  Uiso   1.00
C628   C     0.80776   0.88230   0.18302   0.00000  Uiso   1.00
H629   H     0.77242   0.89492   0.18714   0.00000  Uiso   1.00
O630   O     0.83888   0.89089   0.14808   0.00000  Uiso   1.00
C631   C     0.33318   0.08742   0.75008   0.00000  Uiso   1.00
C632   C     0.00014   0.24591   0.74994   0.00000  Uiso   1.00
C633   C     0.18549   0.13085   0.54307   0.00000  Uiso   1.00
C634   C     0.13924   0.17287   0.95147   0.00000  Uiso   1.00
C635   C     0.23319   0.12232   0.52055   0.00000  Uiso   1.00
C636   C     0.09125   0.18049   0.97371   0.00000  Uiso   1.00
C637   C     0.29061   0.02091   0.75130   0.00000  Uiso   1.00
C638   C     0.04271   0.31242   0.74875   0.00000  Uiso   1.00
C639   C     0.29078   0.31166   0.75122   0.00000  Uiso   1.00
C640   C     0.04254   0.02168   0.74883   0.00000  Uiso   1.00
C641   C     0.00016   0.29057   0.74995   0.00000  Uiso   1.00
C642   C     0.33316   0.04277   0.75009   0.00000  Uiso   1.00
C643   C     0.18076   0.14387   0.78171   0.00000  Uiso   1.00
C644   C     0.15258   0.18940   0.71826   0.00000  Uiso   1.00
C645   C     0.13146   0.14438   0.78134   0.00000  Uiso   1.00
C646   C     0.20187   0.18895   0.71865   0.00000  Uiso   1.00
C647   C     0.30589   0.16553   0.83598   0.00000  Uiso   1.00
C648   C     0.02741   0.16724   0.66397   0.00000  Uiso   1.00
C649   C     0.29030   0.15882   0.88478   0.00000  Uiso   1.00
C650   C     0.04238   0.16912   0.61472   0.00000  Uiso   1.00
C651   C     0.30281   0.12760   0.95255   0.00000  Uiso   1.00
C652   C     0.02557   0.18709   0.54407   0.00000  Uiso   1.00
C653   C     0.32034   0.13945   0.90707   0.00000  Uiso   1.00
C654   C     0.01025   0.18191   0.59092   0.00000  Uiso   1.00
C655   C     0.24279   0.16761   0.90794   0.00000  Uiso   1.00
C656   C     0.08986   0.15982   0.59178   0.00000  Uiso   1.00
C657   C     0.22257   0.15428   0.95261   0.00000  Uiso   1.00
C658   C     0.10631   0.16201   0.54475   0.00000  Uiso   1.00
C659   C     0.25328   0.13484   0.97562   0.00000  Uiso   1.00
C660   C     0.07408   0.17682   0.52057   0.00000  Uiso   1.00
C661   C     0.17250   0.16006   0.97480   0.00000  Uiso   1.00
C662   C     0.15473   0.15126   0.52145   0.00000  Uiso   1.00
Cu663  Cu    0.04689   0.16667   0.75000   0.00000  Uiso   1.00
Cu664  Cu    0.28645   0.16666   0.75000   0.00000  Uiso   1.00
H665   H     0.25364   0.10569   0.53935   0.00000  Uiso   1.00
H666   H     0.06820   0.18909   0.95306   0.00000  Uiso   1.00
H667   H     0.11390   0.15209   0.61169   0.00000  Uiso   1.00
H668   H     0.22228   0.18516   0.88998   0.00000  Uiso   1.00
H669   H     0.30693   0.18975   0.60932   0.00000  Uiso   1.00
H670   H     0.02406   0.13287   0.88860   0.00000  Uiso   1.00
H671   H     0.17318   0.11927   0.57723   0.00000  Uiso   1.00
H672   H     0.14862   0.17576   0.91541   0.00000  Uiso   1.00
H673   H     0.25723   0.03661   0.75235   0.00000  Uiso   1.00
H674   H     0.07609   0.29672   0.74770   0.00000  Uiso   1.00
H675   H     0.25745   0.29535   0.75219   0.00000  Uiso   1.00
H676   H     0.07587   0.03798   0.74786   0.00000  Uiso   1.00
H677   H     0.10426   0.12634   0.80584   0.00000  Uiso   1.00
H678   H     0.22906   0.20698   0.69413   0.00000  Uiso   1.00
N679   N     0.11736   0.16668   0.74999   0.00000  Uiso   1.00
N680   N     0.21597   0.16666   0.75001   0.00000  Uiso   1.00
O681   O     0.03958   0.10655   0.75000   0.00000  Uiso   1.00
O682   O     0.29375   0.22678   0.75000   0.00000  Uiso   1.00
O683   O     0.29372   0.10654   0.75000   0.00000  Uiso   1.00
O684   O     0.03961   0.22679   0.74999   0.00000  Uiso   1.00
O685   O     0.01852   0.16668   0.81491   0.00000  Uiso   1.00
O686   O     0.31481   0.16666   0.68508   0.00000  Uiso   1.00
O687   O     0.27267   0.16667   0.81492   0.00000  Uiso   1.00
O688   O     0.06067   0.16667   0.68508   0.00000  Uiso   1.00
C689   C     0.00375   0.10750   0.97438   0.00000  Uiso   1.00
H690   H     0.32984   0.10562   0.51047   0.00000  Uiso   1.00
O691   O     0.04171   0.09316   0.95184   0.00000  Uiso   1.00
C692   C     0.32383   0.20478   0.52146   0.00000  Uiso   1.00
H693   H     0.00170   0.21564   0.98689   0.00000  Uiso   1.00
O694   O     0.28106   0.20816   0.54184   0.00000  Uiso   1.00
C695   C     0.19226   0.11746   0.81683   0.00000  Uiso   1.00
H696   H     0.22776   0.10525   0.81291   0.00000  Uiso   1.00
O697   O     0.16097   0.10818   0.85143   0.00000  Uiso   1.00
C698   C     0.14110   0.21564   0.68302   0.00000  Uiso   1.00
H699   H     0.10575   0.22825   0.68714   0.00000  Uiso   1.00
O700   O     0.17221   0.22422   0.64808   0.00000  Uiso   1.00
C701   C     0.66652   0.08742   0.75008   0.00000  Uiso   1.00
C702   C     0.33348   0.24591   0.74994   0.00000  Uiso   1.00
C703   C     0.51882   0.13085   0.54307   0.00000  Uiso   1.00
C704   C     0.47258   0.17287   0.95147   0.00000  Uiso   1.00
C705   C     0.56652   0.12232   0.52055   0.00000  Uiso   1.00
C706   C     0.42458   0.18049   0.97371   0.00000  Uiso   1.00
C707   C     0.62394   0.02091   0.75130   0.00000  Uiso   1.00
C708   C     0.37604   0.31242   0.74875   0.00000  Uiso   1.00
C709   C     0.62411   0.31166   0.75122   0.00000  Uiso   1.00
C710   C     0.37588   0.02168   0.74883   0.00000  Uiso   1.00
C711   C     0.33349   0.29057   0.74995   0.00000  Uiso   1.00
C712   C     0.66650   0.04277   0.75009   0.00000  Uiso   1.00
C713   C     0.51409   0.14387   0.78171   0.00000  Uiso   1.00
C714   C     0.48592   0.18940   0.71826   0.00000  Uiso   1.00
C715   C     0.46479   0.14438   0.78134   0.00000  Uiso   1.00
C716   C     0.53520   0.18895   0.71865   0.00000  Uiso   1.00
C717   C     0.63922   0.16553   0.83598   0.00000  Uiso   1.00
C718   C     0.36075   0.16724   0.66397   0.00000  Uiso   1.00
C719   C     0.62363   0.15882   0.88478   0.00000  Uiso   1.00
C720   C     0.37571   0.16912   0.61472   0.00000  Uiso   1.00
C721   C     0.63614   0.12760   0.95255   0.00000  Uiso   1.00
C722   C     0.35890   0.18709   0.54407   0.00000  Uiso   1.00
C723   C     0.65368   0.13945   0.90707   0.00000  Uiso   1.00
C724   C     0.34358   0.18191   0.59092   0.00000  Uiso   1.00
C725   C     0.57612   0.16761   0.90794   0.00000  Uiso   1.00
C726   C     0.42319   0.15982   0.59178   0.00000  Uiso   1.00
C727   C     0.55590   0.15428   0.95261   0.00000  Uiso   1.00
C728   C     0.43964   0.16201   0.54475   0.00000  Uiso   1.00
C729   C     0.58662   0.13484   0.97562   0.00000  Uiso   1.00
C730   C     0.40741   0.17682   0.52057   0.00000  Uiso   1.00
C731   C     0.50584   0.16006   0.97480   0.00000  Uiso   1.00
C732   C     0.48806   0.15126   0.52145   0.00000  Uiso   1.00
Cu733  Cu    0.38022   0.16667   0.75000   0.00000  Uiso   1.00
Cu734  Cu    0.61978   0.16666   0.75000   0.00000  Uiso   1.00
H735   H     0.58697   0.10569   0.53935   0.00000  Uiso   1.00
H736   H     0.40154   0.18909   0.95306   0.00000  Uiso   1.00
H737   H     0.44723   0.15209   0.61169   0.00000  Uiso   1.00
H738   H     0.55561   0.18516   0.88998   0.00000  Uiso   1.00
H739   H     0.64026   0.18975   0.60932   0.00000  Uiso   1.00
H740   H     0.35739   0.13287   0.88860   0.00000  Uiso   1.00
H741   H     0.50651   0.11927   0.57723   0.00000  Uiso   1.00
H742   H     0.48196   0.17576   0.91541   0.00000  Uiso   1.00
H743   H     0.59056   0.03661   0.75235   0.00000  Uiso   1.00
H744   H     0.40942   0.29672   0.74770   0.00000  Uiso   1.00
H745   H     0.59078   0.29535   0.75219   0.00000  Uiso   1.00
H746   H     0.40920   0.03798   0.74786   0.00000  Uiso   1.00
H747   H     0.43759   0.12634   0.80584   0.00000  Uiso   1.00
H748   H     0.56239   0.20698   0.69413   0.00000  Uiso   1.00
N749   N     0.45069   0.16668   0.74999   0.00000  Uiso   1.00
N750   N     0.54931   0.16666   0.75001   0.00000  Uiso   1.00
O751   O     0.37291   0.10655   0.75000   0.00000  Uiso   1.00
O752   O     0.62709   0.22678   0.75000   0.00000  Uiso   1.00
O753   O     0.62706   0.10654   0.75000   0.00000  Uiso   1.00
O754   O     0.37294   0.22679   0.74999   0.00000  Uiso   1.00
O755   O     0.35186   0.16668   0.81491   0.00000  Uiso   1.00
O756   O     0.64814   0.16666   0.68508   0.00000  Uiso   1.00
O757   O     0.60600   0.16667   0.81492   0.00000  Uiso   1.00
O758   O     0.39400   0.16667   0.68508   0.00000  Uiso   1.00
C759   C     0.33708   0.10750   0.97438   0.00000  Uiso   1.00
H760   H     0.66318   0.10562   0.51047   0.00000  Uiso   1.00
O761   O     0.37505   0.09316   0.95184   0.00000  Uiso   1.00
C762   C     0.65717   0.20478   0.52146   0.00000  Uiso   1.00
H763   H     0.33504   0.21564   0.98689   0.00000  Uiso   1.00
O764   O     0.61440   0.20816   0.54184   0.00000  Uiso   1.00
C765   C     0.52559   0.11746   0.81683   0.00000  Uiso   1.00
H766   H     0.56109   0.10525   0.81291   0.00000  Uiso   1.00
O767   O     0.49430   0.10818   0.85143   0.00000  Uiso   1.00
C768   C     0.47443   0.21564   0.68302   0.00000  Uiso   1.00
H769   H     0.43908   0.22825   0.68714   0.00000  Uiso   1.00
O770   O     0.50555   0.22422   0.64808   0.00000  Uiso   1.00
C771   C     0.99985   0.08742   0.75008   0.00000  Uiso   1.00
C772   C     0.66681   0.24591   0.74994   0.00000  Uiso   1.00
C773   C     0.85215   0.13085   0.54307   0.00000  Uiso   1.00
C774   C     0.80591   0.17287   0.95147   0.00000  Uiso   1.00
C775   C     0.89985   0.12232   0.52055   0.00000  Uiso   1.00
C776   C     0.75792   0.18049   0.97371   0.00000  Uiso   1.00
C777   C     0.95728   0.02091   0.75130   0.00000  Uiso   1.00
C778   C     0.70937   0.31242   0.74875   0.00000  Uiso   1.00
C779   C     0.95744   0.31166   0.75122   0.00000  Uiso   1.00
C780   C     0.70921   0.02168   0.74883   0.00000  Uiso   1.00
C781   C     0.66683   0.29057   0.74995   0.00000  Uiso   1.00
C782   C     0.99983   0.04277   0.75009   0.00000  Uiso   1.00
C783   C     0.84742   0.14387   0.78171   0.00000  Uiso   1.00
C784   C     0.81925   0.18940   0.71826   0.00000  Uiso   1.00
C785   C     0.79812   0.14438   0.78134   0.00000  Uiso   1.00
C786   C     0.86854   0.18895   0.71865   0.00000  Uiso   1.00
C787   C     0.97256   0.16553   0.83598   0.00000  Uiso   1.00
C788   C     0.69408   0.16724   0.66397   0.00000  Uiso   1.00
C789   C     0.95697   0.15882   0.88478   0.00000  Uiso   1.00
C790   C     0.70905   0.16912   0.61472   0.00000  Uiso   1.00
C791   C     0.96948   0.12760   0.95255   0.00000  Uiso   1.00
C792   C     0.69223   0.18709   0.54407   0.00000  Uiso   1.00
C793   C     0.98701   0.13945   0.90707   0.00000  Uiso   1.00
C794   C     0.67692   0.18191   0.59092   0.00000  Uiso   1.00
C795   C     0.90946   0.16761   0.90794   0.00000  Uiso   1.00
C796   C     0.75653   0.15982   0.59178   0.00000  Uiso   1.00
C797   C     0.88924   0.15428   0.95261   0.00000  Uiso   1.00
C798   C     0.77298   0.16201   0.54475   0.00000  Uiso   1.00
C799   C     0.91995   0.13484   0.97562   0.00000  Uiso   1.00
C800   C     0.74075   0.17682   0.52057   0.00000  Uiso   1.00
C801   C     0.83917   0.16006   0.97480   0.00000  Uiso   1.00
C802   C     0.82139   0.15126   0.52145   0.00000  Uiso   1.00
Cu803  Cu    0.71355   0.16667   0.75000   0.00000  Uiso   1.00
Cu804  Cu    0.95311   0.16666   0.75000   0.00000  Uiso   1.00
H805   H     0.92030   0.10569   0.53935   0.00000  Uiso   1.00
H806   H     0.73487   0.18909   0.95306   0.00000  Uiso   1.00
H807   H     0.78056   0.15209   0.61169   0.00000  Uiso   1.00
H808   H     0.88895   0.18516   0.88998   0.00000  Uiso   1.00
H809   H     0.97359   0.18975   0.60932   0.00000  Uiso   1.00
H810   H     0.69072   0.13287   0.88860   0.00000  Uiso   1.00
H811   H     0.83985   0.11927   0.57723   0.00000  Uiso   1.00
H812   H     0.81529   0.17576   0.91541   0.00000  Uiso   1.00
H813   H     0.92390   0.03661   0.75235   0.00000  Uiso   1.00
H814   H     0.74275   0.29672   0.74770   0.00000  Uiso   1.00
H815   H     0.92412   0.29535   0.75219   0.00000  Uiso   1.00
H816   H     0.74254   0.03798   0.74786   0.00000  Uiso   1.00
H817   H     0.77092   0.12634   0.80584   0.00000  Uiso   1.00
H818   H     0.89573   0.20698   0.69413   0.00000  Uiso   1.00
N819   N     0.78403   0.16668   0.74999   0.00000  Uiso   1.00
N820   N     0.88264   0.16666   0.75001   0.00000  Uiso   1.00
O821   O     0.70625   0.10655   0.75000   0.00000  Uiso   1.00
O822   O     0.96042   0.22678   0.75000   0.00000  Uiso   1.00
O823   O     0.96039   0.10654   0.75000   0.00000  Uiso   1.00
O824   O     0.70628   0.22679   0.74999   0.00000  Uiso   1.00
O825   O     0.68519   0.16668   0.81491   0.00000  Uiso   1.00
O826   O     0.98148   0.16666   0.68508   0.00000  Uiso   1.00
O827   O     0.93933   0.16667   0.81492   0.00000  Uiso   1.00
O828   O     0.72733   0.16667   0.68508   0.00000  Uiso   1.00
C829   C     0.67042   0.10750   0.97438   0.00000  Uiso   1.00
H830   H     0.99651   0.10562   0.51047   0.00000  Uiso   1.00
O831   O     0.70838   0.09316   0.95184   0.00000  Uiso   1.00
C832   C     0.99050   0.20478   0.52146   0.00000  Uiso   1.00
H833   H     0.66837   0.21564   0.98689   0.00000  Uiso   1.00
O834   O     0.94773   0.20816   0.54184   0.00000  Uiso   1.00
C835   C     0.85893   0.11746   0.81683   0.00000  Uiso   1.00
H836   H     0.89442   0.10525   0.81291   0.00000  Uiso   1.00
O837   O     0.82764   0.10818   0.85143   0.00000  Uiso   1.00
C838   C     0.80776   0.21564   0.68302   0.00000  Uiso   1.00
H839   H     0.77242   0.22825   0.68714   0.00000  Uiso   1.00
O840   O     0.83888   0.22422   0.64808   0.00000  Uiso   1.00
C841   C     0.33318   0.42075   0.75008   0.00000  Uiso   1.00
C842   C     0.00014   0.57925   0.74994   0.00000  Uiso   1.00
C843   C     0.18549   0.46419   0.54307   0.00000  Uiso   1.00
C844   C     0.13924   0.50620   0.95147   0.00000  Uiso   1.00
C845   C     0.23319   0.45566   0.52055   0.00000  Uiso   1.00
C846   C     0.09125   0.51382   0.97371   0.00000  Uiso   1.00
C847   C     0.29061   0.35424   0.75130   0.00000  Uiso   1.00
C848   C     0.04271   0.64576   0.74875   0.00000  Uiso   1.00
C849   C     0.29078   0.64499   0.75122   0.00000  Uiso   1.00
C850   C     0.04254   0.35501   0.74883   0.00000  Uiso   1.00
C851   C     0.00016   0.62390   0.74995   0.00000  Uiso   1.00
C852   C     0.33316   0.37610   0.75009   0.00000  Uiso   1.00
C853   C     0.18076   0.47721   0.78171   0.00000  Uiso   1.00
C854   C     0.15258   0.52274   0.71826   0.00000  Uiso   1.00
C855   C     0.13146   0.47771   0.78134   0.00000  Uiso   1.00
C856   C     0.20187   0.52228   0.71865   0.00000  Uiso   1.00
C857   C     0.30589   0.49886   0.83598   0.00000  Uiso   1.00
C858   C     0.02741   0.50057   0.66397   0.00000  Uiso   1.00
C859   C     0.29030   0.49215   0.88478   0.00000  Uiso   1.00
C860   C     0.04238   0.50245   0.61472   0.00000  Uiso   1.00
C861   C     0.30281   0.46093   0.95255   0.00000  Uiso   1.00
C862   C     0.02557   0.52042   0.54407   0.00000  Uiso   1.00
C863   C     0.32034   0.47278   0.90707   0.00000  Uiso   1.00
C864   C     0.01025   0.51524   0.59092   0.00000  Uiso   1.00
C865   C     0.24279   0.50094   0.90794   0.00000  Uiso   1.00
C866   C     0.08986   0.49315   0.59178   0.00000  Uiso   1.00
C867   C     0.22257   0.48761   0.95261   0.00000  Uiso   1.00
C868   C     0.10631   0.49534   0.54475   0.00000  Uiso   1.00
C869   C     0.25328   0.46817   0.97562   0.00000  Uiso   1.00
C870   C     0.07408   0.51015   0.52057   0.00000  Uiso   1.00
C871   C     0.17250   0.49339   0.97480   0.00000  Uiso   1.00
C872   C     0.15473   0.48459   0.52145   0.00000  Uiso   1.00
Cu873  Cu    0.04689   0.50001   0.75000   0.00000  Uiso   1.00
Cu874  Cu    0.28645   0.49999   0.75000   0.00000  Uiso   1.00
H875   H     0.25364   0.43902   0.53935   0.00000  Uiso   1.00
H876   H     0.06820   0.52242   0.95306   0.00000  Uiso   1.00
H877   H     0.11390   0.48542   0.61169   0.00000  Uiso   1.00
H878   H     0.22228   0.51850   0.88998   0.00000  Uiso   1.00
H879   H     0.30693   0.52308   0.60932   0.00000  Uiso   1.00
H880   H     0.02406   0.46621   0.88860   0.00000  Uiso   1.00
H881   H     0.17318   0.45261   0.57723   0.00000  Uiso   1.00
H882   H     0.14862   0.50909   0.91541   0.00000  Uiso   1.00
H883   H     0.25723   0.36995   0.75235   0.00000  Uiso   1.00
H884   H     0.07609   0.63006   0.74770   0.00000  Uiso   1.00
H885   H     0.25745   0.62869   0.75219   0.00000  Uiso   1.00
H886   H     0.07587   0.37132   0.74786   0.00000  Uiso   1.00
H887   H     0.10426   0.45967   0.80584   0.00000  Uiso   1.00
H888   H     0.22906   0.54031   0.69413   0.00000  Uiso   1.00
N889   N     0.11736   0.50001   0.74999   0.00000  Uiso   1.00
N890   N     0.21597   0.49999   0.75001   0.00000  Uiso   1.00
O891   O     0.03958   0.43989   0.75000   0.00000  Uiso   1.00
O892   O     0.29375   0.56011   0.75000   0.00000  Uiso   1.00
O893   O     0.29372   0.43988   0.75000   0.00000  Uiso   1.00
O894   O     0.03961   0.56012   0.74999   0.00000  Uiso   1.00
O895   O     0.01852   0.50001   0.81491   0.00000  Uiso   1.00
O896   O     0.31481   0.49999   0.68508   0.00000  Uiso   1.00
O897   O     0.27267   0.50000   0.81492   0.00000  Uiso   1.00
O898   O     0.06067   0.50000   0.68508   0.00000  Uiso   1.00
C899   C     0.00375   0.44084   0.97438   0.00000  Uiso   1.00
H900   H     0.32984   0.43895   0.51047   0.00000  Uiso   1.00
O901   O     0.04171   0.42649   0.95184   0.00000  Uiso   1.00
C902   C     0.32383   0.53811   0.52146   0.00000  Uiso   1.00
H903   H     0.00170   0.54897   0.98689   0.00000  Uiso   1.00
O904   O     0.28106   0.54149   0.54184   0.00000  Uiso   1.00
C905   C     0.19226   0.45079   0.81683   0.00000  Uiso   1.00
H906   H     0.22776   0.43859   0.81291   0.00000  Uiso   1.00
O907   O     0.16097   0.44151   0.85143   0.00000  Uiso   1.00
C908   C     0.14110   0.54897   0.68302   0.00000  Uiso   1.00
H909   H     0.10575   0.56158   0.68714   0.00000  Uiso   1.00
O910   O     0.17221   0.55755   0.64808   0.00000  Uiso   1.00
C911   C     0.66652   0.42075   0.75008   0.00000  Uiso   1.00
C912   C     0.33348   0.57925   0.74994   0.00000  Uiso   1.00
C913   C     0.51882   0.46419   0.54307   0.00000  Uiso   1.00
C914   C     0.47258   0.50620   0.95147   0.00000  Uiso   1.00
C915   C     0.56652   0.45566   0.52055   0.00000  Uiso   1.00
C916   C     0.42458   0.51382   0.97371   0.00000  Uiso   1.00
C917   C     0.62394   0.35424   0.75130   0.00000  Uiso   1.00
C918   C     0.37604   0.64576   0.74875   0.00000  Uiso   1.00
C919   C     0.62411   0.64499   0.75122   0.00000  Uiso   1.00
C920   C     0.37588   0.35501   0.74883   0.00000  Uiso   1.00
C921   C     0.33349   0.62390   0.74995   0.00000  Uiso   1.00
C922   C     0.66650   0.37610   0.75009   0.00000  Uiso   1.00
C923   C     0.51409   0.47721   0.78171   0.00000  Uiso   1.00
C924   C     0.48592   0.52274   0.71826   0.00000  Uiso   1.00
C925   C     0.46479   0.47771   0.78134   0.00000  Uiso   1.00
C926   C     0.53520   0.52228   0.71865   0.00000  Uiso   1.00
C927   C     0.63922   0.49886   0.83598   0.00000  Uiso   1.00
C928   C     0.36075   0.50057   0.66397   0.00000  Uiso   1.00
C929   C     0.62363   0.49215   0.88478   0.00000  Uiso   1.00
C930   C     0.37571   0.50245   0.61472   0.00000  Uiso   1.00
C931   C     0.63614   0.46093   0.95255   0.00000  Uiso   1.00
C932   C     0.35890   0.52042   0.54407   0.00000  Uiso   1.00
C933   C     0.65368   0.47278   0.90707   0.00000  Uiso   1.00
C934   C     0.34358   0.51524   0.59092   0.00000  Uiso   1.00
C935   C     0.57612   0.50094   0.90794   0.00000  Uiso   1.00
C936   C     0.42319   0.49315   0.59178   0.00000  Uiso   1.00
C937   C     0.55590   0.48761   0.95261   0.00000  Uiso   1.00
C938   C     0.43964   0.49534   0.54475   0.00000  Uiso   1.00
C939   C     0.58662   0.46817   0.97562   0.00000  Uiso   1.00
C940   C     0.40741   0.51015   0.52057   0.00000  Uiso   1.00
C941   C     0.50584   0.49339   0.97480   0.00000  Uiso   1.00
C942   C     0.48806   0.48459   0.52145   0.00000  Uiso   1.00
Cu943  Cu    0.38022   0.50001   0.75000   0.00000  Uiso   1.00
Cu944  Cu    0.61978   0.49999   0.75000   0.00000  Uiso   1.00
H945   H     0.58697   0.43902   0.53935   0.00000  Uiso   1.00
H946   H     0.40154   0.52242   0.95306   0.00000  Uiso   1.00
H947   H     0.44723   0.48542   0.61169   0.00000  Uiso   1.00
H948   H     0.55561   0.51850   0.88998   0.00000  Uiso   1.00
H949   H     0.64026   0.52308   0.60932   0.00000  Uiso   1.00
H950   H     0.35739   0.46621   0.88860   0.00000  Uiso   1.00
H951   H     0.50651   0.45261   0.57723   0.00000  Uiso   1.00
H952   H     0.48196   0.50909   0.91541   0.00000  Uiso   1.00
H953   H     0.59056   0.36995   0.75235   0.00000  Uiso   1.00
H954   H     0.40942   0.63006   0.74770   0.00000  Uiso   1.00
H955   H     0.59078   0.62869   0.75219   0.00000  Uiso   1.00
H956   H     0.40920   0.37132   0.74786   0.00000  Uiso   1.00
H957   H     0.43759   0.45967   0.80584   0.00000  Uiso   1.00
H958   H     0.56239   0.54031   0.69413   0.00000  Uiso   1.00
N959   N     0.45069   0.50001   0.74999   0.00000  Uiso   1.00
N960   N     0.54931   0.49999   0.75001   0.00000  Uiso   1.00
O961   O     0.37291   0.43989   0.75000   0.00000  Uiso   1.00
O962   O     0.62709   0.56011   0.75000   0.00000  Uiso   1.00
O963   O     0.62706   0.43988   0.75000   0.00000  Uiso   1.00
O964   O     0.37294   0.56012   0.74999   0.00000  Uiso   1.00
O965   O     0.35186   0.50001   0.81491   0.00000  Uiso   1.00
O966   O     0.64814   0.49999   0.68508   0.00000  Uiso   1.00
O967   O     0.60600   0.50000   0.81492   0.00000  Uiso   1.00
O968   O     0.39400   0.50000   0.68508   0.00000  Uiso   1.00
C969   C     0.33708   0.44084   0.97438   0.00000  Uiso   1.00
H970   H     0.66318   0.43895   0.51047   0.00000  Uiso   1.00
O971   O     0.37505   0.42649   0.95184   0.00000  Uiso   1.00
C972   C     0.65717   0.53811   0.52146   0.00000  Uiso   1.00
H973   H     0.33504   0.54897   0.98689   0.00000  Uiso   1.00
O974   O     0.61440   0.54149   0.54184   0.00000  Uiso   1.00
C975   C     0.52559   0.45079   0.81683   0.00000  Uiso   1.00
H976   H     0.56109   0.43859   0.81291   0.00000  Uiso   1.00
O977   O     0.49430   0.44151   0.85143   0.00000  Uiso   1.00
C978   C     0.47443   0.54897   0.68302   0.00000  Uiso   1.00
H979   H     0.43908   0.56158   0.68714   0.00000  Uiso   1.00
O980   O     0.50555   0.55755   0.64808   0.00000  Uiso   1.00
C981   C     0.99985   0.42075   0.75008   0.00000  Uiso   1.00
C982   C     0.66681   0.57925   0.74994   0.00000  Uiso   1.00
C983   C     0.85215   0.46419   0.54307   0.00000  Uiso   1.00
C984   C     0.80591   0.50620   0.95147   0.00000  Uiso   1.00
C985   C     0.89985   0.45566   0.52055   0.00000  Uiso   1.00
C986   C     0.75792   0.51382   0.97371   0.00000  Uiso   1.00
C987   C     0.95728   0.35424   0.75130   0.00000  Uiso   1.00
C988   C     0.70937   0.64576   0.74875   0.00000  Uiso   1.00
C989   C     0.95744   0.64499   0.75122   0.00000  Uiso   1.00
C990   C     0.70921   0.35501   0.74883   0.00000  Uiso   1.00
C991   C     0.66683   0.62390   0.74995   0.00000  Uiso   1.00
C992   C     0.99983   0.37610   0.75009   0.00000  Uiso   1.00
C993   C     0.84742   0.47721   0.78171   0.00000  Uiso   1.00
C994   C     0.81925   0.52274   0.71826   0.00000  Uiso   1.00
C995   C     0.79812   0.47771   0.78134   0.00000  Uiso   1.00
C996   C     0.86854   0.52228   0.71865   0.00000  Uiso   1.00
C997   C     0.97256   0.49886   0.83598   0.00000  Uiso   1.00
C998   C     0.69408   0.50057   0.66397   0.00000  Uiso   1.00
C999   C     0.95697   0.49215   0.88478   0.00000  Uiso   1.00
C1000  C     0.70905   0.50245   0.61472   0.00000  Uiso   1.00
C1001  C     0.96948   0.46093   0.95255   0.00000  Uiso   1.00
C1002  C     0.69223   0.52042   0.54407   0.00000  Uiso   1.00
C1003  C     0.98701   0.47278   0.90707   0.00000  Uiso   1.00
C1004  C     0.67692   0.51524   0.59092   0.00000  Uiso   1.00
C1005  C     0.90946   0.50094   0.90794   0.00000  Uiso   1.00
C1006  C     0.75653   0.49315   0.59178   0.00000  Uiso   1.00
C1007  C     0.88924   0.48761   0.95261   0.00000  Uiso   1.00
C1008  C     0.77298   0.49534   0.54475   0.00000  Uiso   1.00
C1009  C     0.91995   0.46817   0.97562   0.00000  Uiso   1.00
C1010  C     0.74075   0.51015   0.52057   0.00000  Uiso   1.00
C1011  C     0.83917   0.49339   0.97480   0.00000  Uiso   1.00
C1012  C     0.82139   0.48459   0.52145   0.00000  Uiso   1.00
Cu1013 Cu    0.71355   0.50001   0.75000   0.00000  Uiso   1.00
Cu1014 Cu    0.95311   0.49999   0.75000   0.00000  Uiso   1.00
H1015  H     0.92030   0.43902   0.53935   0.00000  Uiso   1.00
H1016  H     0.73487   0.52242   0.95306   0.00000  Uiso   1.00
H1017  H     0.78056   0.48542   0.61169   0.00000  Uiso   1.00
H1018  H     0.88895   0.51850   0.88998   0.00000  Uiso   1.00
H1019  H     0.97359   0.52308   0.60932   0.00000  Uiso   1.00
H1020  H     0.69072   0.46621   0.88860   0.00000  Uiso   1.00
H1021  H     0.83985   0.45261   0.57723   0.00000  Uiso   1.00
H1022  H     0.81529   0.50909   0.91541   0.00000  Uiso   1.00
H1023  H     0.92390   0.36995   0.75235   0.00000  Uiso   1.00
H1024  H     0.74275   0.63006   0.74770   0.00000  Uiso   1.00
H1025  H     0.92412   0.62869   0.75219   0.00000  Uiso   1.00
H1026  H     0.74254   0.37132   0.74786   0.00000  Uiso   1.00
H1027  H     0.77092   0.45967   0.80584   0.00000  Uiso   1.00
H1028  H     0.89573   0.54031   0.69413   0.00000  Uiso   1.00
N1029  N     0.78403   0.50001   0.74999   0.00000  Uiso   1.00
N1030  N     0.88264   0.49999   0.75001   0.00000  Uiso   1.00
O1031  O     0.70625   0.43989   0.75000   0.00000  Uiso   1.00
O1032  O     0.96042   0.56011   0.75000   0.00000  Uiso   1.00
O1033  O     0.96039   0.43988   0.75000   0.00000  Uiso   1.00
O1034  O     0.70628   0.56012   0.74999   0.00000  Uiso   1.00
O1035  O     0.68519   0.50001   0.81491   0.00000  Uiso   1.00
O1036  O     0.98148   0.49999   0.68508   0.00000  Uiso   1.00
O1037  O     0.93933   0.50000   0.81492   0.00000  Uiso   1.00
O1038  O     0.72733   0.50000   0.68508   0.00000  Uiso   1.00
C1039  C     0.67042   0.44084   0.97438   0.00000  Uiso   1.00
H1040  H     0.99651   0.43895   0.51047   0.00000  Uiso   1.00
O1041  O     0.70838   0.42649   0.95184   0.00000  Uiso   1.00
C1042  C     0.99050   0.53811   0.52146   0.00000  Uiso   1.00
H1043  H     0.66837   0.54897   0.98689   0.00000  Uiso   1.00
O1044  O     0.94773   0.54149   0.54184   0.00000  Uiso   1.00
C1045  C     0.85893   0.45079   0.81683   0.00000  Uiso   1.00
H1046  H     0.89442   0.43859   0.81291   0.00000  Uiso   1.00
O1047  O     0.82764   0.44151   0.85143   0.00000  Uiso   1.00
C1048  C     0.80776   0.54897   0.68302   0.00000  Uiso   1.00
H1049  H     0.77242   0.56158   0.68714   0.00000  Uiso   1.00
O1050  O     0.83888   0.55755   0.64808   0.00000  Uiso   1.00
C1051  C     0.33318   0.75409   0.75008   0.00000  Uiso   1.00
C1052  C     0.00014   0.91258   0.74994   0.00000  Uiso   1.00
C1053  C     0.18549   0.79752   0.54307   0.00000  Uiso   1.00
C1054  C     0.13924   0.83953   0.95147   0.00000  Uiso   1.00
C1055  C     0.23319   0.78899   0.52055   0.00000  Uiso   1.00
C1056  C     0.09125   0.84715   0.97371   0.00000  Uiso   1.00
C1057  C     0.29061   0.68758   0.75130   0.00000  Uiso   1.00
C1058  C     0.04271   0.97909   0.74875   0.00000  Uiso   1.00
C1059  C     0.29078   0.97832   0.75122   0.00000  Uiso   1.00
C1060  C     0.04254   0.68834   0.74883   0.00000  Uiso   1.00
C1061  C     0.00016   0.95723   0.74995   0.00000  Uiso   1.00
C1062  C     0.33316   0.70944   0.75009   0.00000  Uiso   1.00
C1063  C     0.18076   0.81054   0.78171   0.00000  Uiso   1.00
C1064  C     0.15258   0.85607   0.71826   0.00000  Uiso   1.00
C1065  C     0.13146   0.81104   0.78134   0.00000  Uiso   1.00
C1066  C     0.20187   0.85561   0.71865   0.00000  Uiso   1.00
C1067  C     0.30589   0.83219   0.83598   0.00000  Uiso   1.00
C1068  C     0.02741   0.83390   0.66397   0.00000  Uiso   1.00
C1069  C     0.29030   0.82549   0.88478   0.00000  Uiso   1.00
C1070  C     0.04238   0.83578   0.61472   0.00000  Uiso   1.00
C1071  C     0.30281   0.79426   0.95255   0.00000  Uiso   1.00
C1072  C     0.02557   0.85376   0.54407   0.00000  Uiso   1.00
C1073  C     0.32034   0.80611   0.90707   0.00000  Uiso   1.00
C1074  C     0.01025   0.84857   0.59092   0.00000  Uiso   1.00
C1075  C     0.24279   0.83428   0.90794   0.00000  Uiso   1.00
C1076  C     0.08986   0.82648   0.59178   0.00000  Uiso   1.00
C1077  C     0.22257   0.82095   0.95261   0.00000  Uiso   1.00
C1078  C     0.10631   0.82867   0.54475   0.00000  Uiso   1.00
C1079  C     0.25328   0.80151   0.97562   0.00000  Uiso   1.00
C1080  C     0.07408   0.84349   0.52057   0.00000  Uiso   1.00
C1081  C     0.17250   0.82672   0.97480   0.00000  Uiso   1.00
C1082  C     0.15473   0.81792   0.52145   0.00000  Uiso   1.00
Cu1083 Cu    0.04689   0.83334   0.75000   0.00000  Uiso   1.00
Cu1084 Cu    0.28645   0.83333   0.75000   0.00000  Uiso   1.00
H1085  H     0.25364   0.77236   0.53935   0.00000  Uiso   1.00
H1086  H     0.06820   0.85575   0.95306   0.00000  Uiso   1.00
H1087  H     0.11390   0.81875   0.61169   0.00000  Uiso   1.00
H1088  H     0.22228   0.85183   0.88998   0.00000  Uiso   1.00
H1089  H     0.30693   0.85642   0.60932   0.00000  Uiso   1.00
H1090  H     0.02406   0.79954   0.88860   0.00000  Uiso   1.00
H1091  H     0.17318   0.78594   0.57723   0.00000  Uiso   1.00
H1092  H     0.14862   0.84242   0.91541   0.00000  Uiso   1.00
H1093  H     0.25723   0.70328   0.75235   0.00000  Uiso   1.00
H1094  H     0.07609   0.96339   0.74770   0.00000  Uiso   1.00
H1095  H     0.25745   0.96202   0.75219   0.00000  Uiso   1.00
H1096  H     0.07587   0.70465   0.74786   0.00000  Uiso   1.00
H1097  H     0.10426   0.79300   0.80584   0.00000  Uiso   1.00
H1098  H     0.22906   0.87365   0.69413   0.00000  Uiso   1.00
N1099  N     0.11736   0.83334   0.74999   0.00000  Uiso   1.00
N1100  N     0.21597   0.83332   0.75001   0.00000  Uiso   1.00
O1101  O     0.03958   0.77322   0.75000   0.00000  Uiso   1.00
O1102  O     0.29375   0.89345   0.75000   0.00000  Uiso   1.00
O1103  O     0.29372   0.77321   0.75000   0.00000  Uiso   1.00
O1104  O     0.03961   0.89346   0.74999   0.00000  Uiso   1.00
O1105  O     0.01852   0.83334   0.81491   0.00000  Uiso   1.00
O1106  O     0.31481   0.83332   0.68508   0.00000  Uiso   1.00
O1107  O     0.27267   0.83333   0.81492   0.00000  Uiso   1.00
O1108  O     0.06067   0.83333   0.68508   0.00000  Uiso   1.00
C1109  C     0.00375   0.77417   0.97438   0.00000  Uiso   1.00
H1110  H     0.32984   0.77229   0.51047   0.00000  Uiso   1.00
O1111  O     0.04171   0.75982   0.95184   0.00000  Uiso   1.00
C1112  C     0.32383   0.87145   0.52146   0.00000  Uiso   1.00
H1113  H     0.00170   0.88231   0.98689   0.00000  Uiso   1.00
O1114  O     0.28106   0.87482   0.54184   0.00000  Uiso   1.00
C1115  C     0.19226   0.78413   0.81683   0.00000  Uiso   1.00
H1116  H     0.22776   0.77192   0.81291   0.00000  Uiso   1.00
O1117  O     0.16097   0.77484   0.85143   0.00000  Uiso   1.00
C1118  C     0.14110   0.88230   0.68302   0.00000  Uiso   1.00
H1119  H     0.10575   0.89492   0.68714   0.00000  Uiso   1.00
O1120  O     0.17221   0.89089   0.64808   0.00000  Uiso   1.00
C1121  C     0.66652   0.75409   0.75008   0.00000  Uiso   1.00
C1122  C     0.33348   0.91258   0.74994   0.00000  Uiso   1.00
C1123  C     0.51882   0.79752   0.54307   0.00000  Uiso   1.00
C1124  C     0.47258   0.83953   0.95147   0.00000  Uiso   1.00
C1125  C     0.56652   0.78899   0.52055   0.00000  Uiso   1.00
C1126  C     0.42458   0.84715   0.97371   0.00000  Uiso   1.00
C1127  C     0.62394   0.68758   0.75130   0.00000  Uiso   1.00
C1128  C     0.37604   0.97909   0.74875   0.00000  Uiso   1.00
C1129  C     0.62411   0.97832   0.75122   0.00000  Uiso   1.00
C1130  C     0.37588   0.68834   0.74883   0.00000  Uiso   1.00
C1131  C     0.33349   0.95723   0.74995   0.00000  Uiso   1.00
C1132  C     0.66650   0.70944   0.75009   0.00000  Uiso   1.00
C1133  C     0.51409   0.81054   0.78171   0.00000  Uiso   1.00
C1134  C     0.48592   0.85607   0.71826   0.00000  Uiso   1.00
C1135  C     0.46479   0.81104   0.78134   0.00000  Uiso   1.00
C1136  C     0.53520   0.85561   0.71865   0.00000  Uiso   1.00
C1137  C     0.63922   0.83219   0.83598   0.00000  Uiso   1.00
C1138  C     0.36075   0.83390   0.66397   0.00000  Uiso   1.00
C1139  C     0.62363   0.82549   0.88478   0.00000  Uiso   1.00
C1140  C     0.37571   0.83578   0.61472   0.00000  Uiso   1.00
C1141  C     0.63614   0.79426   0.95255   0.00000  Uiso   1.00
C1142  C     0.35890   0.85376   0.54407   0.00000  Uiso   1.00
C1143  C     0.65368   0.80611   0.90707   0.00000  Uiso   1.00
C1144  C     0.34358   0.84857   0.59092   0.00000  Uiso   1.00
C1145  C     0.57612   0.83428   0.90794   0.00000  Uiso   1.00
C1146  C     0.42319   0.82648   0.59178   0.00000  Uiso   1.00
C1147  C     0.55590   0.82095   0.95261   0.00000  Uiso   1.00
C1148  C     0.43964   0.82867   0.54475   0.00000  Uiso   1.00
C1149  C     0.58662   0.80151   0.97562   0.00000  Uiso   1.00
C1150  C     0.40741   0.84349   0.52057   0.00000  Uiso   1.00
C1151  C     0.50584   0.82672   0.97480   0.00000  Uiso   1.00
C1152  C     0.48806   0.81792   0.52145   0.00000  Uiso   1.00
Cu1153 Cu    0.38022   0.83334   0.75000   0.00000  Uiso   1.00
Cu1154 Cu    0.61978   0.83333   0.75000   0.00000  Uiso   1.00
H1155  H     0.58697   0.77236   0.53935   0.00000  Uiso   1.00
H1156  H     0.40154   0.85575   0.95306   0.00000  Uiso   1.00
H1157  H     0.44723   0.81875   0.61169   0.00000  Uiso   1.00
H1158  H     0.55561   0.85183   0.88998   0.00000  Uiso   1.00
H1159  H     0.64026   0.85642   0.60932   0.00000  Uiso   1.00
H1160  H     0.35739   0.79954   0.88860   0.00000  Uiso   1.00
H1161  H     0.50651   0.78594   0.57723   0.00000  Uiso   1.00
H1162  H     0.48196   0.84242   0.91541   0.00000  Uiso   1.00
H1163  H     0.59056   0.70328   0.75235   0.00000  Uiso   1.00
H1164  H     0.40942   0.96339   0.74770   0.00000  Uiso   1.00
H1165  H     0.59078   0.96202   0.75219   0.00000  Uiso   1.00
H1166  H     0.40920   0.70465   0.74786   0.00000  Uiso   1.00
H1167  H     0.43759   0.79300   0.80584   0.00000  Uiso   1.00
H1168  H     0.56239   0.87365   0.69413   0.00000  Uiso   1.00
N1169  N     0.45069   0.83334   0.74999   0.00000  Uiso   1.00
N1170  N     0.54931   0.83332   0.75001   0.00000  Uiso   1.00
O1171  O     0.37291   0.77322   0.75000   0.00000  Uiso   1.00
O1172  O     0.62709   0.89345   0.75000   0.00000  Uiso   1.00
O1173  O     0.62706   0.77321   0.75000   0.00000  Uiso   1.00
O1174  O     0.37294   0.89346   0.74999   0.00000  Uiso   1.00
O1175  O     0.35186   0.83334   0.81491   0.00000  Uiso   1.00
O1176  O     0.64814   0.83332   0.68508   0.00000  Uiso   1.00
O1177  O     0.60600   0.83333   0.81492   0.00000  Uiso   1.00
O1178  O     0.39400   0.83333   0.68508   0.00000  Uiso   1.00
C1179  C     0.33708   0.77417   0.97438   0.00000  Uiso   1.00
H1180  H     0.66318   0.77229   0.51047   0.00000  Uiso   1.00
O1181  O     0.37505   0.75982   0.95184   0.00000  Uiso   1.00
C1182  C     0.65717   0.87145   0.52146   0.00000  Uiso   1.00
H1183  H     0.33504   0.88231   0.98689   0.00000  Uiso   1.00
O1184  O     0.61440   0.87482   0.54184   0.00000  Uiso   1.00
C1185  C     0.52559   0.78413   0.81683   0.00000  Uiso   1.00
H1186  H     0.56109   0.77192   0.81291   0.00000  Uiso   1.00
O1187  O     0.49430   0.77484   0.85143   0.00000  Uiso   1.00
C1188  C     0.47443   0.88230   0.68302   0.00000  Uiso   1.00
H1189  H     0.43908   0.89492   0.68714   0.00000  Uiso   1.00
O1190  O     0.50555   0.89089   0.64808   0.00000  Uiso   1.00
C1191  C     0.99985   0.75409   0.75008   0.00000  Uiso   1.00
C1192  C     0.66681   0.91258   0.74994   0.00000  Uiso   1.00
C1193  C     0.85215   0.79752   0.54307   0.00000  Uiso   1.00
C1194  C     0.80591   0.83953   0.95147   0.00000  Uiso   1.00
C1195  C     0.89985   0.78899   0.52055   0.00000  Uiso   1.00
C1196  C     0.75792   0.84715   0.97371   0.00000  Uiso   1.00
C1197  C     0.95728   0.68758   0.75130   0.00000  Uiso   1.00
C1198  C     0.70937   0.97909   0.74875   0.00000  Uiso   1.00
C1199  C     0.95744   0.97832   0.75122   0.00000  Uiso   1.00
C1200  C     0.70921   0.68834   0.74883   0.00000  Uiso   1.00
C1201  C     0.66683   0.95723   0.74995   0.00000  Uiso   1.00
C1202  C     0.99983   0.70944   0.75009   0.00000  Uiso   1.00
C1203  C     0.84742   0.81054   0.78171   0.00000  Uiso   1.00
C1204  C     0.81925   0.85607   0.71826   0.00000  Uiso   1.00
C1205  C     0.79812   0.81104   0.78134   0.00000  Uiso   1.00
C1206  C     0.86854   0.85561   0.71865   0.00000  Uiso   1.00
C1207  C     0.97256   0.83219   0.83598   0.00000  Uiso   1.00
C1208  C     0.69408   0.83390   0.66397   0.00000  Uiso   1.00
C1209  C     0.95697   0.82549   0.88478   0.00000  Uiso   1.00
C1210  C     0.70905   0.83578   0.61472   0.00000  Uiso   1.00
C1211  C     0.96948   0.79426   0.95255   0.00000  Uiso   1.00
C1212  C     0.69223   0.85376   0.54407   0.00000  Uiso   1.00
C1213  C     0.98701   0.80611   0.90707   0.00000  Uiso   1.00
C1214  C     0.67692   0.84857   0.59092   0.00000  Uiso   1.00
C1215  C     0.90946   0.83428   0.90794   0.00000  Uiso   1.00
C1216  C     0.75653   0.82648   0.59178   0.00000  Uiso   1.00
C1217  C     0.88924   0.82095   0.95261   0.00000  Uiso   1.00
C1218  C     0.77298   0.82867   0.54475   0.00000  Uiso   1.00
C1219  C     0.91995   0.80151   0.97562   0.00000  Uiso   1.00
C1220  C     0.74075   0.84349   0.52057   0.00000  Uiso   1.00
C1221  C     0.83917   0.82672   0.97480   0.00000  Uiso   1.00
C1222  C     0.82139   0.81792   0.52145   0.00000  Uiso   1.00
Cu1223 Cu    0.71355   0.83334   0.75000   0.00000  Uiso   1.00
Cu1224 Cu    0.95311   0.83333   0.75000   0.00000  Uiso   1.00
H1225  H     0.92030   0.77236   0.53935   0.00000  Uiso   1.00
H1226  H     0.73487   0.85575   0.95306   0.00000  Uiso   1.00
H1227  H     0.78056   0.81875   0.61169   0.00000  Uiso   1.00
H1228  H     0.88895   0.85183   0.88998   0.00000  Uiso   1.00
H1229  H     0.97359   0.85642   0.60932   0.00000  Uiso   1.00
H1230  H     0.69072   0.79954   0.88860   0.00000  Uiso   1.00
H1231  H     0.83985   0.78594   0.57723   0.00000  Uiso   1.00
H1232  H     0.81529   0.84242   0.91541   0.00000  Uiso   1.00
H1233  H     0.92390   0.70328   0.75235   0.00000  Uiso   1.00
H1234  H     0.74275   0.96339   0.74770   0.00000  Uiso   1.00
H1235  H     0.92412   0.96202   0.75219   0.00000  Uiso   1.00
H1236  H     0.74254   0.70465   0.74786   0.00000  Uiso   1.00
H1237  H     0.77092   0.79300   0.80584   0.00000  Uiso   1.00
H1238  H     0.89573   0.87365   0.69413   0.00000  Uiso   1.00
N1239  N     0.78403   0.83334   0.74999   0.00000  Uiso   1.00
N1240  N     0.88264   0.83332   0.75001   0.00000  Uiso   1.00
O1241  O     0.70625   0.77322   0.75000   0.00000  Uiso   1.00
O1242  O     0.96042   0.89345   0.75000   0.00000  Uiso   1.00
O1243  O     0.96039   0.77321   0.75000   0.00000  Uiso   1.00
O1244  O     0.70628   0.89346   0.74999   0.00000  Uiso   1.00
O1245  O     0.68519   0.83334   0.81491   0.00000  Uiso   1.00
O1246  O     0.98148   0.83332   0.68508   0.00000  Uiso   1.00
O1247  O     0.93933   0.83333   0.81492   0.00000  Uiso   1.00
O1248  O     0.72733   0.83333   0.68508   0.00000  Uiso   1.00
C1249  C     0.67042   0.77417   0.97438   0.00000  Uiso   1.00
H1250  H     0.99651   0.77229   0.51047   0.00000  Uiso   1.00
O1251  O     0.70838   0.75982   0.95184   0.00000  Uiso   1.00
C1252  C     0.99050   0.87145   0.52146   0.00000  Uiso   1.00
H1253  H     0.66837   0.88231   0.98689   0.00000  Uiso   1.00
O1254  O     0.94773   0.87482   0.54184   0.00000  Uiso   1.00
C1255  C     0.85893   0.78413   0.81683   0.00000  Uiso   1.00
H1256  H     0.89442   0.77192   0.81291   0.00000  Uiso   1.00
O1257  O     0.82764   0.77484   0.85143   0.00000  Uiso   1.00
C1258  C     0.80776   0.88230   0.68302   0.00000  Uiso   1.00
H1259  H     0.77242   0.89492   0.68714   0.00000  Uiso   1.00
O1260  O     0.83888   0.89089   0.64808   0.00000  Uiso   1.00
loop_
_geom_bond_atom_site_label_1
_geom_bond_atom_site_label_2
_geom_bond_distance
_geom_bond_site_symmetry_2
_ccdc_geom_bond_type
C1     C12     1.450   .     S
C1     O53     1.299   .     A
C1     O121    1.295   .     S
C2     C11     1.450   .     S
C2     O54     1.299   .     A
C2     O192    1.295   1_455 S
C3     C5      1.387   .     A
C3     C32     1.413   .     A
C3     H41     1.078   .     S
C4     C6      1.386   .     A
C4     H42     1.077   .     S
C4     C31     1.412   .     A
C5     H35     1.078   .     S
C5     C659    1.401   1_554 S
C6     H36     1.078   .     S
C6     C660    1.401   .     S
C7     C12     1.400   .     A
C7     H43     1.083   .     S
C7     C429    1.384   1_545 S
C8     C11     1.400   .     A
C8     H44     1.083   .     S
C8     C220    1.384   .     S
C9     H45     1.083   .     S
C9     C217    1.384   .     S
C9     C81     1.403   .     S
C10    H46     1.083   .     S
C10    C428    1.384   1_545 S
C10    C152    1.403   1_455 S
C11    C149    1.403   1_455 S
C12    C80     1.403   .     S
C13    C65     1.484   .     S
C13    C15     1.421   .     A
C13    N50     1.392   .     A
C14    C16     1.420   .     A
C14    N49     1.391   .     A
C14    C68     1.483   .     S
C15    H47     1.083   .     S
C15    N49     1.354   .     A
C16    H48     1.083   .     S
C16    N50     1.354   .     A
C17    C19     1.465   .     S
C17    O57     1.300   .     A
C17    O125    1.299   .     S
C18    C20     1.467   .     S
C18    O58     1.302   .     A
C18    O196    1.299   1_455 S
C19    C23     1.395   .     A
C19    C25     1.389   .     A
C20    C24     1.396   .     A
C20    C26     1.390   .     A
C21    C29     1.427   .     A
C21    C23     1.403   .     A
C21    C129    1.491   .     S
C22    C24     1.403   .     A
C22    C30     1.427   .     A
C22    C202    1.493   1_455 S
C23    H110    1.084   .     S
C24    H179    1.084   1_455 S
C25    H38     1.077   .     S
C25    C27     1.402   .     A
C26    H37     1.076   .     S
C26    C28     1.403   .     A
C27    C31     1.426   .     A
C27    C29     1.426   .     A
C28    C30     1.427   .     A
C28    C32     1.427   .     A
C29    C635    1.401   .     S
C30    C636    1.401   1_554 S
C31    C662    1.416   .     S
C32    C661    1.416   1_554 S
Cu33   O55     1.951   .     S
Cu33   O58     1.942   .     S
Cu33   O51     1.962   .     S
Cu33   O54     1.966   .     S
Cu33   N49     2.026   .     S
Cu33   Cu174   2.695   1_455 S
Cu34   O57     1.942   .     S
Cu34   O56     1.951   .     S
Cu34   O53     1.966   .     S
Cu34   N50     2.026   .     S
Cu34   O52     1.962   .     S
Cu34   Cu103   2.695   .     S
H39    C94     1.084   .     S
H40    C163    1.084   1_455 S
O51    C141    1.295   1_455 S
O52    C72     1.295   .     S
O55    C157    1.299   1_455 S
O56    C88     1.299   .     S
C59    O61     1.222   .     D
C59    C161    1.491   1_455 S
C59    H830    1.081   1_455 S
H60    C759    1.081   1_554 S
C62    O64     1.222   .     D
C62    C92     1.493   .     S
C62    H763    1.080   1_554 S
H63    C832    1.080   1_455 S
C65    H66     1.074   .     S
C65    O67     1.222   .     D
C68    O70     1.222   .     D
C68    H69     1.074   .     S
C71    C82     1.450   .     S
C71    O123    1.299   .     A
C71    O191    1.295   .     S
C72    C81     1.450   .     S
C72    O124    1.299   .     A
C73    C75     1.387   .     A
C73    C102    1.413   .     A
C73    H111    1.078   .     S
C74    C76     1.386   .     A
C74    H112    1.077   .     S
C74    C101    1.412   .     A
C75    H105    1.078   .     S
C75    C729    1.401   1_554 S
C76    H106    1.078   .     S
C76    C730    1.401   .     S
C77    C82     1.400   .     A
C77    H113    1.083   .     S
C77    C499    1.384   1_545 S
C78    C81     1.400   .     A
C78    H114    1.083   .     S
C78    C290    1.384   .     S
C79    H115    1.083   .     S
C79    C287    1.384   .     S
C79    C151    1.403   .     S
C80    H116    1.083   .     S
C80    C498    1.384   1_545 S
C82    C150    1.403   .     S
C83    C135    1.484   .     S
C83    C85     1.421   .     A
C83    N120    1.392   .     A
C84    C86     1.420   .     A
C84    N119    1.391   .     A
C84    C138    1.483   .     S
C85    H117    1.083   .     S
C85    N119    1.354   .     A
C86    H118    1.083   .     S
C86    N120    1.354   .     A
C87    C89     1.465   .     S
C87    O127    1.300   .     A
C87    O195    1.299   .     S
C88    C90     1.467   .     S
C88    O128    1.302   .     A
C89    C93     1.395   .     A
C89    C95     1.389   .     A
C90    C94     1.396   .     A
C90    C96     1.390   .     A
C91    C99     1.427   .     A
C91    C93     1.403   .     A
C91    C199    1.491   .     S
C92    C94     1.403   .     A
C92    C100    1.427   .     A
C93    H180    1.084   .     S
C95    H108    1.077   .     S
C95    C97     1.402   .     A
C96    H107    1.076   .     S
C96    C98     1.403   .     A
C97    C101    1.426   .     A
C97    C99     1.426   .     A
C98    C100    1.427   .     A
C98    C102    1.427   .     A
C99    C705    1.401   .     S
C100   C706    1.401   1_554 S
C101   C732    1.416   .     S
C102   C731    1.416   1_554 S
Cu103  O125    1.951   .     S
Cu103  O128    1.942   .     S
Cu103  O121    1.962   .     S
Cu103  O124    1.966   .     S
Cu103  N119    2.026   .     S
Cu104  O127    1.942   .     S
Cu104  O126    1.951   .     S
Cu104  O123    1.966   .     S
Cu104  N120    2.026   .     S
Cu104  O122    1.962   .     S
Cu104  Cu173   2.695   .     S
H109   C164    1.084   .     S
O122   C142    1.295   .     S
O126   C158    1.299   .     S
C129   O131    1.222   .     D
C129   H690    1.081   .     S
H130   C829    1.081   1_554 S
C132   O134    1.222   .     D
C132   C162    1.493   .     S
C132   H833    1.080   1_554 S
H133   C692    1.080   .     S
C135   H136    1.074   .     S
C135   O137    1.222   .     D
C138   O140    1.222   .     D
C138   H139    1.074   .     S
C141   C152    1.450   .     S
C141   O193    1.299   .     A
C141   O51     1.295   1_655 S
C142   C151    1.450   .     S
C142   O194    1.299   .     A
C143   C145    1.387   .     A
C143   C172    1.413   .     A
C143   H181    1.078   .     S
C144   C146    1.386   .     A
C144   H182    1.077   .     S
C144   C171    1.412   .     A
C145   H175    1.078   .     S
C145   C799    1.401   1_554 S
C146   H176    1.078   .     S
C146   C800    1.401   .     S
C147   C152    1.400   .     A
C147   H183    1.083   .     S
C147   C569    1.384   1_545 S
C148   C151    1.400   .     A
C148   H184    1.083   .     S
C148   C360    1.384   .     S
C149   H185    1.083   .     S
C149   C357    1.384   .     S
C149   C11     1.403   1_655 S
C150   H186    1.083   .     S
C150   C568    1.384   1_545 S
C152   C10     1.403   1_655 S
C153   C205    1.484   .     S
C153   C155    1.421   .     A
C153   N190    1.392   .     A
C154   C156    1.420   .     A
C154   N189    1.391   .     A
C154   C208    1.483   .     S
C155   H187    1.083   .     S
C155   N189    1.354   .     A
C156   H188    1.083   .     S
C156   N190    1.354   .     A
C157   C159    1.465   .     S
C157   O197    1.300   .     A
C157   O55     1.299   1_655 S
C158   C160    1.467   .     S
C158   O198    1.302   .     A
C159   C163    1.395   .     A
C159   C165    1.389   .     A
C160   C164    1.396   .     A
C160   C166    1.390   .     A
C161   C169    1.427   .     A
C161   C163    1.403   .     A
C161   C59     1.491   1_655 S
C162   C164    1.403   .     A
C162   C170    1.427   .     A
C163   H40     1.084   1_655 S
C165   H178    1.077   .     S
C165   C167    1.402   .     A
C166   H177    1.076   .     S
C166   C168    1.403   .     A
C167   C171    1.426   .     A
C167   C169    1.426   .     A
C168   C170    1.427   .     A
C168   C172    1.427   .     A
C169   C775    1.401   .     S
C170   C776    1.401   1_554 S
C171   C802    1.416   .     S
C172   C801    1.416   1_554 S
Cu173  O195    1.951   .     S
Cu173  O198    1.942   .     S
Cu173  O191    1.962   .     S
Cu173  O194    1.966   .     S
Cu173  N189    2.026   .     S
Cu174  O197    1.942   .     S
Cu174  O196    1.951   .     S
Cu174  O193    1.966   .     S
Cu174  N190    2.026   .     S
Cu174  O192    1.962   .     S
Cu174  Cu33    2.695   1_655 S
H179   C24     1.084   1_655 S
O192   C2      1.295   1_655 S
O196   C18     1.299   1_655 S
C199   O201    1.222   .     D
C199   H760    1.081   .     S
H200   C689    1.081   1_654 S
C202   O204    1.222   .     D
C202   C22     1.493   1_655 S
C202   H693    1.080   1_654 S
H203   C762    1.080   .     S
C205   H206    1.074   .     S
C205   O207    1.222   .     D
C208   O210    1.222   .     D
C208   H209    1.074   .     S
C211   C222    1.450   .     S
C211   O263    1.299   .     A
C211   O331    1.295   .     S
C212   C221    1.450   .     S
C212   O264    1.299   .     A
C212   O402    1.295   1_455 S
C213   C215    1.387   .     A
C213   C242    1.413   .     A
C213   H251    1.078   .     S
C214   C216    1.386   .     A
C214   H252    1.077   .     S
C214   C241    1.412   .     A
C215   H245    1.078   .     S
C215   C869    1.401   1_554 S
C216   H246    1.078   .     S
C216   C870    1.401   .     S
C217   C222    1.400   .     A
C217   H253    1.083   .     S
C218   C221    1.400   .     A
C218   H254    1.083   .     S
C218   C430    1.384   .     S
C219   H255    1.083   .     S
C219   C427    1.384   .     S
C219   C291    1.403   .     S
C220   H256    1.083   .     S
C220   C362    1.403   1_455 S
C221   C359    1.403   1_455 S
C222   C290    1.403   .     S
C223   C275    1.484   .     S
C223   C225    1.421   .     A
C223   N260    1.392   .     A
C224   C226    1.420   .     A
C224   N259    1.391   .     A
C224   C278    1.483   .     S
C225   H257    1.083   .     S
C225   N259    1.354   .     A
C226   H258    1.083   .     S
C226   N260    1.354   .     A
C227   C229    1.465   .     S
C227   O267    1.300   .     A
C227   O335    1.299   .     S
C228   C230    1.467   .     S
C228   O268    1.302   .     A
C228   O406    1.299   1_455 S
C229   C233    1.395   .     A
C229   C235    1.389   .     A
C230   C234    1.396   .     A
C230   C236    1.390   .     A
C231   C239    1.427   .     A
C231   C233    1.403   .     A
C231   C339    1.491   .     S
C232   C234    1.403   .     A
C232   C240    1.427   .     A
C232   C412    1.493   1_455 S
C233   H320    1.084   .     S
C234   H389    1.084   1_455 S
C235   H248    1.077   .     S
C235   C237    1.402   .     A
C236   H247    1.076   .     S
C236   C238    1.403   .     A
C237   C241    1.426   .     A
C237   C239    1.426   .     A
C238   C240    1.427   .     A
C238   C242    1.427   .     A
C239   C845    1.401   .     S
C240   C846    1.401   1_554 S
C241   C872    1.416   .     S
C242   C871    1.416   1_554 S
Cu243  O265    1.951   .     S
Cu243  O268    1.942   .     S
Cu243  O261    1.962   .     S
Cu243  O264    1.966   .     S
Cu243  N259    2.026   .     S
Cu243  Cu384   2.695   1_455 S
Cu244  O267    1.942   .     S
Cu244  O266    1.951   .     S
Cu244  O263    1.966   .     S
Cu244  N260    2.026   .     S
Cu244  O262    1.962   .     S
Cu244  Cu313   2.695   .     S
H249   C304    1.084   .     S
H250   C373    1.084   1_455 S
O261   C351    1.295   1_455 S
O262   C282    1.295   .     S
O265   C367    1.299   1_455 S
O266   C298    1.299   .     S
C269   O271    1.222   .     D
C269   C371    1.491   1_455 S
C269   H1040   1.081   1_455 S
H270   C969    1.081   1_554 S
C272   O274    1.222   .     D
C272   C302    1.493   .     S
C272   H973    1.080   1_554 S
H273   C1042   1.080   1_455 S
C275   H276    1.074   .     S
C275   O277    1.222   .     D
C278   O280    1.222   .     D
C278   H279    1.074   .     S
C281   C292    1.450   .     S
C281   O333    1.299   .     A
C281   O401    1.295   .     S
C282   C291    1.450   .     S
C282   O334    1.299   .     A
C283   C285    1.387   .     A
C283   C312    1.413   .     A
C283   H321    1.078   .     S
C284   C286    1.386   .     A
C284   H322    1.077   .     S
C284   C311    1.412   .     A
C285   H315    1.078   .     S
C285   C939    1.401   1_554 S
C286   H316    1.078   .     S
C286   C940    1.401   .     S
C287   C292    1.400   .     A
C287   H323    1.083   .     S
C288   C291    1.400   .     A
C288   H324    1.083   .     S
C288   C500    1.384   .     S
C289   H325    1.083   .     S
C289   C497    1.384   .     S
C289   C361    1.403   .     S
C290   H326    1.083   .     S
C292   C360    1.403   .     S
C293   C345    1.484   .     S
C293   C295    1.421   .     A
C293   N330    1.392   .     A
C294   C296    1.420   .     A
C294   N329    1.391   .     A
C294   C348    1.483   .     S
C295   H327    1.083   .     S
C295   N329    1.354   .     A
C296   H328    1.083   .     S
C296   N330    1.354   .     A
C297   C299    1.465   .     S
C297   O337    1.300   .     A
C297   O405    1.299   .     S
C298   C300    1.467   .     S
C298   O338    1.302   .     A
C299   C303    1.395   .     A
C299   C305    1.389   .     A
C300   C304    1.396   .     A
C300   C306    1.390   .     A
C301   C309    1.427   .     A
C301   C303    1.403   .     A
C301   C409    1.491   .     S
C302   C304    1.403   .     A
C302   C310    1.427   .     A
C303   H390    1.084   .     S
C305   H318    1.077   .     S
C305   C307    1.402   .     A
C306   H317    1.076   .     S
C306   C308    1.403   .     A
C307   C311    1.426   .     A
C307   C309    1.426   .     A
C308   C310    1.427   .     A
C308   C312    1.427   .     A
C309   C915    1.401   .     S
C310   C916    1.401   1_554 S
C311   C942    1.416   .     S
C312   C941    1.416   1_554 S
Cu313  O335    1.951   .     S
Cu313  O338    1.942   .     S
Cu313  O331    1.962   .     S
Cu313  O334    1.966   .     S
Cu313  N329    2.026   .     S
Cu314  O337    1.942   .     S
Cu314  O336    1.951   .     S
Cu314  O333    1.966   .     S
Cu314  N330    2.026   .     S
Cu314  O332    1.962   .     S
Cu314  Cu383   2.695   .     S
H319   C374    1.084   .     S
O332   C352    1.295   .     S
O336   C368    1.299   .     S
C339   O341    1.222   .     D
C339   H900    1.081   .     S
H340   C1039   1.081   1_554 S
C342   O344    1.222   .     D
C342   C372    1.493   .     S
C342   H1043   1.080   1_554 S
H343   C902    1.080   .     S
C345   H346    1.074   .     S
C345   O347    1.222   .     D
C348   O350    1.222   .     D
C348   H349    1.074   .     S
C351   C362    1.450   .     S
C351   O403    1.299   .     A
C351   O261    1.295   1_655 S
C352   C361    1.450   .     S
C352   O404    1.299   .     A
C353   C355    1.387   .     A
C353   C382    1.413   .     A
C353   H391    1.078   .     S
C354   C356    1.386   .     A
C354   H392    1.077   .     S
C354   C381    1.412   .     A
C355   H385    1.078   .     S
C355   C1009   1.401   1_554 S
C356   H386    1.078   .     S
C356   C1010   1.401   .     S
C357   C362    1.400   .     A
C357   H393    1.083   .     S
C358   C361    1.400   .     A
C358   H394    1.083   .     S
C358   C570    1.384   .     S
C359   H395    1.083   .     S
C359   C567    1.384   .     S
C359   C221    1.403   1_655 S
C360   H396    1.083   .     S
C362   C220    1.403   1_655 S
C363   C415    1.484   .     S
C363   C365    1.421   .     A
C363   N400    1.392   .     A
C364   C366    1.420   .     A
C364   N399    1.391   .     A
C364   C418    1.483   .     S
C365   H397    1.083   .     S
C365   N399    1.354   .     A
C366   H398    1.083   .     S
C366   N400    1.354   .     A
C367   C369    1.465   .     S
C367   O407    1.300   .     A
C367   O265    1.299   1_655 S
C368   C370    1.467   .     S
C368   O408    1.302   .     A
C369   C373    1.395   .     A
C369   C375    1.389   .     A
C370   C374    1.396   .     A
C370   C376    1.390   .     A
C371   C379    1.427   .     A
C371   C373    1.403   .     A
C371   C269    1.491   1_655 S
C372   C374    1.403   .     A
C372   C380    1.427   .     A
C373   H250    1.084   1_655 S
C375   H388    1.077   .     S
C375   C377    1.402   .     A
C376   H387    1.076   .     S
C376   C378    1.403   .     A
C377   C381    1.426   .     A
C377   C379    1.426   .     A
C378   C380    1.427   .     A
C378   C382    1.427   .     A
C379   C985    1.401   .     S
C380   C986    1.401   1_554 S
C381   C1012   1.416   .     S
C382   C1011   1.416   1_554 S
Cu383  O405    1.951   .     S
Cu383  O408    1.942   .     S
Cu383  O401    1.962   .     S
Cu383  O404    1.966   .     S
Cu383  N399    2.026   .     S
Cu384  O407    1.942   .     S
Cu384  O406    1.951   .     S
Cu384  O403    1.966   .     S
Cu384  N400    2.026   .     S
Cu384  O402    1.962   .     S
Cu384  Cu243   2.695   1_655 S
H389   C234    1.084   1_655 S
O402   C212    1.295   1_655 S
O406   C228    1.299   1_655 S
C409   O411    1.222   .     D
C409   H970    1.081   .     S
H410   C899    1.081   1_654 S
C412   O414    1.222   .     D
C412   C232    1.493   1_655 S
C412   H903    1.080   1_654 S
H413   C972    1.080   .     S
C415   H416    1.074   .     S
C415   O417    1.222   .     D
C418   O420    1.222   .     D
C418   H419    1.074   .     S
C421   C432    1.450   .     S
C421   O473    1.299   .     A
C421   O541    1.295   .     S
C422   C431    1.450   .     S
C422   O474    1.299   .     A
C422   O612    1.295   1_455 S
C423   C425    1.387   .     A
C423   C452    1.413   .     A
C423   H461    1.078   .     S
C424   C426    1.386   .     A
C424   H462    1.077   .     S
C424   C451    1.412   .     A
C425   H455    1.078   .     S
C425   C1079   1.401   1_554 S
C426   H456    1.078   .     S
C426   C1080   1.401   .     S
C427   C432    1.400   .     A
C427   H463    1.083   .     S
C428   C431    1.400   .     A
C428   H464    1.083   .     S
C428   C10     1.384   1_565 S
C429   H465    1.083   .     S
C429   C7      1.384   1_565 S
C429   C501    1.403   .     S
C430   H466    1.083   .     S
C430   C572    1.403   1_455 S
C431   C569    1.403   1_455 S
C432   C500    1.403   .     S
C433   C485    1.484   .     S
C433   C435    1.421   .     A
C433   N470    1.392   .     A
C434   C436    1.420   .     A
C434   N469    1.391   .     A
C434   C488    1.483   .     S
C435   H467    1.083   .     S
C435   N469    1.354   .     A
C436   H468    1.083   .     S
C436   N470    1.354   .     A
C437   C439    1.465   .     S
C437   O477    1.300   .     A
C437   O545    1.299   .     S
C438   C440    1.467   .     S
C438   O478    1.302   .     A
C438   O616    1.299   1_455 S
C439   C443    1.395   .     A
C439   C445    1.389   .     A
C440   C444    1.396   .     A
C440   C446    1.390   .     A
C441   C449    1.427   .     A
C441   C443    1.403   .     A
C441   C549    1.491   .     S
C442   C444    1.403   .     A
C442   C450    1.427   .     A
C442   C622    1.493   1_455 S
C443   H530    1.084   .     S
C444   H599    1.084   1_455 S
C445   H458    1.077   .     S
C445   C447    1.402   .     A
C446   H457    1.076   .     S
C446   C448    1.403   .     A
C447   C451    1.426   .     A
C447   C449    1.426   .     A
C448   C450    1.427   .     A
C448   C452    1.427   .     A
C449   C1055   1.401   .     S
C450   C1056   1.401   1_554 S
C451   C1082   1.416   .     S
C452   C1081   1.416   1_554 S
Cu453  O475    1.951   .     S
Cu453  O478    1.942   .     S
Cu453  O471    1.962   .     S
Cu453  O474    1.966   .     S
Cu453  N469    2.026   .     S
Cu453  Cu594   2.695   1_455 S
Cu454  O477    1.942   .     S
Cu454  O476    1.951   .     S
Cu454  O473    1.966   .     S
Cu454  N470    2.026   .     S
Cu454  O472    1.962   .     S
Cu454  Cu523   2.695   .     S
H459   C514    1.084   .     S
H460   C583    1.084   1_455 S
O471   C561    1.295   1_455 S
O472   C492    1.295   .     S
O475   C577    1.299   1_455 S
O476   C508    1.299   .     S
C479   O481    1.222   .     D
C479   C581    1.491   1_455 S
C479   H1250   1.081   1_455 S
H480   C1179   1.081   1_554 S
C482   O484    1.222   .     D
C482   C512    1.493   .     S
C482   H1183   1.080   1_554 S
H483   C1252   1.080   1_455 S
C485   H486    1.074   .     S
C485   O487    1.222   .     D
C488   O490    1.222   .     D
C488   H489    1.074   .     S
C491   C502    1.450   .     S
C491   O543    1.299   .     A
C491   O611    1.295   .     S
C492   C501    1.450   .     S
C492   O544    1.299   .     A
C493   C495    1.387   .     A
C493   C522    1.413   .     A
C493   H531    1.078   .     S
C494   C496    1.386   .     A
C494   H532    1.077   .     S
C494   C521    1.412   .     A
C495   H525    1.078   .     S
C495   C1149   1.401   1_554 S
C496   H526    1.078   .     S
C496   C1150   1.401   .     S
C497   C502    1.400   .     A
C497   H533    1.083   .     S
C498   C501    1.400   .     A
C498   H534    1.083   .     S
C498   C80     1.384   1_565 S
C499   H535    1.083   .     S
C499   C77     1.384   1_565 S
C499   C571    1.403   .     S
C500   H536    1.083   .     S
C502   C570    1.403   .     S
C503   C555    1.484   .     S
C503   C505    1.421   .     A
C503   N540    1.392   .     A
C504   C506    1.420   .     A
C504   N539    1.391   .     A
C504   C558    1.483   .     S
C505   H537    1.083   .     S
C505   N539    1.354   .     A
C506   H538    1.083   .     S
C506   N540    1.354   .     A
C507   C509    1.465   .     S
C507   O547    1.300   .     A
C507   O615    1.299   .     S
C508   C510    1.467   .     S
C508   O548    1.302   .     A
C509   C513    1.395   .     A
C509   C515    1.389   .     A
C510   C514    1.396   .     A
C510   C516    1.390   .     A
C511   C519    1.427   .     A
C511   C513    1.403   .     A
C511   C619    1.491   .     S
C512   C514    1.403   .     A
C512   C520    1.427   .     A
C513   H600    1.084   .     S
C515   H528    1.077   .     S
C515   C517    1.402   .     A
C516   H527    1.076   .     S
C516   C518    1.403   .     A
C517   C521    1.426   .     A
C517   C519    1.426   .     A
C518   C520    1.427   .     A
C518   C522    1.427   .     A
C519   C1125   1.401   .     S
C520   C1126   1.401   1_554 S
C521   C1152   1.416   .     S
C522   C1151   1.416   1_554 S
Cu523  O545    1.951   .     S
Cu523  O548    1.942   .     S
Cu523  O541    1.962   .     S
Cu523  O544    1.966   .     S
Cu523  N539    2.026   .     S
Cu524  O547    1.942   .     S
Cu524  O546    1.951   .     S
Cu524  O543    1.966   .     S
Cu524  N540    2.026   .     S
Cu524  O542    1.962   .     S
Cu524  Cu593   2.695   .     S
H529   C584    1.084   .     S
O542   C562    1.295   .     S
O546   C578    1.299   .     S
C549   O551    1.222   .     D
C549   H1110   1.081   .     S
H550   C1249   1.081   1_554 S
C552   O554    1.222   .     D
C552   C582    1.493   .     S
C552   H1253   1.080   1_554 S
H553   C1112   1.080   .     S
C555   H556    1.074   .     S
C555   O557    1.222   .     D
C558   O560    1.222   .     D
C558   H559    1.074   .     S
C561   C572    1.450   .     S
C561   O613    1.299   .     A
C561   O471    1.295   1_655 S
C562   C571    1.450   .     S
C562   O614    1.299   .     A
C563   C565    1.387   .     A
C563   C592    1.413   .     A
C563   H601    1.078   .     S
C564   C566    1.386   .     A
C564   H602    1.077   .     S
C564   C591    1.412   .     A
C565   H595    1.078   .     S
C565   C1219   1.401   1_554 S
C566   H596    1.078   .     S
C566   C1220   1.401   .     S
C567   C572    1.400   .     A
C567   H603    1.083   .     S
C568   C571    1.400   .     A
C568   H604    1.083   .     S
C568   C150    1.384   1_565 S
C569   H605    1.083   .     S
C569   C147    1.384   1_565 S
C569   C431    1.403   1_655 S
C570   H606    1.083   .     S
C572   C430    1.403   1_655 S
C573   C625    1.484   .     S
C573   C575    1.421   .     A
C573   N610    1.392   .     A
C574   C576    1.420   .     A
C574   N609    1.391   .     A
C574   C628    1.483   .     S
C575   H607    1.083   .     S
C575   N609    1.354   .     A
C576   H608    1.083   .     S
C576   N610    1.354   .     A
C577   C579    1.465   .     S
C577   O617    1.300   .     A
C577   O475    1.299   1_655 S
C578   C580    1.467   .     S
C578   O618    1.302   .     A
C579   C583    1.395   .     A
C579   C585    1.389   .     A
C580   C584    1.396   .     A
C580   C586    1.390   .     A
C581   C589    1.427   .     A
C581   C583    1.403   .     A
C581   C479    1.491   1_655 S
C582   C584    1.403   .     A
C582   C590    1.427   .     A
C583   H460    1.084   1_655 S
C585   H598    1.077   .     S
C585   C587    1.402   .     A
C586   H597    1.076   .     S
C586   C588    1.403   .     A
C587   C591    1.426   .     A
C587   C589    1.426   .     A
C588   C590    1.427   .     A
C588   C592    1.427   .     A
C589   C1195   1.401   .     S
C590   C1196   1.401   1_554 S
C591   C1222   1.416   .     S
C592   C1221   1.416   1_554 S
Cu593  O615    1.951   .     S
Cu593  O618    1.942   .     S
Cu593  O611    1.962   .     S
Cu593  O614    1.966   .     S
Cu593  N609    2.026   .     S
Cu594  O617    1.942   .     S
Cu594  O616    1.951   .     S
Cu594  O613    1.966   .     S
Cu594  N610    2.026   .     S
Cu594  O612    1.962   .     S
Cu594  Cu453   2.695   1_655 S
H599   C444    1.084   1_655 S
O612   C422    1.295   1_655 S
O616   C438    1.299   1_655 S
C619   O621    1.222   .     D
C619   H1180   1.081   .     S
H620   C1109   1.081   1_654 S
C622   O624    1.222   .     D
C622   C442    1.493   1_655 S
C622   H1113   1.080   1_654 S
H623   C1182   1.080   .     S
C625   H626    1.074   .     S
C625   O627    1.222   .     D
C628   O630    1.222   .     D
C628   H629    1.074   .     S
C631   C642    1.450   .     S
C631   O683    1.299   .     A
C631   O751    1.295   .     S
C632   C641    1.450   .     S
C632   O684    1.299   .     A
C632   O822    1.295   1_455 S
C633   C635    1.387   .     A
C633   C662    1.413   .     A
C633   H671    1.078   .     S
C634   C636    1.386   .     A
C634   H672    1.077   .     S
C634   C661    1.412   .     A
C635   H665    1.078   .     S
C636   H666    1.078   .     S
C636   C30     1.401   1_556 S
C637   C642    1.400   .     A
C637   H673    1.083   .     S
C637   C1059   1.384   1_545 S
C638   C641    1.400   .     A
C638   H674    1.083   .     S
C638   C850    1.384   .     S
C639   H675    1.083   .     S
C639   C847    1.384   .     S
C639   C711    1.403   .     S
C640   H676    1.083   .     S
C640   C1058   1.384   1_545 S
C640   C782    1.403   1_455 S
C641   C779    1.403   1_455 S
C642   C710    1.403   .     S
C643   C695    1.484   .     S
C643   C645    1.421   .     A
C643   N680    1.392   .     A
C644   C646    1.420   .     A
C644   N679    1.391   .     A
C644   C698    1.483   .     S
C645   H677    1.083   .     S
C645   N679    1.354   .     A
C646   H678    1.083   .     S
C646   N680    1.354   .     A
C647   C649    1.465   .     S
C647   O687    1.300   .     A
C647   O755    1.299   .     S
C648   C650    1.467   .     S
C648   O688    1.302   .     A
C648   O826    1.299   1_455 S
C649   C653    1.395   .     A
C649   C655    1.389   .     A
C650   C654    1.396   .     A
C650   C656    1.390   .     A
C651   C659    1.427   .     A
C651   C653    1.403   .     A
C651   C759    1.491   .     S
C652   C654    1.403   .     A
C652   C660    1.427   .     A
C652   C832    1.493   1_455 S
C653   H740    1.084   .     S
C654   H809    1.084   1_455 S
C655   H668    1.077   .     S
C655   C657    1.402   .     A
C656   H667    1.076   .     S
C656   C658    1.403   .     A
C657   C661    1.426   .     A
C657   C659    1.426   .     A
C658   C660    1.427   .     A
C658   C662    1.427   .     A
C659   C5      1.401   1_556 S
C661   C32     1.416   1_556 S
Cu663  O685    1.951   .     S
Cu663  O688    1.942   .     S
Cu663  O681    1.962   .     S
Cu663  O684    1.966   .     S
Cu663  N679    2.026   .     S
Cu663  Cu804   2.695   1_455 S
Cu664  O687    1.942   .     S
Cu664  O686    1.951   .     S
Cu664  O683    1.966   .     S
Cu664  N680    2.026   .     S
Cu664  O682    1.962   .     S
Cu664  Cu733   2.695   .     S
H669   C724    1.084   .     S
H670   C793    1.084   1_455 S
O681   C771    1.295   1_455 S
O682   C702    1.295   .     S
O685   C787    1.299   1_455 S
O686   C718    1.299   .     S
C689   O691    1.222   .     D
C689   C791    1.491   1_455 S
C689   H200    1.081   1_456 S
C692   O694    1.222   .     D
C692   C722    1.493   .     S
H693   C202    1.080   1_456 S
C695   H696    1.074   .     S
C695   O697    1.222   .     D
C698   O700    1.222   .     D
C698   H699    1.074   .     S
C701   C712    1.450   .     S
C701   O753    1.299   .     A
C701   O821    1.295   .     S
C702   C711    1.450   .     S
C702   O754    1.299   .     A
C703   C705    1.387   .     A
C703   C732    1.413   .     A
C703   H741    1.078   .     S
C704   C706    1.386   .     A
C704   H742    1.077   .     S
C704   C731    1.412   .     A
C705   H735    1.078   .     S
C706   H736    1.078   .     S
C706   C100    1.401   1_556 S
C707   C712    1.400   .     A
C707   H743    1.083   .     S
C707   C1129   1.384   1_545 S
C708   C711    1.400   .     A
C708   H744    1.083   .     S
C708   C920    1.384   .     S
C709   H745    1.083   .     S
C709   C917    1.384   .     S
C709   C781    1.403   .     S
C710   H746    1.083   .     S
C710   C1128   1.384   1_545 S
C712   C780    1.403   .     S
C713   C765    1.484   .     S
C713   C715    1.421   .     A
C713   N750    1.392   .     A
C714   C716    1.420   .     A
C714   N749    1.391   .     A
C714   C768    1.483   .     S
C715   H747    1.083   .     S
C715   N749    1.354   .     A
C716   H748    1.083   .     S
C716   N750    1.354   .     A
C717   C719    1.465   .     S
C717   O757    1.300   .     A
C717   O825    1.299   .     S
C718   C720    1.467   .     S
C718   O758    1.302   .     A
C719   C723    1.395   .     A
C719   C725    1.389   .     A
C720   C724    1.396   .     A
C720   C726    1.390   .     A
C721   C729    1.427   .     A
C721   C723    1.403   .     A
C721   C829    1.491   .     S
C722   C724    1.403   .     A
C722   C730    1.427   .     A
C723   H810    1.084   .     S
C725   H738    1.077   .     S
C725   C727    1.402   .     A
C726   H737    1.076   .     S
C726   C728    1.403   .     A
C727   C731    1.426   .     A
C727   C729    1.426   .     A
C728   C730    1.427   .     A
C728   C732    1.427   .     A
C729   C75     1.401   1_556 S
C731   C102    1.416   1_556 S
Cu733  O755    1.951   .     S
Cu733  O758    1.942   .     S
Cu733  O751    1.962   .     S
Cu733  O754    1.966   .     S
Cu733  N749    2.026   .     S
Cu734  O757    1.942   .     S
Cu734  O756    1.951   .     S
Cu734  O753    1.966   .     S
Cu734  N750    2.026   .     S
Cu734  O752    1.962   .     S
Cu734  Cu803   2.695   .     S
H739   C794    1.084   .     S
O752   C772    1.295   .     S
O756   C788    1.299   .     S
C759   O761    1.222   .     D
C759   H60     1.081   1_556 S
C762   O764    1.222   .     D
C762   C792    1.493   .     S
H763   C62     1.080   1_556 S
C765   H766    1.074   .     S
C765   O767    1.222   .     D
C768   O770    1.222   .     D
C768   H769    1.074   .     S
C771   C782    1.450   .     S
C771   O823    1.299   .     A
C771   O681    1.295   1_655 S
C772   C781    1.450   .     S
C772   O824    1.299   .     A
C773   C775    1.387   .     A
C773   C802    1.413   .     A
C773   H811    1.078   .     S
C774   C776    1.386   .     A
C774   H812    1.077   .     S
C774   C801    1.412   .     A
C775   H805    1.078   .     S
C776   H806    1.078   .     S
C776   C170    1.401   1_556 S
C777   C782    1.400   .     A
C777   H813    1.083   .     S
C777   C1199   1.384   1_545 S
C778   C781    1.400   .     A
C778   H814    1.083   .     S
C778   C990    1.384   .     S
C779   H815    1.083   .     S
C779   C987    1.384   .     S
C779   C641    1.403   1_655 S
C780   H816    1.083   .     S
C780   C1198   1.384   1_545 S
C782   C640    1.403   1_655 S
C783   C835    1.484   .     S
C783   C785    1.421   .     A
C783   N820    1.392   .     A
C784   C786    1.420   .     A
C784   N819    1.391   .     A
C784   C838    1.483   .     S
C785   H817    1.083   .     S
C785   N819    1.354   .     A
C786   H818    1.083   .     S
C786   N820    1.354   .     A
C787   C789    1.465   .     S
C787   O827    1.300   .     A
C787   O685    1.299   1_655 S
C788   C790    1.467   .     S
C788   O828    1.302   .     A
C789   C793    1.395   .     A
C789   C795    1.389   .     A
C790   C794    1.396   .     A
C790   C796    1.390   .     A
C791   C799    1.427   .     A
C791   C793    1.403   .     A
C791   C689    1.491   1_655 S
C792   C794    1.403   .     A
C792   C800    1.427   .     A
C793   H670    1.084   1_655 S
C795   H808    1.077   .     S
C795   C797    1.402   .     A
C796   H807    1.076   .     S
C796   C798    1.403   .     A
C797   C801    1.426   .     A
C797   C799    1.426   .     A
C798   C800    1.427   .     A
C798   C802    1.427   .     A
C799   C145    1.401   1_556 S
C801   C172    1.416   1_556 S
Cu803  O825    1.951   .     S
Cu803  O828    1.942   .     S
Cu803  O821    1.962   .     S
Cu803  O824    1.966   .     S
Cu803  N819    2.026   .     S
Cu804  O827    1.942   .     S
Cu804  O826    1.951   .     S
Cu804  O823    1.966   .     S
Cu804  N820    2.026   .     S
Cu804  O822    1.962   .     S
Cu804  Cu663   2.695   1_655 S
H809   C654    1.084   1_655 S
O822   C632    1.295   1_655 S
O826   C648    1.299   1_655 S
C829   O831    1.222   .     D
C829   H130    1.081   1_556 S
H830   C59     1.081   1_655 S
C832   O834    1.222   .     D
C832   C652    1.493   1_655 S
C832   H63     1.080   1_655 S
H833   C132    1.080   1_556 S
C835   H836    1.074   .     S
C835   O837    1.222   .     D
C838   O840    1.222   .     D
C838   H839    1.074   .     S
C841   C852    1.450   .     S
C841   O893    1.299   .     A
C841   O961    1.295   .     S
C842   C851    1.450   .     S
C842   O894    1.299   .     A
C842   O1032   1.295   1_455 S
C843   C845    1.387   .     A
C843   C872    1.413   .     A
C843   H881    1.078   .     S
C844   C846    1.386   .     A
C844   H882    1.077   .     S
C844   C871    1.412   .     A
C845   H875    1.078   .     S
C846   H876    1.078   .     S
C846   C240    1.401   1_556 S
C847   C852    1.400   .     A
C847   H883    1.083   .     S
C848   C851    1.400   .     A
C848   H884    1.083   .     S
C848   C1060   1.384   .     S
C849   H885    1.083   .     S
C849   C1057   1.384   .     S
C849   C921    1.403   .     S
C850   H886    1.083   .     S
C850   C992    1.403   1_455 S
C851   C989    1.403   1_455 S
C852   C920    1.403   .     S
C853   C905    1.484   .     S
C853   C855    1.421   .     A
C853   N890    1.392   .     A
C854   C856    1.420   .     A
C854   N889    1.391   .     A
C854   C908    1.483   .     S
C855   H887    1.083   .     S
C855   N889    1.354   .     A
C856   H888    1.083   .     S
C856   N890    1.354   .     A
C857   C859    1.465   .     S
C857   O897    1.300   .     A
C857   O965    1.299   .     S
C858   C860    1.467   .     S
C858   O898    1.302   .     A
C858   O1036   1.299   1_455 S
C859   C863    1.395   .     A
C859   C865    1.389   .     A
C860   C864    1.396   .     A
C860   C866    1.390   .     A
C861   C869    1.427   .     A
C861   C863    1.403   .     A
C861   C969    1.491   .     S
C862   C864    1.403   .     A
C862   C870    1.427   .     A
C862   C1042   1.493   1_455 S
C863   H950    1.084   .     S
C864   H1019   1.084   1_455 S
C865   H878    1.077   .     S
C865   C867    1.402   .     A
C866   H877    1.076   .     S
C866   C868    1.403   .     A
C867   C871    1.426   .     A
C867   C869    1.426   .     A
C868   C870    1.427   .     A
C868   C872    1.427   .     A
C869   C215    1.401   1_556 S
C871   C242    1.416   1_556 S
Cu873  O895    1.951   .     S
Cu873  O898    1.942   .     S
Cu873  O891    1.962   .     S
Cu873  O894    1.966   .     S
Cu873  N889    2.026   .     S
Cu873  Cu1014  2.695   1_455 S
Cu874  O897    1.942   .     S
Cu874  O896    1.951   .     S
Cu874  O893    1.966   .     S
Cu874  N890    2.026   .     S
Cu874  O892    1.962   .     S
Cu874  Cu943   2.695   .     S
H879   C934    1.084   .     S
H880   C1003   1.084   1_455 S
O891   C981    1.295   1_455 S
O892   C912    1.295   .     S
O895   C997    1.299   1_455 S
O896   C928    1.299   .     S
C899   O901    1.222   .     D
C899   C1001   1.491   1_455 S
C899   H410    1.081   1_456 S
C902   O904    1.222   .     D
C902   C932    1.493   .     S
H903   C412    1.080   1_456 S
C905   H906    1.074   .     S
C905   O907    1.222   .     D
C908   O910    1.222   .     D
C908   H909    1.074   .     S
C911   C922    1.450   .     S
C911   O963    1.299   .     A
C911   O1031   1.295   .     S
C912   C921    1.450   .     S
C912   O964    1.299   .     A
C913   C915    1.387   .     A
C913   C942    1.413   .     A
C913   H951    1.078   .     S
C914   C916    1.386   .     A
C914   H952    1.077   .     S
C914   C941    1.412   .     A
C915   H945    1.078   .     S
C916   H946    1.078   .     S
C916   C310    1.401   1_556 S
C917   C922    1.400   .     A
C917   H953    1.083   .     S
C918   C921    1.400   .     A
C918   H954    1.083   .     S
C918   C1130   1.384   .     S
C919   H955    1.083   .     S
C919   C1127   1.384   .     S
C919   C991    1.403   .     S
C920   H956    1.083   .     S
C922   C990    1.403   .     S
C923   C975    1.484   .     S
C923   C925    1.421   .     A
C923   N960    1.392   .     A
C924   C926    1.420   .     A
C924   N959    1.391   .     A
C924   C978    1.483   .     S
C925   H957    1.083   .     S
C925   N959    1.354   .     A
C926   H958    1.083   .     S
C926   N960    1.354   .     A
C927   C929    1.465   .     S
C927   O967    1.300   .     A
C927   O1035   1.299   .     S
C928   C930    1.467   .     S
C928   O968    1.302   .     A
C929   C933    1.395   .     A
C929   C935    1.389   .     A
C930   C934    1.396   .     A
C930   C936    1.390   .     A
C931   C939    1.427   .     A
C931   C933    1.403   .     A
C931   C1039   1.491   .     S
C932   C934    1.403   .     A
C932   C940    1.427   .     A
C933   H1020   1.084   .     S
C935   H948    1.077   .     S
C935   C937    1.402   .     A
C936   H947    1.076   .     S
C936   C938    1.403   .     A
C937   C941    1.426   .     A
C937   C939    1.426   .     A
C938   C940    1.427   .     A
C938   C942    1.427   .     A
C939   C285    1.401   1_556 S
C941   C312    1.416   1_556 S
Cu943  O965    1.951   .     S
Cu943  O968    1.942   .     S
Cu943  O961    1.962   .     S
Cu943  O964    1.966   .     S
Cu943  N959    2.026   .     S
Cu944  O967    1.942   .     S
Cu944  O966    1.951   .     S
Cu944  O963    1.966   .     S
Cu944  N960    2.026   .     S
Cu944  O962    1.962   .     S
Cu944  Cu1013  2.695   .     S
H949   C1004   1.084   .     S
O962   C982    1.295   .     S
O966   C998    1.299   .     S
C969   O971    1.222   .     D
C969   H270    1.081   1_556 S
C972   O974    1.222   .     D
C972   C1002   1.493   .     S
H973   C272    1.080   1_556 S
C975   H976    1.074   .     S
C975   O977    1.222   .     D
C978   O980    1.222   .     D
C978   H979    1.074   .     S
C981   C992    1.450   .     S
C981   O1033   1.299   .     A
C981   O891    1.295   1_655 S
C982   C991    1.450   .     S
C982   O1034   1.299   .     A
C983   C985    1.387   .     A
C983   C1012   1.413   .     A
C983   H1021   1.078   .     S
C984   C986    1.386   .     A
C984   H1022   1.077   .     S
C984   C1011   1.412   .     A
C985   H1015   1.078   .     S
C986   H1016   1.078   .     S
C986   C380    1.401   1_556 S
C987   C992    1.400   .     A
C987   H1023   1.083   .     S
C988   C991    1.400   .     A
C988   H1024   1.083   .     S
C988   C1200   1.384   .     S
C989   H1025   1.083   .     S
C989   C1197   1.384   .     S
C989   C851    1.403   1_655 S
C990   H1026   1.083   .     S
C992   C850    1.403   1_655 S
C993   C1045   1.484   .     S
C993   C995    1.421   .     A
C993   N1030   1.392   .     A
C994   C996    1.420   .     A
C994   N1029   1.391   .     A
C994   C1048   1.483   .     S
C995   H1027   1.083   .     S
C995   N1029   1.354   .     A
C996   H1028   1.083   .     S
C996   N1030   1.354   .     A
C997   C999    1.465   .     S
C997   O1037   1.300   .     A
C997   O895    1.299   1_655 S
C998   C1000   1.467   .     S
C998   O1038   1.302   .     A
C999   C1003   1.395   .     A
C999   C1005   1.389   .     A
C1000  C1004   1.396   .     A
C1000  C1006   1.390   .     A
C1001  C1009   1.427   .     A
C1001  C1003   1.403   .     A
C1001  C899    1.491   1_655 S
C1002  C1004   1.403   .     A
C1002  C1010   1.427   .     A
C1003  H880    1.084   1_655 S
C1005  H1018   1.077   .     S
C1005  C1007   1.402   .     A
C1006  H1017   1.076   .     S
C1006  C1008   1.403   .     A
C1007  C1011   1.426   .     A
C1007  C1009   1.426   .     A
C1008  C1010   1.427   .     A
C1008  C1012   1.427   .     A
C1009  C355    1.401   1_556 S
C1011  C382    1.416   1_556 S
Cu1013 O1035   1.951   .     S
Cu1013 O1038   1.942   .     S
Cu1013 O1031   1.962   .     S
Cu1013 O1034   1.966   .     S
Cu1013 N1029   2.026   .     S
Cu1014 O1037   1.942   .     S
Cu1014 O1036   1.951   .     S
Cu1014 O1033   1.966   .     S
Cu1014 N1030   2.026   .     S
Cu1014 O1032   1.962   .     S
Cu1014 Cu873   2.695   1_655 S
H1019  C864    1.084   1_655 S
O1032  C842    1.295   1_655 S
O1036  C858    1.299   1_655 S
C1039  O1041   1.222   .     D
C1039  H340    1.081   1_556 S
H1040  C269    1.081   1_655 S
C1042  O1044   1.222   .     D
C1042  C862    1.493   1_655 S
C1042  H273    1.080   1_655 S
H1043  C342    1.080   1_556 S
C1045  H1046   1.074   .     S
C1045  O1047   1.222   .     D
C1048  O1050   1.222   .     D
C1048  H1049   1.074   .     S
C1051  C1062   1.450   .     S
C1051  O1103   1.299   .     A
C1051  O1171   1.295   .     S
C1052  C1061   1.450   .     S
C1052  O1104   1.299   .     A
C1052  O1242   1.295   1_455 S
C1053  C1055   1.387   .     A
C1053  C1082   1.413   .     A
C1053  H1091   1.078   .     S
C1054  C1056   1.386   .     A
C1054  H1092   1.077   .     S
C1054  C1081   1.412   .     A
C1055  H1085   1.078   .     S
C1056  H1086   1.078   .     S
C1056  C450    1.401   1_556 S
C1057  C1062   1.400   .     A
C1057  H1093   1.083   .     S
C1058  C1061   1.400   .     A
C1058  H1094   1.083   .     S
C1058  C640    1.384   1_565 S
C1059  H1095   1.083   .     S
C1059  C637    1.384   1_565 S
C1059  C1131   1.403   .     S
C1060  H1096   1.083   .     S
C1060  C1202   1.403   1_455 S
C1061  C1199   1.403   1_455 S
C1062  C1130   1.403   .     S
C1063  C1115   1.484   .     S
C1063  C1065   1.421   .     A
C1063  N1100   1.392   .     A
C1064  C1066   1.420   .     A
C1064  N1099   1.391   .     A
C1064  C1118   1.483   .     S
C1065  H1097   1.083   .     S
C1065  N1099   1.354   .     A
C1066  H1098   1.083   .     S
C1066  N1100   1.354   .     A
C1067  C1069   1.465   .     S
C1067  O1107   1.300   .     A
C1067  O1175   1.299   .     S
C1068  C1070   1.467   .     S
C1068  O1108   1.302   .     A
C1068  O1246   1.299   1_455 S
C1069  C1073   1.395   .     A
C1069  C1075   1.389   .     A
C1070  C1074   1.396   .     A
C1070  C1076   1.390   .     A
C1071  C1079   1.427   .     A
C1071  C1073   1.403   .     A
C1071  C1179   1.491   .     S
C1072  C1074   1.403   .     A
C1072  C1080   1.427   .     A
C1072  C1252   1.493   1_455 S
C1073  H1160   1.084   .     S
C1074  H1229   1.084   1_455 S
C1075  H1088   1.077   .     S
C1075  C1077   1.402   .     A
C1076  H1087   1.076   .     S
C1076  C1078   1.403   .     A
C1077  C1081   1.426   .     A
C1077  C1079   1.426   .     A
C1078  C1080   1.427   .     A
C1078  C1082   1.427   .     A
C1079  C425    1.401   1_556 S
C1081  C452    1.416   1_556 S
Cu1083 O1105   1.951   .     S
Cu1083 O1108   1.942   .     S
Cu1083 O1101   1.962   .     S
Cu1083 O1104   1.966   .     S
Cu1083 N1099   2.026   .     S
Cu1083 Cu1224  2.695   1_455 S
Cu1084 O1107   1.942   .     S
Cu1084 O1106   1.951   .     S
Cu1084 O1103   1.966   .     S
Cu1084 N1100   2.026   .     S
Cu1084 O1102   1.962   .     S
Cu1084 Cu1153  2.695   .     S
H1089  C1144   1.084   .     S
H1090  C1213   1.084   1_455 S
O1101  C1191   1.295   1_455 S
O1102  C1122   1.295   .     S
O1105  C1207   1.299   1_455 S
O1106  C1138   1.299   .     S
C1109  O1111   1.222   .     D
C1109  C1211   1.491   1_455 S
C1109  H620    1.081   1_456 S
C1112  O1114   1.222   .     D
C1112  C1142   1.493   .     S
H1113  C622    1.080   1_456 S
C1115  H1116   1.074   .     S
C1115  O1117   1.222   .     D
C1118  O1120   1.222   .     D
C1118  H1119   1.074   .     S
C1121  C1132   1.450   .     S
C1121  O1173   1.299   .     A
C1121  O1241   1.295   .     S
C1122  C1131   1.450   .     S
C1122  O1174   1.299   .     A
C1123  C1125   1.387   .     A
C1123  C1152   1.413   .     A
C1123  H1161   1.078   .     S
C1124  C1126   1.386   .     A
C1124  H1162   1.077   .     S
C1124  C1151   1.412   .     A
C1125  H1155   1.078   .     S
C1126  H1156   1.078   .     S
C1126  C520    1.401   1_556 S
C1127  C1132   1.400   .     A
C1127  H1163   1.083   .     S
C1128  C1131   1.400   .     A
C1128  H1164   1.083   .     S
C1128  C710    1.384   1_565 S
C1129  H1165   1.083   .     S
C1129  C707    1.384   1_565 S
C1129  C1201   1.403   .     S
C1130  H1166   1.083   .     S
C1132  C1200   1.403   .     S
C1133  C1185   1.484   .     S
C1133  C1135   1.421   .     A
C1133  N1170   1.392   .     A
C1134  C1136   1.420   .     A
C1134  N1169   1.391   .     A
C1134  C1188   1.483   .     S
C1135  H1167   1.083   .     S
C1135  N1169   1.354   .     A
C1136  H1168   1.083   .     S
C1136  N1170   1.354   .     A
C1137  C1139   1.465   .     S
C1137  O1177   1.300   .     A
C1137  O1245   1.299   .     S
C1138  C1140   1.467   .     S
C1138  O1178   1.302   .     A
C1139  C1143   1.395   .     A
C1139  C1145   1.389   .     A
C1140  C1144   1.396   .     A
C1140  C1146   1.390   .     A
C1141  C1149   1.427   .     A
C1141  C1143   1.403   .     A
C1141  C1249   1.491   .     S
C1142  C1144   1.403   .     A
C1142  C1150   1.427   .     A
C1143  H1230   1.084   .     S
C1145  H1158   1.077   .     S
C1145  C1147   1.402   .     A
C1146  H1157   1.076   .     S
C1146  C1148   1.403   .     A
C1147  C1151   1.426   .     A
C1147  C1149   1.426   .     A
C1148  C1150   1.427   .     A
C1148  C1152   1.427   .     A
C1149  C495    1.401   1_556 S
C1151  C522    1.416   1_556 S
Cu1153 O1175   1.951   .     S
Cu1153 O1178   1.942   .     S
Cu1153 O1171   1.962   .     S
Cu1153 O1174   1.966   .     S
Cu1153 N1169   2.026   .     S
Cu1154 O1177   1.942   .     S
Cu1154 O1176   1.951   .     S
Cu1154 O1173   1.966   .     S
Cu1154 N1170   2.026   .     S
Cu1154 O1172   1.962   .     S
Cu1154 Cu1223  2.695   .     S
H1159  C1214   1.084   .     S
O1172  C1192   1.295   .     S
O1176  C1208   1.299   .     S
C1179  O1181   1.222   .     D
C1179  H480    1.081   1_556 S
C1182  O1184   1.222   .     D
C1182  C1212   1.493   .     S
H1183  C482    1.080   1_556 S
C1185  H1186   1.074   .     S
C1185  O1187   1.222   .     D
C1188  O1190   1.222   .     D
C1188  H1189   1.074   .     S
C1191  C1202   1.450   .     S
C1191  O1243   1.299   .     A
C1191  O1101   1.295   1_655 S
C1192  C1201   1.450   .     S
C1192  O1244   1.299   .     A
C1193  C1195   1.387   .     A
C1193  C1222   1.413   .     A
C1193  H1231   1.078   .     S
C1194  C1196   1.386   .     A
C1194  H1232   1.077   .     S
C1194  C1221   1.412   .     A
C1195  H1225   1.078   .     S
C1196  H1226   1.078   .     S
C1196  C590    1.401   1_556 S
C1197  C1202   1.400   .     A
C1197  H1233   1.083   .     S
C1198  C1201   1.400   .     A
C1198  H1234   1.083   .     S
C1198  C780    1.384   1_565 S
C1199  H1235   1.083   .     S
C1199  C777    1.384   1_565 S
C1199  C1061   1.403   1_655 S
C1200  H1236   1.083   .     S
C1202  C1060   1.403   1_655 S
C1203  C1255   1.484   .     S
C1203  C1205   1.421   .     A
C1203  N1240   1.392   .     A
C1204  C1206   1.420   .     A
C1204  N1239   1.391   .     A
C1204  C1258   1.483   .     S
C1205  H1237   1.083   .     S
C1205  N1239   1.354   .     A
C1206  H1238   1.083   .     S
C1206  N1240   1.354   .     A
C1207  C1209   1.465   .     S
C1207  O1247   1.300   .     A
C1207  O1105   1.299   1_655 S
C1208  C1210   1.467   .     S
C1208  O1248   1.302   .     A
C1209  C1213   1.395   .     A
C1209  C1215   1.389   .     A
C1210  C1214   1.396   .     A
C1210  C1216   1.390   .     A
C1211  C1219   1.427   .     A
C1211  C1213   1.403   .     A
C1211  C1109   1.491   1_655 S
C1212  C1214   1.403   .     A
C1212  C1220   1.427   .     A
C1213  H1090   1.084   1_655 S
C1215  H1228   1.077   .     S
C1215  C1217   1.402   .     A
C1216  H1227   1.076   .     S
C1216  C1218   1.403   .     A
C1217  C1221   1.426   .     A
C1217  C1219   1.426   .     A
C1218  C1220   1.427   .     A
C1218  C1222   1.427   .     A
C1219  C565    1.401   1_556 S
C1221  C592    1.416   1_556 S
Cu1223 O1245   1.951   .     S
Cu1223 O1248   1.942   .     S
Cu1223 O1241   1.962   .     S
Cu1223 O1244   1.966   .     S
Cu1223 N1239   2.026   .     S
Cu1224 O1247   1.942   .     S
Cu1224 O1246   1.951   .     S
Cu1224 O1243   1.966   .     S
Cu1224 N1240   2.026   .     S
Cu1224 O1242   1.962   .     S
Cu1224 Cu1083  2.695   1_655 S
H1229  C1074   1.084   1_655 S
O1242  C1052   1.295   1_655 S
O1246  C1068   1.299   1_655 S
C1249  O1251   1.222   .     D
C1249  H550    1.081   1_556 S
H1250  C479    1.081   1_655 S
C1252  O1254   1.222   .     D
C1252  C1072   1.493   1_655 S
C1252  H483    1.080   1_655 S
H1253  C552    1.080   1_556 S
C1255  H1256   1.074   .     S
C1255  O1257   1.222   .     D
C1258  O1260   1.222   .     D
C1258  H1259   1.074   .     S
