data_str_m2_o1_o10_pcu_sym.112
_audit_creation_date              2020-01-03
_audit_creation_method            'Materials Studio'
_symmetry_space_group_name_H-M    'P1'
_symmetry_Int_Tables_number       1
_symmetry_cell_setting            triclinic
loop_
_symmetry_equiv_pos_as_xyz
  x,y,z
_cell_length_a                    26.1904
_cell_length_b                    32.4505
_cell_length_c                    28.6534
_cell_angle_alpha                 89.5997
_cell_angle_beta                  97.5491
_cell_angle_gamma                 90.7211
loop_
_atom_site_label
_atom_site_type_symbol
_atom_site_fract_x
_atom_site_fract_y
_atom_site_fract_z
_atom_site_U_iso_or_equiv
_atom_site_adp_type
_atom_site_occupancy
C1     C     0.16643   0.08740   0.16675   0.00000  Uiso   1.00
C2     C     0.16652   0.24594   0.16659   0.00000  Uiso   1.00
C3     C     0.06799   0.16653   0.15467   0.00000  Uiso   1.00
C4     C     0.26534   0.16712   0.17863   0.00000  Uiso   1.00
C5     C     0.01277   0.16575   0.14802   0.00000  Uiso   1.00
C6     C     0.32053   0.16848   0.18510   0.00000  Uiso   1.00
C7     C     0.15223   0.02148   0.12461   0.00000  Uiso   1.00
C8     C     0.17949   0.31187   0.20896   0.00000  Uiso   1.00
C9     C     0.15199   0.31216   0.12459   0.00000  Uiso   1.00
C10    C     0.17929   0.02118   0.20908   0.00000  Uiso   1.00
C11    C     0.16612   0.29057   0.16664   0.00000  Uiso   1.00
C12    C     0.16598   0.04278   0.16685   0.00000  Uiso   1.00
C13    C     0.13468   0.14092   0.02144   0.00000  Uiso   1.00
C14    C     0.19916   0.19201   0.31201   0.00000  Uiso   1.00
C15    C     0.13392   0.14106   0.30496   0.00000  Uiso   1.00
C16    C     0.19884   0.19263   0.02830   0.00000  Uiso   1.00
Cu17   Cu    0.16667   0.16667   0.21355   0.00000  Uiso   1.00
Cu18   Cu    0.16667   0.16666   0.11978   0.00000  Uiso   1.00
H19    H     0.32644   0.16245   0.11240   0.00000  Uiso   1.00
H20    H     0.00690   0.17213   0.22059   0.00000  Uiso   1.00
H21    H     0.14114   0.03771   0.09174   0.00000  Uiso   1.00
H22    H     0.19052   0.29563   0.24184   0.00000  Uiso   1.00
H23    H     0.14011   0.29615   0.09190   0.00000  Uiso   1.00
H24    H     0.19017   0.03719   0.24201   0.00000  Uiso   1.00
H25    H     0.10994   0.12003   0.03795   0.00000  Uiso   1.00
H26    H     0.22541   0.21186   0.29587   0.00000  Uiso   1.00
N27    N     0.16668   0.16668   0.28403   0.00000  Uiso   1.00
N28    N     0.16665   0.16666   0.04931   0.00000  Uiso   1.00
O29    O     0.16666   0.10655   0.20625   0.00000  Uiso   1.00
O30    O     0.16667   0.22678   0.12709   0.00000  Uiso   1.00
O31    O     0.16666   0.10654   0.12706   0.00000  Uiso   1.00
O32    O     0.16667   0.22679   0.20628   0.00000  Uiso   1.00
O33    O     0.09161   0.16667   0.19712   0.00000  Uiso   1.00
O34    O     0.24172   0.16666   0.13621   0.00000  Uiso   1.00
O35    O     0.09161   0.16666   0.11793   0.00000  Uiso   1.00
O36    O     0.24172   0.16667   0.21540   0.00000  Uiso   1.00
N37    N     0.10094   0.11325   0.27670   0.00000  Uiso   1.00
H38    H     0.11774   0.08514   0.27286   0.00000  Uiso   1.00
C39    C     0.04845   0.10921   0.28706   0.00000  Uiso   1.00
H40    H     0.04662   0.08828   0.31765   0.00000  Uiso   1.00
H41    H     0.02405   0.09580   0.25615   0.00000  Uiso   1.00
H42    H     0.03281   0.13976   0.29466   0.00000  Uiso   1.00
N43    N     0.23313   0.21936   0.05661   0.00000  Uiso   1.00
H44    H     0.27042   0.20882   0.06135   0.00000  Uiso   1.00
C45    C     0.23045   0.26256   0.04367   0.00000  Uiso   1.00
H46    H     0.25111   0.26856   0.01279   0.00000  Uiso   1.00
H47    H     0.24899   0.28128   0.07364   0.00000  Uiso   1.00
H48    H     0.18977   0.27228   0.03513   0.00000  Uiso   1.00
C49    C     0.49976   0.08740   0.16675   0.00000  Uiso   1.00
C50    C     0.49985   0.24594   0.16659   0.00000  Uiso   1.00
C51    C     0.40132   0.16653   0.15467   0.00000  Uiso   1.00
C52    C     0.59867   0.16712   0.17863   0.00000  Uiso   1.00
C53    C     0.34611   0.16575   0.14802   0.00000  Uiso   1.00
C54    C     0.65386   0.16848   0.18510   0.00000  Uiso   1.00
C55    C     0.48556   0.02148   0.12461   0.00000  Uiso   1.00
C56    C     0.51282   0.31187   0.20896   0.00000  Uiso   1.00
C57    C     0.48532   0.31216   0.12459   0.00000  Uiso   1.00
C58    C     0.51263   0.02118   0.20908   0.00000  Uiso   1.00
C59    C     0.49946   0.29057   0.16664   0.00000  Uiso   1.00
C60    C     0.49931   0.04278   0.16685   0.00000  Uiso   1.00
C61    C     0.46801   0.14092   0.02144   0.00000  Uiso   1.00
C62    C     0.53250   0.19201   0.31201   0.00000  Uiso   1.00
C63    C     0.46725   0.14106   0.30496   0.00000  Uiso   1.00
C64    C     0.53217   0.19263   0.02830   0.00000  Uiso   1.00
Cu65   Cu    0.50000   0.16667   0.21355   0.00000  Uiso   1.00
Cu66   Cu    0.50000   0.16666   0.11978   0.00000  Uiso   1.00
H67    H     0.65978   0.16245   0.11240   0.00000  Uiso   1.00
H68    H     0.34024   0.17213   0.22059   0.00000  Uiso   1.00
H69    H     0.47447   0.03771   0.09174   0.00000  Uiso   1.00
H70    H     0.52385   0.29563   0.24184   0.00000  Uiso   1.00
H71    H     0.47344   0.29615   0.09190   0.00000  Uiso   1.00
H72    H     0.52350   0.03719   0.24201   0.00000  Uiso   1.00
H73    H     0.44328   0.12003   0.03795   0.00000  Uiso   1.00
H74    H     0.55874   0.21186   0.29587   0.00000  Uiso   1.00
N75    N     0.50001   0.16668   0.28403   0.00000  Uiso   1.00
N76    N     0.49999   0.16666   0.04931   0.00000  Uiso   1.00
O77    O     0.50000   0.10655   0.20625   0.00000  Uiso   1.00
O78    O     0.50000   0.22678   0.12709   0.00000  Uiso   1.00
O79    O     0.50000   0.10654   0.12706   0.00000  Uiso   1.00
O80    O     0.50000   0.22679   0.20628   0.00000  Uiso   1.00
O81    O     0.42495   0.16667   0.19712   0.00000  Uiso   1.00
O82    O     0.57505   0.16666   0.13621   0.00000  Uiso   1.00
O83    O     0.42494   0.16666   0.11793   0.00000  Uiso   1.00
O84    O     0.57506   0.16667   0.21540   0.00000  Uiso   1.00
N85    N     0.43428   0.11325   0.27670   0.00000  Uiso   1.00
H86    H     0.45107   0.08514   0.27286   0.00000  Uiso   1.00
C87    C     0.38179   0.10921   0.28706   0.00000  Uiso   1.00
H88    H     0.37995   0.08828   0.31765   0.00000  Uiso   1.00
H89    H     0.35738   0.09580   0.25615   0.00000  Uiso   1.00
H90    H     0.36615   0.13976   0.29466   0.00000  Uiso   1.00
N91    N     0.56646   0.21936   0.05661   0.00000  Uiso   1.00
H92    H     0.60375   0.20882   0.06135   0.00000  Uiso   1.00
C93    C     0.56379   0.26256   0.04367   0.00000  Uiso   1.00
H94    H     0.58444   0.26856   0.01279   0.00000  Uiso   1.00
H95    H     0.58233   0.28128   0.07364   0.00000  Uiso   1.00
H96    H     0.52310   0.27228   0.03513   0.00000  Uiso   1.00
C97    C     0.83309   0.08740   0.16675   0.00000  Uiso   1.00
C98    C     0.83319   0.24594   0.16659   0.00000  Uiso   1.00
C99    C     0.73465   0.16653   0.15467   0.00000  Uiso   1.00
C100   C     0.93200   0.16712   0.17863   0.00000  Uiso   1.00
C101   C     0.67944   0.16575   0.14802   0.00000  Uiso   1.00
C102   C     0.98720   0.16848   0.18510   0.00000  Uiso   1.00
C103   C     0.81890   0.02148   0.12461   0.00000  Uiso   1.00
C104   C     0.84616   0.31187   0.20896   0.00000  Uiso   1.00
C105   C     0.81865   0.31216   0.12459   0.00000  Uiso   1.00
C106   C     0.84596   0.02118   0.20908   0.00000  Uiso   1.00
C107   C     0.83279   0.29057   0.16664   0.00000  Uiso   1.00
C108   C     0.83265   0.04278   0.16685   0.00000  Uiso   1.00
C109   C     0.80135   0.14092   0.02144   0.00000  Uiso   1.00
C110   C     0.86583   0.19201   0.31201   0.00000  Uiso   1.00
C111   C     0.80059   0.14106   0.30496   0.00000  Uiso   1.00
C112   C     0.86551   0.19263   0.02830   0.00000  Uiso   1.00
Cu113  Cu    0.83333   0.16667   0.21355   0.00000  Uiso   1.00
Cu114  Cu    0.83333   0.16666   0.11978   0.00000  Uiso   1.00
H115   H     0.99311   0.16245   0.11240   0.00000  Uiso   1.00
H116   H     0.67357   0.17213   0.22059   0.00000  Uiso   1.00
H117   H     0.80780   0.03771   0.09174   0.00000  Uiso   1.00
H118   H     0.85718   0.29563   0.24184   0.00000  Uiso   1.00
H119   H     0.80678   0.29615   0.09190   0.00000  Uiso   1.00
H120   H     0.85684   0.03719   0.24201   0.00000  Uiso   1.00
H121   H     0.77661   0.12003   0.03795   0.00000  Uiso   1.00
H122   H     0.89208   0.21186   0.29587   0.00000  Uiso   1.00
N123   N     0.83335   0.16668   0.28403   0.00000  Uiso   1.00
N124   N     0.83332   0.16666   0.04931   0.00000  Uiso   1.00
O125   O     0.83333   0.10655   0.20625   0.00000  Uiso   1.00
O126   O     0.83334   0.22678   0.12709   0.00000  Uiso   1.00
O127   O     0.83333   0.10654   0.12706   0.00000  Uiso   1.00
O128   O     0.83334   0.22679   0.20628   0.00000  Uiso   1.00
O129   O     0.75828   0.16667   0.19712   0.00000  Uiso   1.00
O130   O     0.90839   0.16666   0.13621   0.00000  Uiso   1.00
O131   O     0.75828   0.16666   0.11793   0.00000  Uiso   1.00
O132   O     0.90839   0.16667   0.21540   0.00000  Uiso   1.00
N133   N     0.76761   0.11325   0.27670   0.00000  Uiso   1.00
H134   H     0.78440   0.08514   0.27286   0.00000  Uiso   1.00
C135   C     0.71512   0.10921   0.28706   0.00000  Uiso   1.00
H136   H     0.71328   0.08828   0.31765   0.00000  Uiso   1.00
H137   H     0.69072   0.09580   0.25615   0.00000  Uiso   1.00
H138   H     0.69948   0.13976   0.29466   0.00000  Uiso   1.00
N139   N     0.89979   0.21936   0.05661   0.00000  Uiso   1.00
H140   H     0.93708   0.20882   0.06135   0.00000  Uiso   1.00
C141   C     0.89712   0.26256   0.04367   0.00000  Uiso   1.00
H142   H     0.91777   0.26856   0.01279   0.00000  Uiso   1.00
H143   H     0.91566   0.28128   0.07364   0.00000  Uiso   1.00
H144   H     0.85643   0.27228   0.03513   0.00000  Uiso   1.00
C145   C     0.16643   0.42073   0.16675   0.00000  Uiso   1.00
C146   C     0.16652   0.57927   0.16659   0.00000  Uiso   1.00
C147   C     0.06799   0.49987   0.15467   0.00000  Uiso   1.00
C148   C     0.26534   0.50045   0.17863   0.00000  Uiso   1.00
C149   C     0.01277   0.49908   0.14802   0.00000  Uiso   1.00
C150   C     0.32053   0.50181   0.18510   0.00000  Uiso   1.00
C151   C     0.15223   0.35481   0.12461   0.00000  Uiso   1.00
C152   C     0.17949   0.64520   0.20896   0.00000  Uiso   1.00
C153   C     0.15199   0.64550   0.12459   0.00000  Uiso   1.00
C154   C     0.17929   0.35452   0.20908   0.00000  Uiso   1.00
C155   C     0.16612   0.62390   0.16664   0.00000  Uiso   1.00
C156   C     0.16598   0.37611   0.16685   0.00000  Uiso   1.00
C157   C     0.13468   0.47425   0.02144   0.00000  Uiso   1.00
C158   C     0.19916   0.52534   0.31201   0.00000  Uiso   1.00
C159   C     0.13392   0.47439   0.30496   0.00000  Uiso   1.00
C160   C     0.19884   0.52597   0.02830   0.00000  Uiso   1.00
Cu161  Cu    0.16667   0.50001   0.21355   0.00000  Uiso   1.00
Cu162  Cu    0.16667   0.49999   0.11978   0.00000  Uiso   1.00
H163   H     0.32644   0.49579   0.11240   0.00000  Uiso   1.00
H164   H     0.00690   0.50546   0.22059   0.00000  Uiso   1.00
H165   H     0.14114   0.37105   0.09174   0.00000  Uiso   1.00
H166   H     0.19052   0.62896   0.24184   0.00000  Uiso   1.00
H167   H     0.14011   0.62949   0.09190   0.00000  Uiso   1.00
H168   H     0.19017   0.37052   0.24201   0.00000  Uiso   1.00
H169   H     0.10994   0.45336   0.03795   0.00000  Uiso   1.00
H170   H     0.22541   0.54519   0.29587   0.00000  Uiso   1.00
N171   N     0.16668   0.50001   0.28403   0.00000  Uiso   1.00
N172   N     0.16665   0.49999   0.04931   0.00000  Uiso   1.00
O173   O     0.16666   0.43989   0.20625   0.00000  Uiso   1.00
O174   O     0.16667   0.56011   0.12709   0.00000  Uiso   1.00
O175   O     0.16666   0.43988   0.12706   0.00000  Uiso   1.00
O176   O     0.16667   0.56012   0.20628   0.00000  Uiso   1.00
O177   O     0.09161   0.50000   0.19712   0.00000  Uiso   1.00
O178   O     0.24172   0.50000   0.13621   0.00000  Uiso   1.00
O179   O     0.09161   0.49999   0.11793   0.00000  Uiso   1.00
O180   O     0.24172   0.50001   0.21540   0.00000  Uiso   1.00
N181   N     0.10094   0.44658   0.27670   0.00000  Uiso   1.00
H182   H     0.11774   0.41847   0.27286   0.00000  Uiso   1.00
C183   C     0.04845   0.44254   0.28706   0.00000  Uiso   1.00
H184   H     0.04662   0.42161   0.31765   0.00000  Uiso   1.00
H185   H     0.02405   0.42913   0.25615   0.00000  Uiso   1.00
H186   H     0.03281   0.47309   0.29466   0.00000  Uiso   1.00
N187   N     0.23313   0.55270   0.05661   0.00000  Uiso   1.00
H188   H     0.27042   0.54215   0.06135   0.00000  Uiso   1.00
C189   C     0.23045   0.59589   0.04367   0.00000  Uiso   1.00
H190   H     0.25111   0.60189   0.01279   0.00000  Uiso   1.00
H191   H     0.24899   0.61462   0.07364   0.00000  Uiso   1.00
H192   H     0.18977   0.60561   0.03513   0.00000  Uiso   1.00
C193   C     0.49976   0.42073   0.16675   0.00000  Uiso   1.00
C194   C     0.49985   0.57927   0.16659   0.00000  Uiso   1.00
C195   C     0.40132   0.49987   0.15467   0.00000  Uiso   1.00
C196   C     0.59867   0.50045   0.17863   0.00000  Uiso   1.00
C197   C     0.34611   0.49908   0.14802   0.00000  Uiso   1.00
C198   C     0.65386   0.50181   0.18510   0.00000  Uiso   1.00
C199   C     0.48556   0.35481   0.12461   0.00000  Uiso   1.00
C200   C     0.51282   0.64520   0.20896   0.00000  Uiso   1.00
C201   C     0.48532   0.64550   0.12459   0.00000  Uiso   1.00
C202   C     0.51263   0.35452   0.20908   0.00000  Uiso   1.00
C203   C     0.49946   0.62390   0.16664   0.00000  Uiso   1.00
C204   C     0.49931   0.37611   0.16685   0.00000  Uiso   1.00
C205   C     0.46801   0.47425   0.02144   0.00000  Uiso   1.00
C206   C     0.53250   0.52534   0.31201   0.00000  Uiso   1.00
C207   C     0.46725   0.47439   0.30496   0.00000  Uiso   1.00
C208   C     0.53217   0.52597   0.02830   0.00000  Uiso   1.00
Cu209  Cu    0.50000   0.50001   0.21355   0.00000  Uiso   1.00
Cu210  Cu    0.50000   0.49999   0.11978   0.00000  Uiso   1.00
H211   H     0.65978   0.49579   0.11240   0.00000  Uiso   1.00
H212   H     0.34024   0.50546   0.22059   0.00000  Uiso   1.00
H213   H     0.47447   0.37105   0.09174   0.00000  Uiso   1.00
H214   H     0.52385   0.62896   0.24184   0.00000  Uiso   1.00
H215   H     0.47344   0.62949   0.09190   0.00000  Uiso   1.00
H216   H     0.52350   0.37052   0.24201   0.00000  Uiso   1.00
H217   H     0.44328   0.45336   0.03795   0.00000  Uiso   1.00
H218   H     0.55874   0.54519   0.29587   0.00000  Uiso   1.00
N219   N     0.50001   0.50001   0.28403   0.00000  Uiso   1.00
N220   N     0.49999   0.49999   0.04931   0.00000  Uiso   1.00
O221   O     0.50000   0.43989   0.20625   0.00000  Uiso   1.00
O222   O     0.50000   0.56011   0.12709   0.00000  Uiso   1.00
O223   O     0.50000   0.43988   0.12706   0.00000  Uiso   1.00
O224   O     0.50000   0.56012   0.20628   0.00000  Uiso   1.00
O225   O     0.42495   0.50000   0.19712   0.00000  Uiso   1.00
O226   O     0.57505   0.50000   0.13621   0.00000  Uiso   1.00
O227   O     0.42494   0.49999   0.11793   0.00000  Uiso   1.00
O228   O     0.57506   0.50001   0.21540   0.00000  Uiso   1.00
N229   N     0.43428   0.44658   0.27670   0.00000  Uiso   1.00
H230   H     0.45107   0.41847   0.27286   0.00000  Uiso   1.00
C231   C     0.38179   0.44254   0.28706   0.00000  Uiso   1.00
H232   H     0.37995   0.42161   0.31765   0.00000  Uiso   1.00
H233   H     0.35738   0.42913   0.25615   0.00000  Uiso   1.00
H234   H     0.36615   0.47309   0.29466   0.00000  Uiso   1.00
N235   N     0.56646   0.55270   0.05661   0.00000  Uiso   1.00
H236   H     0.60375   0.54215   0.06135   0.00000  Uiso   1.00
C237   C     0.56379   0.59589   0.04367   0.00000  Uiso   1.00
H238   H     0.58444   0.60189   0.01279   0.00000  Uiso   1.00
H239   H     0.58233   0.61462   0.07364   0.00000  Uiso   1.00
H240   H     0.52310   0.60561   0.03513   0.00000  Uiso   1.00
C241   C     0.83309   0.42073   0.16675   0.00000  Uiso   1.00
C242   C     0.83319   0.57927   0.16659   0.00000  Uiso   1.00
C243   C     0.73465   0.49987   0.15467   0.00000  Uiso   1.00
C244   C     0.93200   0.50045   0.17863   0.00000  Uiso   1.00
C245   C     0.67944   0.49908   0.14802   0.00000  Uiso   1.00
C246   C     0.98720   0.50181   0.18510   0.00000  Uiso   1.00
C247   C     0.81890   0.35481   0.12461   0.00000  Uiso   1.00
C248   C     0.84616   0.64520   0.20896   0.00000  Uiso   1.00
C249   C     0.81865   0.64550   0.12459   0.00000  Uiso   1.00
C250   C     0.84596   0.35452   0.20908   0.00000  Uiso   1.00
C251   C     0.83279   0.62390   0.16664   0.00000  Uiso   1.00
C252   C     0.83265   0.37611   0.16685   0.00000  Uiso   1.00
C253   C     0.80135   0.47425   0.02144   0.00000  Uiso   1.00
C254   C     0.86583   0.52534   0.31201   0.00000  Uiso   1.00
C255   C     0.80059   0.47439   0.30496   0.00000  Uiso   1.00
C256   C     0.86551   0.52597   0.02830   0.00000  Uiso   1.00
Cu257  Cu    0.83333   0.50001   0.21355   0.00000  Uiso   1.00
Cu258  Cu    0.83333   0.49999   0.11978   0.00000  Uiso   1.00
H259   H     0.99311   0.49579   0.11240   0.00000  Uiso   1.00
H260   H     0.67357   0.50546   0.22059   0.00000  Uiso   1.00
H261   H     0.80780   0.37105   0.09174   0.00000  Uiso   1.00
H262   H     0.85718   0.62896   0.24184   0.00000  Uiso   1.00
H263   H     0.80678   0.62949   0.09190   0.00000  Uiso   1.00
H264   H     0.85684   0.37052   0.24201   0.00000  Uiso   1.00
H265   H     0.77661   0.45336   0.03795   0.00000  Uiso   1.00
H266   H     0.89208   0.54519   0.29587   0.00000  Uiso   1.00
N267   N     0.83335   0.50001   0.28403   0.00000  Uiso   1.00
N268   N     0.83332   0.49999   0.04931   0.00000  Uiso   1.00
O269   O     0.83333   0.43989   0.20625   0.00000  Uiso   1.00
O270   O     0.83334   0.56011   0.12709   0.00000  Uiso   1.00
O271   O     0.83333   0.43988   0.12706   0.00000  Uiso   1.00
O272   O     0.83334   0.56012   0.20628   0.00000  Uiso   1.00
O273   O     0.75828   0.50000   0.19712   0.00000  Uiso   1.00
O274   O     0.90839   0.50000   0.13621   0.00000  Uiso   1.00
O275   O     0.75828   0.49999   0.11793   0.00000  Uiso   1.00
O276   O     0.90839   0.50001   0.21540   0.00000  Uiso   1.00
N277   N     0.76761   0.44658   0.27670   0.00000  Uiso   1.00
H278   H     0.78440   0.41847   0.27286   0.00000  Uiso   1.00
C279   C     0.71512   0.44254   0.28706   0.00000  Uiso   1.00
H280   H     0.71328   0.42161   0.31765   0.00000  Uiso   1.00
H281   H     0.69072   0.42913   0.25615   0.00000  Uiso   1.00
H282   H     0.69948   0.47309   0.29466   0.00000  Uiso   1.00
N283   N     0.89979   0.55270   0.05661   0.00000  Uiso   1.00
H284   H     0.93708   0.54215   0.06135   0.00000  Uiso   1.00
C285   C     0.89712   0.59589   0.04367   0.00000  Uiso   1.00
H286   H     0.91777   0.60189   0.01279   0.00000  Uiso   1.00
H287   H     0.91566   0.61462   0.07364   0.00000  Uiso   1.00
H288   H     0.85643   0.60561   0.03513   0.00000  Uiso   1.00
C289   C     0.16643   0.75407   0.16675   0.00000  Uiso   1.00
C290   C     0.16652   0.91260   0.16659   0.00000  Uiso   1.00
C291   C     0.06799   0.83320   0.15467   0.00000  Uiso   1.00
C292   C     0.26534   0.83378   0.17863   0.00000  Uiso   1.00
C293   C     0.01277   0.83242   0.14802   0.00000  Uiso   1.00
C294   C     0.32053   0.83514   0.18510   0.00000  Uiso   1.00
C295   C     0.15223   0.68814   0.12461   0.00000  Uiso   1.00
C296   C     0.17949   0.97853   0.20896   0.00000  Uiso   1.00
C297   C     0.15199   0.97883   0.12459   0.00000  Uiso   1.00
C298   C     0.17929   0.68785   0.20908   0.00000  Uiso   1.00
C299   C     0.16612   0.95724   0.16664   0.00000  Uiso   1.00
C300   C     0.16598   0.70944   0.16685   0.00000  Uiso   1.00
C301   C     0.13468   0.80758   0.02144   0.00000  Uiso   1.00
C302   C     0.19916   0.85867   0.31201   0.00000  Uiso   1.00
C303   C     0.13392   0.80773   0.30496   0.00000  Uiso   1.00
C304   C     0.19884   0.85930   0.02830   0.00000  Uiso   1.00
Cu305  Cu    0.16667   0.83334   0.21355   0.00000  Uiso   1.00
Cu306  Cu    0.16667   0.83333   0.11978   0.00000  Uiso   1.00
H307   H     0.32644   0.82912   0.11240   0.00000  Uiso   1.00
H308   H     0.00690   0.83879   0.22059   0.00000  Uiso   1.00
H309   H     0.14114   0.70438   0.09174   0.00000  Uiso   1.00
H310   H     0.19052   0.96230   0.24184   0.00000  Uiso   1.00
H311   H     0.14011   0.96282   0.09190   0.00000  Uiso   1.00
H312   H     0.19017   0.70386   0.24201   0.00000  Uiso   1.00
H313   H     0.10994   0.78669   0.03795   0.00000  Uiso   1.00
H314   H     0.22541   0.87852   0.29587   0.00000  Uiso   1.00
N315   N     0.16668   0.83334   0.28403   0.00000  Uiso   1.00
N316   N     0.16665   0.83332   0.04931   0.00000  Uiso   1.00
O317   O     0.16666   0.77322   0.20625   0.00000  Uiso   1.00
O318   O     0.16667   0.89345   0.12709   0.00000  Uiso   1.00
O319   O     0.16666   0.77321   0.12706   0.00000  Uiso   1.00
O320   O     0.16667   0.89346   0.20628   0.00000  Uiso   1.00
O321   O     0.09161   0.83334   0.19712   0.00000  Uiso   1.00
O322   O     0.24172   0.83333   0.13621   0.00000  Uiso   1.00
O323   O     0.09161   0.83333   0.11793   0.00000  Uiso   1.00
O324   O     0.24172   0.83334   0.21540   0.00000  Uiso   1.00
N325   N     0.10094   0.77991   0.27670   0.00000  Uiso   1.00
H326   H     0.11774   0.75180   0.27286   0.00000  Uiso   1.00
C327   C     0.04845   0.77588   0.28706   0.00000  Uiso   1.00
H328   H     0.04662   0.75495   0.31765   0.00000  Uiso   1.00
H329   H     0.02405   0.76246   0.25615   0.00000  Uiso   1.00
H330   H     0.03281   0.80643   0.29466   0.00000  Uiso   1.00
N331   N     0.23313   0.88603   0.05661   0.00000  Uiso   1.00
H332   H     0.27042   0.87549   0.06135   0.00000  Uiso   1.00
C333   C     0.23045   0.92923   0.04367   0.00000  Uiso   1.00
H334   H     0.25111   0.93522   0.01279   0.00000  Uiso   1.00
H335   H     0.24899   0.94795   0.07364   0.00000  Uiso   1.00
H336   H     0.18977   0.93894   0.03513   0.00000  Uiso   1.00
C337   C     0.49976   0.75407   0.16675   0.00000  Uiso   1.00
C338   C     0.49985   0.91260   0.16659   0.00000  Uiso   1.00
C339   C     0.40132   0.83320   0.15467   0.00000  Uiso   1.00
C340   C     0.59867   0.83378   0.17863   0.00000  Uiso   1.00
C341   C     0.34611   0.83242   0.14802   0.00000  Uiso   1.00
C342   C     0.65386   0.83514   0.18510   0.00000  Uiso   1.00
C343   C     0.48556   0.68814   0.12461   0.00000  Uiso   1.00
C344   C     0.51282   0.97853   0.20896   0.00000  Uiso   1.00
C345   C     0.48532   0.97883   0.12459   0.00000  Uiso   1.00
C346   C     0.51263   0.68785   0.20908   0.00000  Uiso   1.00
C347   C     0.49946   0.95724   0.16664   0.00000  Uiso   1.00
C348   C     0.49931   0.70944   0.16685   0.00000  Uiso   1.00
C349   C     0.46801   0.80758   0.02144   0.00000  Uiso   1.00
C350   C     0.53250   0.85867   0.31201   0.00000  Uiso   1.00
C351   C     0.46725   0.80773   0.30496   0.00000  Uiso   1.00
C352   C     0.53217   0.85930   0.02830   0.00000  Uiso   1.00
Cu353  Cu    0.50000   0.83334   0.21355   0.00000  Uiso   1.00
Cu354  Cu    0.50000   0.83333   0.11978   0.00000  Uiso   1.00
H355   H     0.65978   0.82912   0.11240   0.00000  Uiso   1.00
H356   H     0.34024   0.83879   0.22059   0.00000  Uiso   1.00
H357   H     0.47447   0.70438   0.09174   0.00000  Uiso   1.00
H358   H     0.52385   0.96230   0.24184   0.00000  Uiso   1.00
H359   H     0.47344   0.96282   0.09190   0.00000  Uiso   1.00
H360   H     0.52350   0.70386   0.24201   0.00000  Uiso   1.00
H361   H     0.44328   0.78669   0.03795   0.00000  Uiso   1.00
H362   H     0.55874   0.87852   0.29587   0.00000  Uiso   1.00
N363   N     0.50001   0.83334   0.28403   0.00000  Uiso   1.00
N364   N     0.49999   0.83332   0.04931   0.00000  Uiso   1.00
O365   O     0.50000   0.77322   0.20625   0.00000  Uiso   1.00
O366   O     0.50000   0.89345   0.12709   0.00000  Uiso   1.00
O367   O     0.50000   0.77321   0.12706   0.00000  Uiso   1.00
O368   O     0.50000   0.89346   0.20628   0.00000  Uiso   1.00
O369   O     0.42495   0.83334   0.19712   0.00000  Uiso   1.00
O370   O     0.57505   0.83333   0.13621   0.00000  Uiso   1.00
O371   O     0.42494   0.83333   0.11793   0.00000  Uiso   1.00
O372   O     0.57506   0.83334   0.21540   0.00000  Uiso   1.00
N373   N     0.43428   0.77991   0.27670   0.00000  Uiso   1.00
H374   H     0.45107   0.75180   0.27286   0.00000  Uiso   1.00
C375   C     0.38179   0.77588   0.28706   0.00000  Uiso   1.00
H376   H     0.37995   0.75495   0.31765   0.00000  Uiso   1.00
H377   H     0.35738   0.76246   0.25615   0.00000  Uiso   1.00
H378   H     0.36615   0.80643   0.29466   0.00000  Uiso   1.00
N379   N     0.56646   0.88603   0.05661   0.00000  Uiso   1.00
H380   H     0.60375   0.87549   0.06135   0.00000  Uiso   1.00
C381   C     0.56379   0.92923   0.04367   0.00000  Uiso   1.00
H382   H     0.58444   0.93522   0.01279   0.00000  Uiso   1.00
H383   H     0.58233   0.94795   0.07364   0.00000  Uiso   1.00
H384   H     0.52310   0.93894   0.03513   0.00000  Uiso   1.00
C385   C     0.83309   0.75407   0.16675   0.00000  Uiso   1.00
C386   C     0.83319   0.91260   0.16659   0.00000  Uiso   1.00
C387   C     0.73465   0.83320   0.15467   0.00000  Uiso   1.00
C388   C     0.93200   0.83378   0.17863   0.00000  Uiso   1.00
C389   C     0.67944   0.83242   0.14802   0.00000  Uiso   1.00
C390   C     0.98720   0.83514   0.18510   0.00000  Uiso   1.00
C391   C     0.81890   0.68814   0.12461   0.00000  Uiso   1.00
C392   C     0.84616   0.97853   0.20896   0.00000  Uiso   1.00
C393   C     0.81865   0.97883   0.12459   0.00000  Uiso   1.00
C394   C     0.84596   0.68785   0.20908   0.00000  Uiso   1.00
C395   C     0.83279   0.95724   0.16664   0.00000  Uiso   1.00
C396   C     0.83265   0.70944   0.16685   0.00000  Uiso   1.00
C397   C     0.80135   0.80758   0.02144   0.00000  Uiso   1.00
C398   C     0.86583   0.85867   0.31201   0.00000  Uiso   1.00
C399   C     0.80059   0.80773   0.30496   0.00000  Uiso   1.00
C400   C     0.86551   0.85930   0.02830   0.00000  Uiso   1.00
Cu401  Cu    0.83333   0.83334   0.21355   0.00000  Uiso   1.00
Cu402  Cu    0.83333   0.83333   0.11978   0.00000  Uiso   1.00
H403   H     0.99311   0.82912   0.11240   0.00000  Uiso   1.00
H404   H     0.67357   0.83879   0.22059   0.00000  Uiso   1.00
H405   H     0.80780   0.70438   0.09174   0.00000  Uiso   1.00
H406   H     0.85718   0.96230   0.24184   0.00000  Uiso   1.00
H407   H     0.80678   0.96282   0.09190   0.00000  Uiso   1.00
H408   H     0.85684   0.70386   0.24201   0.00000  Uiso   1.00
H409   H     0.77661   0.78669   0.03795   0.00000  Uiso   1.00
H410   H     0.89208   0.87852   0.29587   0.00000  Uiso   1.00
N411   N     0.83335   0.83334   0.28403   0.00000  Uiso   1.00
N412   N     0.83332   0.83332   0.04931   0.00000  Uiso   1.00
O413   O     0.83333   0.77322   0.20625   0.00000  Uiso   1.00
O414   O     0.83334   0.89345   0.12709   0.00000  Uiso   1.00
O415   O     0.83333   0.77321   0.12706   0.00000  Uiso   1.00
O416   O     0.83334   0.89346   0.20628   0.00000  Uiso   1.00
O417   O     0.75828   0.83334   0.19712   0.00000  Uiso   1.00
O418   O     0.90839   0.83333   0.13621   0.00000  Uiso   1.00
O419   O     0.75828   0.83333   0.11793   0.00000  Uiso   1.00
O420   O     0.90839   0.83334   0.21540   0.00000  Uiso   1.00
N421   N     0.76761   0.77991   0.27670   0.00000  Uiso   1.00
H422   H     0.78440   0.75180   0.27286   0.00000  Uiso   1.00
C423   C     0.71512   0.77588   0.28706   0.00000  Uiso   1.00
H424   H     0.71328   0.75495   0.31765   0.00000  Uiso   1.00
H425   H     0.69072   0.76246   0.25615   0.00000  Uiso   1.00
H426   H     0.69948   0.80643   0.29466   0.00000  Uiso   1.00
N427   N     0.89979   0.88603   0.05661   0.00000  Uiso   1.00
H428   H     0.93708   0.87549   0.06135   0.00000  Uiso   1.00
C429   C     0.89712   0.92923   0.04367   0.00000  Uiso   1.00
H430   H     0.91777   0.93522   0.01279   0.00000  Uiso   1.00
H431   H     0.91566   0.94795   0.07364   0.00000  Uiso   1.00
H432   H     0.85643   0.93894   0.03513   0.00000  Uiso   1.00
C433   C     0.16643   0.08740   0.50008   0.00000  Uiso   1.00
C434   C     0.16652   0.24594   0.49992   0.00000  Uiso   1.00
C435   C     0.06799   0.16653   0.48800   0.00000  Uiso   1.00
C436   C     0.26534   0.16712   0.51196   0.00000  Uiso   1.00
C437   C     0.01277   0.16575   0.48135   0.00000  Uiso   1.00
C438   C     0.32053   0.16848   0.51843   0.00000  Uiso   1.00
C439   C     0.15223   0.02148   0.45795   0.00000  Uiso   1.00
C440   C     0.17949   0.31187   0.54229   0.00000  Uiso   1.00
C441   C     0.15199   0.31216   0.45792   0.00000  Uiso   1.00
C442   C     0.17929   0.02118   0.54241   0.00000  Uiso   1.00
C443   C     0.16612   0.29057   0.49997   0.00000  Uiso   1.00
C444   C     0.16598   0.04278   0.50019   0.00000  Uiso   1.00
C445   C     0.13468   0.14092   0.35477   0.00000  Uiso   1.00
C446   C     0.19916   0.19201   0.64534   0.00000  Uiso   1.00
C447   C     0.13392   0.14106   0.63829   0.00000  Uiso   1.00
C448   C     0.19884   0.19263   0.36163   0.00000  Uiso   1.00
Cu449  Cu    0.16667   0.16667   0.54689   0.00000  Uiso   1.00
Cu450  Cu    0.16667   0.16666   0.45311   0.00000  Uiso   1.00
H451   H     0.32644   0.16245   0.44573   0.00000  Uiso   1.00
H452   H     0.00690   0.17213   0.55392   0.00000  Uiso   1.00
H453   H     0.14114   0.03771   0.42508   0.00000  Uiso   1.00
H454   H     0.19052   0.29563   0.57518   0.00000  Uiso   1.00
H455   H     0.14011   0.29615   0.42524   0.00000  Uiso   1.00
H456   H     0.19017   0.03719   0.57534   0.00000  Uiso   1.00
H457   H     0.10994   0.12003   0.37129   0.00000  Uiso   1.00
H458   H     0.22541   0.21186   0.62921   0.00000  Uiso   1.00
N459   N     0.16668   0.16668   0.61736   0.00000  Uiso   1.00
N460   N     0.16665   0.16666   0.38264   0.00000  Uiso   1.00
O461   O     0.16666   0.10655   0.53958   0.00000  Uiso   1.00
O462   O     0.16667   0.22678   0.46042   0.00000  Uiso   1.00
O463   O     0.16666   0.10654   0.46039   0.00000  Uiso   1.00
O464   O     0.16667   0.22679   0.53961   0.00000  Uiso   1.00
O465   O     0.09161   0.16667   0.53046   0.00000  Uiso   1.00
O466   O     0.24172   0.16666   0.46954   0.00000  Uiso   1.00
O467   O     0.09161   0.16666   0.45127   0.00000  Uiso   1.00
O468   O     0.24172   0.16667   0.54873   0.00000  Uiso   1.00
N469   N     0.10094   0.11325   0.61003   0.00000  Uiso   1.00
H470   H     0.11774   0.08514   0.60620   0.00000  Uiso   1.00
C471   C     0.04845   0.10921   0.62040   0.00000  Uiso   1.00
H472   H     0.04662   0.08828   0.65098   0.00000  Uiso   1.00
H473   H     0.02405   0.09580   0.58948   0.00000  Uiso   1.00
H474   H     0.03281   0.13976   0.62799   0.00000  Uiso   1.00
N475   N     0.23313   0.21936   0.38995   0.00000  Uiso   1.00
H476   H     0.27042   0.20882   0.39468   0.00000  Uiso   1.00
C477   C     0.23045   0.26256   0.37701   0.00000  Uiso   1.00
H478   H     0.25111   0.26856   0.34612   0.00000  Uiso   1.00
H479   H     0.24899   0.28128   0.40698   0.00000  Uiso   1.00
H480   H     0.18977   0.27228   0.36847   0.00000  Uiso   1.00
C481   C     0.49976   0.08740   0.50008   0.00000  Uiso   1.00
C482   C     0.49985   0.24594   0.49992   0.00000  Uiso   1.00
C483   C     0.40132   0.16653   0.48800   0.00000  Uiso   1.00
C484   C     0.59867   0.16712   0.51196   0.00000  Uiso   1.00
C485   C     0.34611   0.16575   0.48135   0.00000  Uiso   1.00
C486   C     0.65386   0.16848   0.51843   0.00000  Uiso   1.00
C487   C     0.48556   0.02148   0.45795   0.00000  Uiso   1.00
C488   C     0.51282   0.31187   0.54229   0.00000  Uiso   1.00
C489   C     0.48532   0.31216   0.45792   0.00000  Uiso   1.00
C490   C     0.51263   0.02118   0.54241   0.00000  Uiso   1.00
C491   C     0.49946   0.29057   0.49997   0.00000  Uiso   1.00
C492   C     0.49931   0.04278   0.50019   0.00000  Uiso   1.00
C493   C     0.46801   0.14092   0.35477   0.00000  Uiso   1.00
C494   C     0.53250   0.19201   0.64534   0.00000  Uiso   1.00
C495   C     0.46725   0.14106   0.63829   0.00000  Uiso   1.00
C496   C     0.53217   0.19263   0.36163   0.00000  Uiso   1.00
Cu497  Cu    0.50000   0.16667   0.54689   0.00000  Uiso   1.00
Cu498  Cu    0.50000   0.16666   0.45311   0.00000  Uiso   1.00
H499   H     0.65978   0.16245   0.44573   0.00000  Uiso   1.00
H500   H     0.34024   0.17213   0.55392   0.00000  Uiso   1.00
H501   H     0.47447   0.03771   0.42508   0.00000  Uiso   1.00
H502   H     0.52385   0.29563   0.57518   0.00000  Uiso   1.00
H503   H     0.47344   0.29615   0.42524   0.00000  Uiso   1.00
H504   H     0.52350   0.03719   0.57534   0.00000  Uiso   1.00
H505   H     0.44328   0.12003   0.37129   0.00000  Uiso   1.00
H506   H     0.55874   0.21186   0.62921   0.00000  Uiso   1.00
N507   N     0.50001   0.16668   0.61736   0.00000  Uiso   1.00
N508   N     0.49999   0.16666   0.38264   0.00000  Uiso   1.00
O509   O     0.50000   0.10655   0.53958   0.00000  Uiso   1.00
O510   O     0.50000   0.22678   0.46042   0.00000  Uiso   1.00
O511   O     0.50000   0.10654   0.46039   0.00000  Uiso   1.00
O512   O     0.50000   0.22679   0.53961   0.00000  Uiso   1.00
O513   O     0.42495   0.16667   0.53046   0.00000  Uiso   1.00
O514   O     0.57505   0.16666   0.46954   0.00000  Uiso   1.00
O515   O     0.42494   0.16666   0.45127   0.00000  Uiso   1.00
O516   O     0.57506   0.16667   0.54873   0.00000  Uiso   1.00
N517   N     0.43428   0.11325   0.61003   0.00000  Uiso   1.00
H518   H     0.45107   0.08514   0.60620   0.00000  Uiso   1.00
C519   C     0.38179   0.10921   0.62040   0.00000  Uiso   1.00
H520   H     0.37995   0.08828   0.65098   0.00000  Uiso   1.00
H521   H     0.35738   0.09580   0.58948   0.00000  Uiso   1.00
H522   H     0.36615   0.13976   0.62799   0.00000  Uiso   1.00
N523   N     0.56646   0.21936   0.38995   0.00000  Uiso   1.00
H524   H     0.60375   0.20882   0.39468   0.00000  Uiso   1.00
C525   C     0.56379   0.26256   0.37701   0.00000  Uiso   1.00
H526   H     0.58444   0.26856   0.34612   0.00000  Uiso   1.00
H527   H     0.58233   0.28128   0.40698   0.00000  Uiso   1.00
H528   H     0.52310   0.27228   0.36847   0.00000  Uiso   1.00
C529   C     0.83309   0.08740   0.50008   0.00000  Uiso   1.00
C530   C     0.83319   0.24594   0.49992   0.00000  Uiso   1.00
C531   C     0.73465   0.16653   0.48800   0.00000  Uiso   1.00
C532   C     0.93200   0.16712   0.51196   0.00000  Uiso   1.00
C533   C     0.67944   0.16575   0.48135   0.00000  Uiso   1.00
C534   C     0.98720   0.16848   0.51843   0.00000  Uiso   1.00
C535   C     0.81890   0.02148   0.45795   0.00000  Uiso   1.00
C536   C     0.84616   0.31187   0.54229   0.00000  Uiso   1.00
C537   C     0.81865   0.31216   0.45792   0.00000  Uiso   1.00
C538   C     0.84596   0.02118   0.54241   0.00000  Uiso   1.00
C539   C     0.83279   0.29057   0.49997   0.00000  Uiso   1.00
C540   C     0.83265   0.04278   0.50019   0.00000  Uiso   1.00
C541   C     0.80135   0.14092   0.35477   0.00000  Uiso   1.00
C542   C     0.86583   0.19201   0.64534   0.00000  Uiso   1.00
C543   C     0.80059   0.14106   0.63829   0.00000  Uiso   1.00
C544   C     0.86551   0.19263   0.36163   0.00000  Uiso   1.00
Cu545  Cu    0.83333   0.16667   0.54689   0.00000  Uiso   1.00
Cu546  Cu    0.83333   0.16666   0.45311   0.00000  Uiso   1.00
H547   H     0.99311   0.16245   0.44573   0.00000  Uiso   1.00
H548   H     0.67357   0.17213   0.55392   0.00000  Uiso   1.00
H549   H     0.80780   0.03771   0.42508   0.00000  Uiso   1.00
H550   H     0.85718   0.29563   0.57518   0.00000  Uiso   1.00
H551   H     0.80678   0.29615   0.42524   0.00000  Uiso   1.00
H552   H     0.85684   0.03719   0.57534   0.00000  Uiso   1.00
H553   H     0.77661   0.12003   0.37129   0.00000  Uiso   1.00
H554   H     0.89208   0.21186   0.62921   0.00000  Uiso   1.00
N555   N     0.83335   0.16668   0.61736   0.00000  Uiso   1.00
N556   N     0.83332   0.16666   0.38264   0.00000  Uiso   1.00
O557   O     0.83333   0.10655   0.53958   0.00000  Uiso   1.00
O558   O     0.83334   0.22678   0.46042   0.00000  Uiso   1.00
O559   O     0.83333   0.10654   0.46039   0.00000  Uiso   1.00
O560   O     0.83334   0.22679   0.53961   0.00000  Uiso   1.00
O561   O     0.75828   0.16667   0.53046   0.00000  Uiso   1.00
O562   O     0.90839   0.16666   0.46954   0.00000  Uiso   1.00
O563   O     0.75828   0.16666   0.45127   0.00000  Uiso   1.00
O564   O     0.90839   0.16667   0.54873   0.00000  Uiso   1.00
N565   N     0.76761   0.11325   0.61003   0.00000  Uiso   1.00
H566   H     0.78440   0.08514   0.60620   0.00000  Uiso   1.00
C567   C     0.71512   0.10921   0.62040   0.00000  Uiso   1.00
H568   H     0.71328   0.08828   0.65098   0.00000  Uiso   1.00
H569   H     0.69072   0.09580   0.58948   0.00000  Uiso   1.00
H570   H     0.69948   0.13976   0.62799   0.00000  Uiso   1.00
N571   N     0.89979   0.21936   0.38995   0.00000  Uiso   1.00
H572   H     0.93708   0.20882   0.39468   0.00000  Uiso   1.00
C573   C     0.89712   0.26256   0.37701   0.00000  Uiso   1.00
H574   H     0.91777   0.26856   0.34612   0.00000  Uiso   1.00
H575   H     0.91566   0.28128   0.40698   0.00000  Uiso   1.00
H576   H     0.85643   0.27228   0.36847   0.00000  Uiso   1.00
C577   C     0.16643   0.42073   0.50008   0.00000  Uiso   1.00
C578   C     0.16652   0.57927   0.49992   0.00000  Uiso   1.00
C579   C     0.06799   0.49987   0.48800   0.00000  Uiso   1.00
C580   C     0.26534   0.50045   0.51196   0.00000  Uiso   1.00
C581   C     0.01277   0.49908   0.48135   0.00000  Uiso   1.00
C582   C     0.32053   0.50181   0.51843   0.00000  Uiso   1.00
C583   C     0.15223   0.35481   0.45795   0.00000  Uiso   1.00
C584   C     0.17949   0.64520   0.54229   0.00000  Uiso   1.00
C585   C     0.15199   0.64550   0.45792   0.00000  Uiso   1.00
C586   C     0.17929   0.35452   0.54241   0.00000  Uiso   1.00
C587   C     0.16612   0.62390   0.49997   0.00000  Uiso   1.00
C588   C     0.16598   0.37611   0.50019   0.00000  Uiso   1.00
C589   C     0.13468   0.47425   0.35477   0.00000  Uiso   1.00
C590   C     0.19916   0.52534   0.64534   0.00000  Uiso   1.00
C591   C     0.13392   0.47439   0.63829   0.00000  Uiso   1.00
C592   C     0.19884   0.52597   0.36163   0.00000  Uiso   1.00
Cu593  Cu    0.16667   0.50001   0.54689   0.00000  Uiso   1.00
Cu594  Cu    0.16667   0.49999   0.45311   0.00000  Uiso   1.00
H595   H     0.32644   0.49579   0.44573   0.00000  Uiso   1.00
H596   H     0.00690   0.50546   0.55392   0.00000  Uiso   1.00
H597   H     0.14114   0.37105   0.42508   0.00000  Uiso   1.00
H598   H     0.19052   0.62896   0.57518   0.00000  Uiso   1.00
H599   H     0.14011   0.62949   0.42524   0.00000  Uiso   1.00
H600   H     0.19017   0.37052   0.57534   0.00000  Uiso   1.00
H601   H     0.10994   0.45336   0.37129   0.00000  Uiso   1.00
H602   H     0.22541   0.54519   0.62921   0.00000  Uiso   1.00
N603   N     0.16668   0.50001   0.61736   0.00000  Uiso   1.00
N604   N     0.16665   0.49999   0.38264   0.00000  Uiso   1.00
O605   O     0.16666   0.43989   0.53958   0.00000  Uiso   1.00
O606   O     0.16667   0.56011   0.46042   0.00000  Uiso   1.00
O607   O     0.16666   0.43988   0.46039   0.00000  Uiso   1.00
O608   O     0.16667   0.56012   0.53961   0.00000  Uiso   1.00
O609   O     0.09161   0.50000   0.53046   0.00000  Uiso   1.00
O610   O     0.24172   0.50000   0.46954   0.00000  Uiso   1.00
O611   O     0.09161   0.49999   0.45127   0.00000  Uiso   1.00
O612   O     0.24172   0.50001   0.54873   0.00000  Uiso   1.00
N613   N     0.10094   0.44658   0.61003   0.00000  Uiso   1.00
H614   H     0.11774   0.41847   0.60620   0.00000  Uiso   1.00
C615   C     0.04845   0.44254   0.62040   0.00000  Uiso   1.00
H616   H     0.04662   0.42161   0.65098   0.00000  Uiso   1.00
H617   H     0.02405   0.42913   0.58948   0.00000  Uiso   1.00
H618   H     0.03281   0.47309   0.62799   0.00000  Uiso   1.00
N619   N     0.23313   0.55270   0.38995   0.00000  Uiso   1.00
H620   H     0.27042   0.54215   0.39468   0.00000  Uiso   1.00
C621   C     0.23045   0.59589   0.37701   0.00000  Uiso   1.00
H622   H     0.25111   0.60189   0.34612   0.00000  Uiso   1.00
H623   H     0.24899   0.61462   0.40698   0.00000  Uiso   1.00
H624   H     0.18977   0.60561   0.36847   0.00000  Uiso   1.00
C625   C     0.49976   0.42073   0.50008   0.00000  Uiso   1.00
C626   C     0.49985   0.57927   0.49992   0.00000  Uiso   1.00
C627   C     0.40132   0.49987   0.48800   0.00000  Uiso   1.00
C628   C     0.59867   0.50045   0.51196   0.00000  Uiso   1.00
C629   C     0.34611   0.49908   0.48135   0.00000  Uiso   1.00
C630   C     0.65386   0.50181   0.51843   0.00000  Uiso   1.00
C631   C     0.48556   0.35481   0.45795   0.00000  Uiso   1.00
C632   C     0.51282   0.64520   0.54229   0.00000  Uiso   1.00
C633   C     0.48532   0.64550   0.45792   0.00000  Uiso   1.00
C634   C     0.51263   0.35452   0.54241   0.00000  Uiso   1.00
C635   C     0.49946   0.62390   0.49997   0.00000  Uiso   1.00
C636   C     0.49931   0.37611   0.50019   0.00000  Uiso   1.00
C637   C     0.46801   0.47425   0.35477   0.00000  Uiso   1.00
C638   C     0.53250   0.52534   0.64534   0.00000  Uiso   1.00
C639   C     0.46725   0.47439   0.63829   0.00000  Uiso   1.00
C640   C     0.53217   0.52597   0.36163   0.00000  Uiso   1.00
Cu641  Cu    0.50000   0.50001   0.54689   0.00000  Uiso   1.00
Cu642  Cu    0.50000   0.49999   0.45311   0.00000  Uiso   1.00
H643   H     0.65978   0.49579   0.44573   0.00000  Uiso   1.00
H644   H     0.34024   0.50546   0.55392   0.00000  Uiso   1.00
H645   H     0.47447   0.37105   0.42508   0.00000  Uiso   1.00
H646   H     0.52385   0.62896   0.57518   0.00000  Uiso   1.00
H647   H     0.47344   0.62949   0.42524   0.00000  Uiso   1.00
H648   H     0.52350   0.37052   0.57534   0.00000  Uiso   1.00
H649   H     0.44328   0.45336   0.37129   0.00000  Uiso   1.00
H650   H     0.55874   0.54519   0.62921   0.00000  Uiso   1.00
N651   N     0.50001   0.50001   0.61736   0.00000  Uiso   1.00
N652   N     0.49999   0.49999   0.38264   0.00000  Uiso   1.00
O653   O     0.50000   0.43989   0.53958   0.00000  Uiso   1.00
O654   O     0.50000   0.56011   0.46042   0.00000  Uiso   1.00
O655   O     0.50000   0.43988   0.46039   0.00000  Uiso   1.00
O656   O     0.50000   0.56012   0.53961   0.00000  Uiso   1.00
O657   O     0.42495   0.50000   0.53046   0.00000  Uiso   1.00
O658   O     0.57505   0.50000   0.46954   0.00000  Uiso   1.00
O659   O     0.42494   0.49999   0.45127   0.00000  Uiso   1.00
O660   O     0.57506   0.50001   0.54873   0.00000  Uiso   1.00
N661   N     0.43428   0.44658   0.61003   0.00000  Uiso   1.00
H662   H     0.45107   0.41847   0.60620   0.00000  Uiso   1.00
C663   C     0.38179   0.44254   0.62040   0.00000  Uiso   1.00
H664   H     0.37995   0.42161   0.65098   0.00000  Uiso   1.00
H665   H     0.35738   0.42913   0.58948   0.00000  Uiso   1.00
H666   H     0.36615   0.47309   0.62799   0.00000  Uiso   1.00
N667   N     0.56646   0.55270   0.38995   0.00000  Uiso   1.00
H668   H     0.60375   0.54215   0.39468   0.00000  Uiso   1.00
C669   C     0.56379   0.59589   0.37701   0.00000  Uiso   1.00
H670   H     0.58444   0.60189   0.34612   0.00000  Uiso   1.00
H671   H     0.58233   0.61462   0.40698   0.00000  Uiso   1.00
H672   H     0.52310   0.60561   0.36847   0.00000  Uiso   1.00
C673   C     0.83309   0.42073   0.50008   0.00000  Uiso   1.00
C674   C     0.83319   0.57927   0.49992   0.00000  Uiso   1.00
C675   C     0.73465   0.49987   0.48800   0.00000  Uiso   1.00
C676   C     0.93200   0.50045   0.51196   0.00000  Uiso   1.00
C677   C     0.67944   0.49908   0.48135   0.00000  Uiso   1.00
C678   C     0.98720   0.50181   0.51843   0.00000  Uiso   1.00
C679   C     0.81890   0.35481   0.45795   0.00000  Uiso   1.00
C680   C     0.84616   0.64520   0.54229   0.00000  Uiso   1.00
C681   C     0.81865   0.64550   0.45792   0.00000  Uiso   1.00
C682   C     0.84596   0.35452   0.54241   0.00000  Uiso   1.00
C683   C     0.83279   0.62390   0.49997   0.00000  Uiso   1.00
C684   C     0.83265   0.37611   0.50019   0.00000  Uiso   1.00
C685   C     0.80135   0.47425   0.35477   0.00000  Uiso   1.00
C686   C     0.86583   0.52534   0.64534   0.00000  Uiso   1.00
C687   C     0.80059   0.47439   0.63829   0.00000  Uiso   1.00
C688   C     0.86551   0.52597   0.36163   0.00000  Uiso   1.00
Cu689  Cu    0.83333   0.50001   0.54689   0.00000  Uiso   1.00
Cu690  Cu    0.83333   0.49999   0.45311   0.00000  Uiso   1.00
H691   H     0.99311   0.49579   0.44573   0.00000  Uiso   1.00
H692   H     0.67357   0.50546   0.55392   0.00000  Uiso   1.00
H693   H     0.80780   0.37105   0.42508   0.00000  Uiso   1.00
H694   H     0.85718   0.62896   0.57518   0.00000  Uiso   1.00
H695   H     0.80678   0.62949   0.42524   0.00000  Uiso   1.00
H696   H     0.85684   0.37052   0.57534   0.00000  Uiso   1.00
H697   H     0.77661   0.45336   0.37129   0.00000  Uiso   1.00
H698   H     0.89208   0.54519   0.62921   0.00000  Uiso   1.00
N699   N     0.83335   0.50001   0.61736   0.00000  Uiso   1.00
N700   N     0.83332   0.49999   0.38264   0.00000  Uiso   1.00
O701   O     0.83333   0.43989   0.53958   0.00000  Uiso   1.00
O702   O     0.83334   0.56011   0.46042   0.00000  Uiso   1.00
O703   O     0.83333   0.43988   0.46039   0.00000  Uiso   1.00
O704   O     0.83334   0.56012   0.53961   0.00000  Uiso   1.00
O705   O     0.75828   0.50000   0.53046   0.00000  Uiso   1.00
O706   O     0.90839   0.50000   0.46954   0.00000  Uiso   1.00
O707   O     0.75828   0.49999   0.45127   0.00000  Uiso   1.00
O708   O     0.90839   0.50001   0.54873   0.00000  Uiso   1.00
N709   N     0.76761   0.44658   0.61003   0.00000  Uiso   1.00
H710   H     0.78440   0.41847   0.60620   0.00000  Uiso   1.00
C711   C     0.71512   0.44254   0.62040   0.00000  Uiso   1.00
H712   H     0.71328   0.42161   0.65098   0.00000  Uiso   1.00
H713   H     0.69072   0.42913   0.58948   0.00000  Uiso   1.00
H714   H     0.69948   0.47309   0.62799   0.00000  Uiso   1.00
N715   N     0.89979   0.55270   0.38995   0.00000  Uiso   1.00
H716   H     0.93708   0.54215   0.39468   0.00000  Uiso   1.00
C717   C     0.89712   0.59589   0.37701   0.00000  Uiso   1.00
H718   H     0.91777   0.60189   0.34612   0.00000  Uiso   1.00
H719   H     0.91566   0.61462   0.40698   0.00000  Uiso   1.00
H720   H     0.85643   0.60561   0.36847   0.00000  Uiso   1.00
C721   C     0.16643   0.75407   0.50008   0.00000  Uiso   1.00
C722   C     0.16652   0.91260   0.49992   0.00000  Uiso   1.00
C723   C     0.06799   0.83320   0.48800   0.00000  Uiso   1.00
C724   C     0.26534   0.83378   0.51196   0.00000  Uiso   1.00
C725   C     0.01277   0.83242   0.48135   0.00000  Uiso   1.00
C726   C     0.32053   0.83514   0.51843   0.00000  Uiso   1.00
C727   C     0.15223   0.68814   0.45795   0.00000  Uiso   1.00
C728   C     0.17949   0.97853   0.54229   0.00000  Uiso   1.00
C729   C     0.15199   0.97883   0.45792   0.00000  Uiso   1.00
C730   C     0.17929   0.68785   0.54241   0.00000  Uiso   1.00
C731   C     0.16612   0.95724   0.49997   0.00000  Uiso   1.00
C732   C     0.16598   0.70944   0.50019   0.00000  Uiso   1.00
C733   C     0.13468   0.80758   0.35477   0.00000  Uiso   1.00
C734   C     0.19916   0.85867   0.64534   0.00000  Uiso   1.00
C735   C     0.13392   0.80773   0.63829   0.00000  Uiso   1.00
C736   C     0.19884   0.85930   0.36163   0.00000  Uiso   1.00
Cu737  Cu    0.16667   0.83334   0.54689   0.00000  Uiso   1.00
Cu738  Cu    0.16667   0.83333   0.45311   0.00000  Uiso   1.00
H739   H     0.32644   0.82912   0.44573   0.00000  Uiso   1.00
H740   H     0.00690   0.83879   0.55392   0.00000  Uiso   1.00
H741   H     0.14114   0.70438   0.42508   0.00000  Uiso   1.00
H742   H     0.19052   0.96230   0.57518   0.00000  Uiso   1.00
H743   H     0.14011   0.96282   0.42524   0.00000  Uiso   1.00
H744   H     0.19017   0.70386   0.57534   0.00000  Uiso   1.00
H745   H     0.10994   0.78669   0.37129   0.00000  Uiso   1.00
H746   H     0.22541   0.87852   0.62921   0.00000  Uiso   1.00
N747   N     0.16668   0.83334   0.61736   0.00000  Uiso   1.00
N748   N     0.16665   0.83332   0.38264   0.00000  Uiso   1.00
O749   O     0.16666   0.77322   0.53958   0.00000  Uiso   1.00
O750   O     0.16667   0.89345   0.46042   0.00000  Uiso   1.00
O751   O     0.16666   0.77321   0.46039   0.00000  Uiso   1.00
O752   O     0.16667   0.89346   0.53961   0.00000  Uiso   1.00
O753   O     0.09161   0.83334   0.53046   0.00000  Uiso   1.00
O754   O     0.24172   0.83333   0.46954   0.00000  Uiso   1.00
O755   O     0.09161   0.83333   0.45127   0.00000  Uiso   1.00
O756   O     0.24172   0.83334   0.54873   0.00000  Uiso   1.00
N757   N     0.10094   0.77991   0.61003   0.00000  Uiso   1.00
H758   H     0.11774   0.75180   0.60620   0.00000  Uiso   1.00
C759   C     0.04845   0.77588   0.62040   0.00000  Uiso   1.00
H760   H     0.04662   0.75495   0.65098   0.00000  Uiso   1.00
H761   H     0.02405   0.76246   0.58948   0.00000  Uiso   1.00
H762   H     0.03281   0.80643   0.62799   0.00000  Uiso   1.00
N763   N     0.23313   0.88603   0.38995   0.00000  Uiso   1.00
H764   H     0.27042   0.87549   0.39468   0.00000  Uiso   1.00
C765   C     0.23045   0.92923   0.37701   0.00000  Uiso   1.00
H766   H     0.25111   0.93522   0.34612   0.00000  Uiso   1.00
H767   H     0.24899   0.94795   0.40698   0.00000  Uiso   1.00
H768   H     0.18977   0.93894   0.36847   0.00000  Uiso   1.00
C769   C     0.49976   0.75407   0.50008   0.00000  Uiso   1.00
C770   C     0.49985   0.91260   0.49992   0.00000  Uiso   1.00
C771   C     0.40132   0.83320   0.48800   0.00000  Uiso   1.00
C772   C     0.59867   0.83378   0.51196   0.00000  Uiso   1.00
C773   C     0.34611   0.83242   0.48135   0.00000  Uiso   1.00
C774   C     0.65386   0.83514   0.51843   0.00000  Uiso   1.00
C775   C     0.48556   0.68814   0.45795   0.00000  Uiso   1.00
C776   C     0.51282   0.97853   0.54229   0.00000  Uiso   1.00
C777   C     0.48532   0.97883   0.45792   0.00000  Uiso   1.00
C778   C     0.51263   0.68785   0.54241   0.00000  Uiso   1.00
C779   C     0.49946   0.95724   0.49997   0.00000  Uiso   1.00
C780   C     0.49931   0.70944   0.50019   0.00000  Uiso   1.00
C781   C     0.46801   0.80758   0.35477   0.00000  Uiso   1.00
C782   C     0.53250   0.85867   0.64534   0.00000  Uiso   1.00
C783   C     0.46725   0.80773   0.63829   0.00000  Uiso   1.00
C784   C     0.53217   0.85930   0.36163   0.00000  Uiso   1.00
Cu785  Cu    0.50000   0.83334   0.54689   0.00000  Uiso   1.00
Cu786  Cu    0.50000   0.83333   0.45311   0.00000  Uiso   1.00
H787   H     0.65978   0.82912   0.44573   0.00000  Uiso   1.00
H788   H     0.34024   0.83879   0.55392   0.00000  Uiso   1.00
H789   H     0.47447   0.70438   0.42508   0.00000  Uiso   1.00
H790   H     0.52385   0.96230   0.57518   0.00000  Uiso   1.00
H791   H     0.47344   0.96282   0.42524   0.00000  Uiso   1.00
H792   H     0.52350   0.70386   0.57534   0.00000  Uiso   1.00
H793   H     0.44328   0.78669   0.37129   0.00000  Uiso   1.00
H794   H     0.55874   0.87852   0.62921   0.00000  Uiso   1.00
N795   N     0.50001   0.83334   0.61736   0.00000  Uiso   1.00
N796   N     0.49999   0.83332   0.38264   0.00000  Uiso   1.00
O797   O     0.50000   0.77322   0.53958   0.00000  Uiso   1.00
O798   O     0.50000   0.89345   0.46042   0.00000  Uiso   1.00
O799   O     0.50000   0.77321   0.46039   0.00000  Uiso   1.00
O800   O     0.50000   0.89346   0.53961   0.00000  Uiso   1.00
O801   O     0.42495   0.83334   0.53046   0.00000  Uiso   1.00
O802   O     0.57505   0.83333   0.46954   0.00000  Uiso   1.00
O803   O     0.42494   0.83333   0.45127   0.00000  Uiso   1.00
O804   O     0.57506   0.83334   0.54873   0.00000  Uiso   1.00
N805   N     0.43428   0.77991   0.61003   0.00000  Uiso   1.00
H806   H     0.45107   0.75180   0.60620   0.00000  Uiso   1.00
C807   C     0.38179   0.77588   0.62040   0.00000  Uiso   1.00
H808   H     0.37995   0.75495   0.65098   0.00000  Uiso   1.00
H809   H     0.35738   0.76246   0.58948   0.00000  Uiso   1.00
H810   H     0.36615   0.80643   0.62799   0.00000  Uiso   1.00
N811   N     0.56646   0.88603   0.38995   0.00000  Uiso   1.00
H812   H     0.60375   0.87549   0.39468   0.00000  Uiso   1.00
C813   C     0.56379   0.92923   0.37701   0.00000  Uiso   1.00
H814   H     0.58444   0.93522   0.34612   0.00000  Uiso   1.00
H815   H     0.58233   0.94795   0.40698   0.00000  Uiso   1.00
H816   H     0.52310   0.93894   0.36847   0.00000  Uiso   1.00
C817   C     0.83309   0.75407   0.50008   0.00000  Uiso   1.00
C818   C     0.83319   0.91260   0.49992   0.00000  Uiso   1.00
C819   C     0.73465   0.83320   0.48800   0.00000  Uiso   1.00
C820   C     0.93200   0.83378   0.51196   0.00000  Uiso   1.00
C821   C     0.67944   0.83242   0.48135   0.00000  Uiso   1.00
C822   C     0.98720   0.83514   0.51843   0.00000  Uiso   1.00
C823   C     0.81890   0.68814   0.45795   0.00000  Uiso   1.00
C824   C     0.84616   0.97853   0.54229   0.00000  Uiso   1.00
C825   C     0.81865   0.97883   0.45792   0.00000  Uiso   1.00
C826   C     0.84596   0.68785   0.54241   0.00000  Uiso   1.00
C827   C     0.83279   0.95724   0.49997   0.00000  Uiso   1.00
C828   C     0.83265   0.70944   0.50019   0.00000  Uiso   1.00
C829   C     0.80135   0.80758   0.35477   0.00000  Uiso   1.00
C830   C     0.86583   0.85867   0.64534   0.00000  Uiso   1.00
C831   C     0.80059   0.80773   0.63829   0.00000  Uiso   1.00
C832   C     0.86551   0.85930   0.36163   0.00000  Uiso   1.00
Cu833  Cu    0.83333   0.83334   0.54689   0.00000  Uiso   1.00
Cu834  Cu    0.83333   0.83333   0.45311   0.00000  Uiso   1.00
H835   H     0.99311   0.82912   0.44573   0.00000  Uiso   1.00
H836   H     0.67357   0.83879   0.55392   0.00000  Uiso   1.00
H837   H     0.80780   0.70438   0.42508   0.00000  Uiso   1.00
H838   H     0.85718   0.96230   0.57518   0.00000  Uiso   1.00
H839   H     0.80678   0.96282   0.42524   0.00000  Uiso   1.00
H840   H     0.85684   0.70386   0.57534   0.00000  Uiso   1.00
H841   H     0.77661   0.78669   0.37129   0.00000  Uiso   1.00
H842   H     0.89208   0.87852   0.62921   0.00000  Uiso   1.00
N843   N     0.83335   0.83334   0.61736   0.00000  Uiso   1.00
N844   N     0.83332   0.83332   0.38264   0.00000  Uiso   1.00
O845   O     0.83333   0.77322   0.53958   0.00000  Uiso   1.00
O846   O     0.83334   0.89345   0.46042   0.00000  Uiso   1.00
O847   O     0.83333   0.77321   0.46039   0.00000  Uiso   1.00
O848   O     0.83334   0.89346   0.53961   0.00000  Uiso   1.00
O849   O     0.75828   0.83334   0.53046   0.00000  Uiso   1.00
O850   O     0.90839   0.83333   0.46954   0.00000  Uiso   1.00
O851   O     0.75828   0.83333   0.45127   0.00000  Uiso   1.00
O852   O     0.90839   0.83334   0.54873   0.00000  Uiso   1.00
N853   N     0.76761   0.77991   0.61003   0.00000  Uiso   1.00
H854   H     0.78440   0.75180   0.60620   0.00000  Uiso   1.00
C855   C     0.71512   0.77588   0.62040   0.00000  Uiso   1.00
H856   H     0.71328   0.75495   0.65098   0.00000  Uiso   1.00
H857   H     0.69072   0.76246   0.58948   0.00000  Uiso   1.00
H858   H     0.69948   0.80643   0.62799   0.00000  Uiso   1.00
N859   N     0.89979   0.88603   0.38995   0.00000  Uiso   1.00
H860   H     0.93708   0.87549   0.39468   0.00000  Uiso   1.00
C861   C     0.89712   0.92923   0.37701   0.00000  Uiso   1.00
H862   H     0.91777   0.93522   0.34612   0.00000  Uiso   1.00
H863   H     0.91566   0.94795   0.40698   0.00000  Uiso   1.00
H864   H     0.85643   0.93894   0.36847   0.00000  Uiso   1.00
C865   C     0.16643   0.08740   0.83341   0.00000  Uiso   1.00
C866   C     0.16652   0.24594   0.83325   0.00000  Uiso   1.00
C867   C     0.06799   0.16653   0.82134   0.00000  Uiso   1.00
C868   C     0.26534   0.16712   0.84529   0.00000  Uiso   1.00
C869   C     0.01277   0.16575   0.81469   0.00000  Uiso   1.00
C870   C     0.32053   0.16848   0.85177   0.00000  Uiso   1.00
C871   C     0.15223   0.02148   0.79128   0.00000  Uiso   1.00
C872   C     0.17949   0.31187   0.87563   0.00000  Uiso   1.00
C873   C     0.15199   0.31216   0.79126   0.00000  Uiso   1.00
C874   C     0.17929   0.02118   0.87575   0.00000  Uiso   1.00
C875   C     0.16612   0.29057   0.83330   0.00000  Uiso   1.00
C876   C     0.16598   0.04278   0.83352   0.00000  Uiso   1.00
C877   C     0.13468   0.14092   0.68811   0.00000  Uiso   1.00
C878   C     0.19916   0.19201   0.97868   0.00000  Uiso   1.00
C879   C     0.13392   0.14106   0.97163   0.00000  Uiso   1.00
C880   C     0.19884   0.19263   0.69497   0.00000  Uiso   1.00
Cu881  Cu    0.16667   0.16667   0.88022   0.00000  Uiso   1.00
Cu882  Cu    0.16667   0.16666   0.78645   0.00000  Uiso   1.00
H883   H     0.32644   0.16245   0.77906   0.00000  Uiso   1.00
H884   H     0.00690   0.17213   0.88726   0.00000  Uiso   1.00
H885   H     0.14114   0.03771   0.75841   0.00000  Uiso   1.00
H886   H     0.19052   0.29563   0.90851   0.00000  Uiso   1.00
H887   H     0.14011   0.29615   0.75857   0.00000  Uiso   1.00
H888   H     0.19017   0.03719   0.90868   0.00000  Uiso   1.00
H889   H     0.10994   0.12003   0.70462   0.00000  Uiso   1.00
H890   H     0.22541   0.21186   0.96254   0.00000  Uiso   1.00
N891   N     0.16668   0.16668   0.95069   0.00000  Uiso   1.00
N892   N     0.16665   0.16666   0.71597   0.00000  Uiso   1.00
O893   O     0.16666   0.10655   0.87291   0.00000  Uiso   1.00
O894   O     0.16667   0.22678   0.79375   0.00000  Uiso   1.00
O895   O     0.16666   0.10654   0.79372   0.00000  Uiso   1.00
O896   O     0.16667   0.22679   0.87294   0.00000  Uiso   1.00
O897   O     0.09161   0.16667   0.86379   0.00000  Uiso   1.00
O898   O     0.24172   0.16666   0.80288   0.00000  Uiso   1.00
O899   O     0.09161   0.16666   0.78460   0.00000  Uiso   1.00
O900   O     0.24172   0.16667   0.88207   0.00000  Uiso   1.00
N901   N     0.10094   0.11325   0.94337   0.00000  Uiso   1.00
H902   H     0.11774   0.08514   0.93953   0.00000  Uiso   1.00
C903   C     0.04845   0.10921   0.95373   0.00000  Uiso   1.00
H904   H     0.04662   0.08828   0.98432   0.00000  Uiso   1.00
H905   H     0.02405   0.09580   0.92281   0.00000  Uiso   1.00
H906   H     0.03281   0.13976   0.96132   0.00000  Uiso   1.00
N907   N     0.23313   0.21936   0.72328   0.00000  Uiso   1.00
H908   H     0.27042   0.20882   0.72801   0.00000  Uiso   1.00
C909   C     0.23045   0.26256   0.71034   0.00000  Uiso   1.00
H910   H     0.25111   0.26856   0.67945   0.00000  Uiso   1.00
H911   H     0.24899   0.28128   0.74031   0.00000  Uiso   1.00
H912   H     0.18977   0.27228   0.70180   0.00000  Uiso   1.00
C913   C     0.49976   0.08740   0.83341   0.00000  Uiso   1.00
C914   C     0.49985   0.24594   0.83325   0.00000  Uiso   1.00
C915   C     0.40132   0.16653   0.82134   0.00000  Uiso   1.00
C916   C     0.59867   0.16712   0.84529   0.00000  Uiso   1.00
C917   C     0.34611   0.16575   0.81469   0.00000  Uiso   1.00
C918   C     0.65386   0.16848   0.85177   0.00000  Uiso   1.00
C919   C     0.48556   0.02148   0.79128   0.00000  Uiso   1.00
C920   C     0.51282   0.31187   0.87563   0.00000  Uiso   1.00
C921   C     0.48532   0.31216   0.79126   0.00000  Uiso   1.00
C922   C     0.51263   0.02118   0.87575   0.00000  Uiso   1.00
C923   C     0.49946   0.29057   0.83330   0.00000  Uiso   1.00
C924   C     0.49931   0.04278   0.83352   0.00000  Uiso   1.00
C925   C     0.46801   0.14092   0.68811   0.00000  Uiso   1.00
C926   C     0.53250   0.19201   0.97868   0.00000  Uiso   1.00
C927   C     0.46725   0.14106   0.97163   0.00000  Uiso   1.00
C928   C     0.53217   0.19263   0.69497   0.00000  Uiso   1.00
Cu929  Cu    0.50000   0.16667   0.88022   0.00000  Uiso   1.00
Cu930  Cu    0.50000   0.16666   0.78645   0.00000  Uiso   1.00
H931   H     0.65978   0.16245   0.77906   0.00000  Uiso   1.00
H932   H     0.34024   0.17213   0.88726   0.00000  Uiso   1.00
H933   H     0.47447   0.03771   0.75841   0.00000  Uiso   1.00
H934   H     0.52385   0.29563   0.90851   0.00000  Uiso   1.00
H935   H     0.47344   0.29615   0.75857   0.00000  Uiso   1.00
H936   H     0.52350   0.03719   0.90868   0.00000  Uiso   1.00
H937   H     0.44328   0.12003   0.70462   0.00000  Uiso   1.00
H938   H     0.55874   0.21186   0.96254   0.00000  Uiso   1.00
N939   N     0.50001   0.16668   0.95069   0.00000  Uiso   1.00
N940   N     0.49999   0.16666   0.71597   0.00000  Uiso   1.00
O941   O     0.50000   0.10655   0.87291   0.00000  Uiso   1.00
O942   O     0.50000   0.22678   0.79375   0.00000  Uiso   1.00
O943   O     0.50000   0.10654   0.79372   0.00000  Uiso   1.00
O944   O     0.50000   0.22679   0.87294   0.00000  Uiso   1.00
O945   O     0.42495   0.16667   0.86379   0.00000  Uiso   1.00
O946   O     0.57505   0.16666   0.80288   0.00000  Uiso   1.00
O947   O     0.42494   0.16666   0.78460   0.00000  Uiso   1.00
O948   O     0.57506   0.16667   0.88207   0.00000  Uiso   1.00
N949   N     0.43428   0.11325   0.94337   0.00000  Uiso   1.00
H950   H     0.45107   0.08514   0.93953   0.00000  Uiso   1.00
C951   C     0.38179   0.10921   0.95373   0.00000  Uiso   1.00
H952   H     0.37995   0.08828   0.98432   0.00000  Uiso   1.00
H953   H     0.35738   0.09580   0.92281   0.00000  Uiso   1.00
H954   H     0.36615   0.13976   0.96132   0.00000  Uiso   1.00
N955   N     0.56646   0.21936   0.72328   0.00000  Uiso   1.00
H956   H     0.60375   0.20882   0.72801   0.00000  Uiso   1.00
C957   C     0.56379   0.26256   0.71034   0.00000  Uiso   1.00
H958   H     0.58444   0.26856   0.67945   0.00000  Uiso   1.00
H959   H     0.58233   0.28128   0.74031   0.00000  Uiso   1.00
H960   H     0.52310   0.27228   0.70180   0.00000  Uiso   1.00
C961   C     0.83309   0.08740   0.83341   0.00000  Uiso   1.00
C962   C     0.83319   0.24594   0.83325   0.00000  Uiso   1.00
C963   C     0.73465   0.16653   0.82134   0.00000  Uiso   1.00
C964   C     0.93200   0.16712   0.84529   0.00000  Uiso   1.00
C965   C     0.67944   0.16575   0.81469   0.00000  Uiso   1.00
C966   C     0.98720   0.16848   0.85177   0.00000  Uiso   1.00
C967   C     0.81890   0.02148   0.79128   0.00000  Uiso   1.00
C968   C     0.84616   0.31187   0.87563   0.00000  Uiso   1.00
C969   C     0.81865   0.31216   0.79126   0.00000  Uiso   1.00
C970   C     0.84596   0.02118   0.87575   0.00000  Uiso   1.00
C971   C     0.83279   0.29057   0.83330   0.00000  Uiso   1.00
C972   C     0.83265   0.04278   0.83352   0.00000  Uiso   1.00
C973   C     0.80135   0.14092   0.68811   0.00000  Uiso   1.00
C974   C     0.86583   0.19201   0.97868   0.00000  Uiso   1.00
C975   C     0.80059   0.14106   0.97163   0.00000  Uiso   1.00
C976   C     0.86551   0.19263   0.69497   0.00000  Uiso   1.00
Cu977  Cu    0.83333   0.16667   0.88022   0.00000  Uiso   1.00
Cu978  Cu    0.83333   0.16666   0.78645   0.00000  Uiso   1.00
H979   H     0.99311   0.16245   0.77906   0.00000  Uiso   1.00
H980   H     0.67357   0.17213   0.88726   0.00000  Uiso   1.00
H981   H     0.80780   0.03771   0.75841   0.00000  Uiso   1.00
H982   H     0.85718   0.29563   0.90851   0.00000  Uiso   1.00
H983   H     0.80678   0.29615   0.75857   0.00000  Uiso   1.00
H984   H     0.85684   0.03719   0.90868   0.00000  Uiso   1.00
H985   H     0.77661   0.12003   0.70462   0.00000  Uiso   1.00
H986   H     0.89208   0.21186   0.96254   0.00000  Uiso   1.00
N987   N     0.83335   0.16668   0.95069   0.00000  Uiso   1.00
N988   N     0.83332   0.16666   0.71597   0.00000  Uiso   1.00
O989   O     0.83333   0.10655   0.87291   0.00000  Uiso   1.00
O990   O     0.83334   0.22678   0.79375   0.00000  Uiso   1.00
O991   O     0.83333   0.10654   0.79372   0.00000  Uiso   1.00
O992   O     0.83334   0.22679   0.87294   0.00000  Uiso   1.00
O993   O     0.75828   0.16667   0.86379   0.00000  Uiso   1.00
O994   O     0.90839   0.16666   0.80288   0.00000  Uiso   1.00
O995   O     0.75828   0.16666   0.78460   0.00000  Uiso   1.00
O996   O     0.90839   0.16667   0.88207   0.00000  Uiso   1.00
N997   N     0.76761   0.11325   0.94337   0.00000  Uiso   1.00
H998   H     0.78440   0.08514   0.93953   0.00000  Uiso   1.00
C999   C     0.71512   0.10921   0.95373   0.00000  Uiso   1.00
H1000  H     0.71328   0.08828   0.98432   0.00000  Uiso   1.00
H1001  H     0.69072   0.09580   0.92281   0.00000  Uiso   1.00
H1002  H     0.69948   0.13976   0.96132   0.00000  Uiso   1.00
N1003  N     0.89979   0.21936   0.72328   0.00000  Uiso   1.00
H1004  H     0.93708   0.20882   0.72801   0.00000  Uiso   1.00
C1005  C     0.89712   0.26256   0.71034   0.00000  Uiso   1.00
H1006  H     0.91777   0.26856   0.67945   0.00000  Uiso   1.00
H1007  H     0.91566   0.28128   0.74031   0.00000  Uiso   1.00
H1008  H     0.85643   0.27228   0.70180   0.00000  Uiso   1.00
C1009  C     0.16643   0.42073   0.83341   0.00000  Uiso   1.00
C1010  C     0.16652   0.57927   0.83325   0.00000  Uiso   1.00
C1011  C     0.06799   0.49987   0.82134   0.00000  Uiso   1.00
C1012  C     0.26534   0.50045   0.84529   0.00000  Uiso   1.00
C1013  C     0.01277   0.49908   0.81469   0.00000  Uiso   1.00
C1014  C     0.32053   0.50181   0.85177   0.00000  Uiso   1.00
C1015  C     0.15223   0.35481   0.79128   0.00000  Uiso   1.00
C1016  C     0.17949   0.64520   0.87563   0.00000  Uiso   1.00
C1017  C     0.15199   0.64550   0.79126   0.00000  Uiso   1.00
C1018  C     0.17929   0.35452   0.87575   0.00000  Uiso   1.00
C1019  C     0.16612   0.62390   0.83330   0.00000  Uiso   1.00
C1020  C     0.16598   0.37611   0.83352   0.00000  Uiso   1.00
C1021  C     0.13468   0.47425   0.68811   0.00000  Uiso   1.00
C1022  C     0.19916   0.52534   0.97868   0.00000  Uiso   1.00
C1023  C     0.13392   0.47439   0.97163   0.00000  Uiso   1.00
C1024  C     0.19884   0.52597   0.69497   0.00000  Uiso   1.00
Cu1025 Cu    0.16667   0.50001   0.88022   0.00000  Uiso   1.00
Cu1026 Cu    0.16667   0.49999   0.78645   0.00000  Uiso   1.00
H1027  H     0.32644   0.49579   0.77906   0.00000  Uiso   1.00
H1028  H     0.00690   0.50546   0.88726   0.00000  Uiso   1.00
H1029  H     0.14114   0.37105   0.75841   0.00000  Uiso   1.00
H1030  H     0.19052   0.62896   0.90851   0.00000  Uiso   1.00
H1031  H     0.14011   0.62949   0.75857   0.00000  Uiso   1.00
H1032  H     0.19017   0.37052   0.90868   0.00000  Uiso   1.00
H1033  H     0.10994   0.45336   0.70462   0.00000  Uiso   1.00
H1034  H     0.22541   0.54519   0.96254   0.00000  Uiso   1.00
N1035  N     0.16668   0.50001   0.95069   0.00000  Uiso   1.00
N1036  N     0.16665   0.49999   0.71597   0.00000  Uiso   1.00
O1037  O     0.16666   0.43989   0.87291   0.00000  Uiso   1.00
O1038  O     0.16667   0.56011   0.79375   0.00000  Uiso   1.00
O1039  O     0.16666   0.43988   0.79372   0.00000  Uiso   1.00
O1040  O     0.16667   0.56012   0.87294   0.00000  Uiso   1.00
O1041  O     0.09161   0.50000   0.86379   0.00000  Uiso   1.00
O1042  O     0.24172   0.50000   0.80288   0.00000  Uiso   1.00
O1043  O     0.09161   0.49999   0.78460   0.00000  Uiso   1.00
O1044  O     0.24172   0.50001   0.88207   0.00000  Uiso   1.00
N1045  N     0.10094   0.44658   0.94337   0.00000  Uiso   1.00
H1046  H     0.11774   0.41847   0.93953   0.00000  Uiso   1.00
C1047  C     0.04845   0.44254   0.95373   0.00000  Uiso   1.00
H1048  H     0.04662   0.42161   0.98432   0.00000  Uiso   1.00
H1049  H     0.02405   0.42913   0.92281   0.00000  Uiso   1.00
H1050  H     0.03281   0.47309   0.96132   0.00000  Uiso   1.00
N1051  N     0.23313   0.55270   0.72328   0.00000  Uiso   1.00
H1052  H     0.27042   0.54215   0.72801   0.00000  Uiso   1.00
C1053  C     0.23045   0.59589   0.71034   0.00000  Uiso   1.00
H1054  H     0.25111   0.60189   0.67945   0.00000  Uiso   1.00
H1055  H     0.24899   0.61462   0.74031   0.00000  Uiso   1.00
H1056  H     0.18977   0.60561   0.70180   0.00000  Uiso   1.00
C1057  C     0.49976   0.42073   0.83341   0.00000  Uiso   1.00
C1058  C     0.49985   0.57927   0.83325   0.00000  Uiso   1.00
C1059  C     0.40132   0.49987   0.82134   0.00000  Uiso   1.00
C1060  C     0.59867   0.50045   0.84529   0.00000  Uiso   1.00
C1061  C     0.34611   0.49908   0.81469   0.00000  Uiso   1.00
C1062  C     0.65386   0.50181   0.85177   0.00000  Uiso   1.00
C1063  C     0.48556   0.35481   0.79128   0.00000  Uiso   1.00
C1064  C     0.51282   0.64520   0.87563   0.00000  Uiso   1.00
C1065  C     0.48532   0.64550   0.79126   0.00000  Uiso   1.00
C1066  C     0.51263   0.35452   0.87575   0.00000  Uiso   1.00
C1067  C     0.49946   0.62390   0.83330   0.00000  Uiso   1.00
C1068  C     0.49931   0.37611   0.83352   0.00000  Uiso   1.00
C1069  C     0.46801   0.47425   0.68811   0.00000  Uiso   1.00
C1070  C     0.53250   0.52534   0.97868   0.00000  Uiso   1.00
C1071  C     0.46725   0.47439   0.97163   0.00000  Uiso   1.00
C1072  C     0.53217   0.52597   0.69497   0.00000  Uiso   1.00
Cu1073 Cu    0.50000   0.50001   0.88022   0.00000  Uiso   1.00
Cu1074 Cu    0.50000   0.49999   0.78645   0.00000  Uiso   1.00
H1075  H     0.65978   0.49579   0.77906   0.00000  Uiso   1.00
H1076  H     0.34024   0.50546   0.88726   0.00000  Uiso   1.00
H1077  H     0.47447   0.37105   0.75841   0.00000  Uiso   1.00
H1078  H     0.52385   0.62896   0.90851   0.00000  Uiso   1.00
H1079  H     0.47344   0.62949   0.75857   0.00000  Uiso   1.00
H1080  H     0.52350   0.37052   0.90868   0.00000  Uiso   1.00
H1081  H     0.44328   0.45336   0.70462   0.00000  Uiso   1.00
H1082  H     0.55874   0.54519   0.96254   0.00000  Uiso   1.00
N1083  N     0.50001   0.50001   0.95069   0.00000  Uiso   1.00
N1084  N     0.49999   0.49999   0.71597   0.00000  Uiso   1.00
O1085  O     0.50000   0.43989   0.87291   0.00000  Uiso   1.00
O1086  O     0.50000   0.56011   0.79375   0.00000  Uiso   1.00
O1087  O     0.50000   0.43988   0.79372   0.00000  Uiso   1.00
O1088  O     0.50000   0.56012   0.87294   0.00000  Uiso   1.00
O1089  O     0.42495   0.50000   0.86379   0.00000  Uiso   1.00
O1090  O     0.57505   0.50000   0.80288   0.00000  Uiso   1.00
O1091  O     0.42494   0.49999   0.78460   0.00000  Uiso   1.00
O1092  O     0.57506   0.50001   0.88207   0.00000  Uiso   1.00
N1093  N     0.43428   0.44658   0.94337   0.00000  Uiso   1.00
H1094  H     0.45107   0.41847   0.93953   0.00000  Uiso   1.00
C1095  C     0.38179   0.44254   0.95373   0.00000  Uiso   1.00
H1096  H     0.37995   0.42161   0.98432   0.00000  Uiso   1.00
H1097  H     0.35738   0.42913   0.92281   0.00000  Uiso   1.00
H1098  H     0.36615   0.47309   0.96132   0.00000  Uiso   1.00
N1099  N     0.56646   0.55270   0.72328   0.00000  Uiso   1.00
H1100  H     0.60375   0.54215   0.72801   0.00000  Uiso   1.00
C1101  C     0.56379   0.59589   0.71034   0.00000  Uiso   1.00
H1102  H     0.58444   0.60189   0.67945   0.00000  Uiso   1.00
H1103  H     0.58233   0.61462   0.74031   0.00000  Uiso   1.00
H1104  H     0.52310   0.60561   0.70180   0.00000  Uiso   1.00
C1105  C     0.83309   0.42073   0.83341   0.00000  Uiso   1.00
C1106  C     0.83319   0.57927   0.83325   0.00000  Uiso   1.00
C1107  C     0.73465   0.49987   0.82134   0.00000  Uiso   1.00
C1108  C     0.93200   0.50045   0.84529   0.00000  Uiso   1.00
C1109  C     0.67944   0.49908   0.81469   0.00000  Uiso   1.00
C1110  C     0.98720   0.50181   0.85177   0.00000  Uiso   1.00
C1111  C     0.81890   0.35481   0.79128   0.00000  Uiso   1.00
C1112  C     0.84616   0.64520   0.87563   0.00000  Uiso   1.00
C1113  C     0.81865   0.64550   0.79126   0.00000  Uiso   1.00
C1114  C     0.84596   0.35452   0.87575   0.00000  Uiso   1.00
C1115  C     0.83279   0.62390   0.83330   0.00000  Uiso   1.00
C1116  C     0.83265   0.37611   0.83352   0.00000  Uiso   1.00
C1117  C     0.80135   0.47425   0.68811   0.00000  Uiso   1.00
C1118  C     0.86583   0.52534   0.97868   0.00000  Uiso   1.00
C1119  C     0.80059   0.47439   0.97163   0.00000  Uiso   1.00
C1120  C     0.86551   0.52597   0.69497   0.00000  Uiso   1.00
Cu1121 Cu    0.83333   0.50001   0.88022   0.00000  Uiso   1.00
Cu1122 Cu    0.83333   0.49999   0.78645   0.00000  Uiso   1.00
H1123  H     0.99311   0.49579   0.77906   0.00000  Uiso   1.00
H1124  H     0.67357   0.50546   0.88726   0.00000  Uiso   1.00
H1125  H     0.80780   0.37105   0.75841   0.00000  Uiso   1.00
H1126  H     0.85718   0.62896   0.90851   0.00000  Uiso   1.00
H1127  H     0.80678   0.62949   0.75857   0.00000  Uiso   1.00
H1128  H     0.85684   0.37052   0.90868   0.00000  Uiso   1.00
H1129  H     0.77661   0.45336   0.70462   0.00000  Uiso   1.00
H1130  H     0.89208   0.54519   0.96254   0.00000  Uiso   1.00
N1131  N     0.83335   0.50001   0.95069   0.00000  Uiso   1.00
N1132  N     0.83332   0.49999   0.71597   0.00000  Uiso   1.00
O1133  O     0.83333   0.43989   0.87291   0.00000  Uiso   1.00
O1134  O     0.83334   0.56011   0.79375   0.00000  Uiso   1.00
O1135  O     0.83333   0.43988   0.79372   0.00000  Uiso   1.00
O1136  O     0.83334   0.56012   0.87294   0.00000  Uiso   1.00
O1137  O     0.75828   0.50000   0.86379   0.00000  Uiso   1.00
O1138  O     0.90839   0.50000   0.80288   0.00000  Uiso   1.00
O1139  O     0.75828   0.49999   0.78460   0.00000  Uiso   1.00
O1140  O     0.90839   0.50001   0.88207   0.00000  Uiso   1.00
N1141  N     0.76761   0.44658   0.94337   0.00000  Uiso   1.00
H1142  H     0.78440   0.41847   0.93953   0.00000  Uiso   1.00
C1143  C     0.71512   0.44254   0.95373   0.00000  Uiso   1.00
H1144  H     0.71328   0.42161   0.98432   0.00000  Uiso   1.00
H1145  H     0.69072   0.42913   0.92281   0.00000  Uiso   1.00
H1146  H     0.69948   0.47309   0.96132   0.00000  Uiso   1.00
N1147  N     0.89979   0.55270   0.72328   0.00000  Uiso   1.00
H1148  H     0.93708   0.54215   0.72801   0.00000  Uiso   1.00
C1149  C     0.89712   0.59589   0.71034   0.00000  Uiso   1.00
H1150  H     0.91777   0.60189   0.67945   0.00000  Uiso   1.00
H1151  H     0.91566   0.61462   0.74031   0.00000  Uiso   1.00
H1152  H     0.85643   0.60561   0.70180   0.00000  Uiso   1.00
C1153  C     0.16643   0.75407   0.83341   0.00000  Uiso   1.00
C1154  C     0.16652   0.91260   0.83325   0.00000  Uiso   1.00
C1155  C     0.06799   0.83320   0.82134   0.00000  Uiso   1.00
C1156  C     0.26534   0.83378   0.84529   0.00000  Uiso   1.00
C1157  C     0.01277   0.83242   0.81469   0.00000  Uiso   1.00
C1158  C     0.32053   0.83514   0.85177   0.00000  Uiso   1.00
C1159  C     0.15223   0.68814   0.79128   0.00000  Uiso   1.00
C1160  C     0.17949   0.97853   0.87563   0.00000  Uiso   1.00
C1161  C     0.15199   0.97883   0.79126   0.00000  Uiso   1.00
C1162  C     0.17929   0.68785   0.87575   0.00000  Uiso   1.00
C1163  C     0.16612   0.95724   0.83330   0.00000  Uiso   1.00
C1164  C     0.16598   0.70944   0.83352   0.00000  Uiso   1.00
C1165  C     0.13468   0.80758   0.68811   0.00000  Uiso   1.00
C1166  C     0.19916   0.85867   0.97868   0.00000  Uiso   1.00
C1167  C     0.13392   0.80773   0.97163   0.00000  Uiso   1.00
C1168  C     0.19884   0.85930   0.69497   0.00000  Uiso   1.00
Cu1169 Cu    0.16667   0.83334   0.88022   0.00000  Uiso   1.00
Cu1170 Cu    0.16667   0.83333   0.78645   0.00000  Uiso   1.00
H1171  H     0.32644   0.82912   0.77906   0.00000  Uiso   1.00
H1172  H     0.00690   0.83879   0.88726   0.00000  Uiso   1.00
H1173  H     0.14114   0.70438   0.75841   0.00000  Uiso   1.00
H1174  H     0.19052   0.96230   0.90851   0.00000  Uiso   1.00
H1175  H     0.14011   0.96282   0.75857   0.00000  Uiso   1.00
H1176  H     0.19017   0.70386   0.90868   0.00000  Uiso   1.00
H1177  H     0.10994   0.78669   0.70462   0.00000  Uiso   1.00
H1178  H     0.22541   0.87852   0.96254   0.00000  Uiso   1.00
N1179  N     0.16668   0.83334   0.95069   0.00000  Uiso   1.00
N1180  N     0.16665   0.83332   0.71597   0.00000  Uiso   1.00
O1181  O     0.16666   0.77322   0.87291   0.00000  Uiso   1.00
O1182  O     0.16667   0.89345   0.79375   0.00000  Uiso   1.00
O1183  O     0.16666   0.77321   0.79372   0.00000  Uiso   1.00
O1184  O     0.16667   0.89346   0.87294   0.00000  Uiso   1.00
O1185  O     0.09161   0.83334   0.86379   0.00000  Uiso   1.00
O1186  O     0.24172   0.83333   0.80288   0.00000  Uiso   1.00
O1187  O     0.09161   0.83333   0.78460   0.00000  Uiso   1.00
O1188  O     0.24172   0.83334   0.88207   0.00000  Uiso   1.00
N1189  N     0.10094   0.77991   0.94337   0.00000  Uiso   1.00
H1190  H     0.11774   0.75180   0.93953   0.00000  Uiso   1.00
C1191  C     0.04845   0.77588   0.95373   0.00000  Uiso   1.00
H1192  H     0.04662   0.75495   0.98432   0.00000  Uiso   1.00
H1193  H     0.02405   0.76246   0.92281   0.00000  Uiso   1.00
H1194  H     0.03281   0.80643   0.96132   0.00000  Uiso   1.00
N1195  N     0.23313   0.88603   0.72328   0.00000  Uiso   1.00
H1196  H     0.27042   0.87549   0.72801   0.00000  Uiso   1.00
C1197  C     0.23045   0.92923   0.71034   0.00000  Uiso   1.00
H1198  H     0.25111   0.93522   0.67945   0.00000  Uiso   1.00
H1199  H     0.24899   0.94795   0.74031   0.00000  Uiso   1.00
H1200  H     0.18977   0.93894   0.70180   0.00000  Uiso   1.00
C1201  C     0.49976   0.75407   0.83341   0.00000  Uiso   1.00
C1202  C     0.49985   0.91260   0.83325   0.00000  Uiso   1.00
C1203  C     0.40132   0.83320   0.82134   0.00000  Uiso   1.00
C1204  C     0.59867   0.83378   0.84529   0.00000  Uiso   1.00
C1205  C     0.34611   0.83242   0.81469   0.00000  Uiso   1.00
C1206  C     0.65386   0.83514   0.85177   0.00000  Uiso   1.00
C1207  C     0.48556   0.68814   0.79128   0.00000  Uiso   1.00
C1208  C     0.51282   0.97853   0.87563   0.00000  Uiso   1.00
C1209  C     0.48532   0.97883   0.79126   0.00000  Uiso   1.00
C1210  C     0.51263   0.68785   0.87575   0.00000  Uiso   1.00
C1211  C     0.49946   0.95724   0.83330   0.00000  Uiso   1.00
C1212  C     0.49931   0.70944   0.83352   0.00000  Uiso   1.00
C1213  C     0.46801   0.80758   0.68811   0.00000  Uiso   1.00
C1214  C     0.53250   0.85867   0.97868   0.00000  Uiso   1.00
C1215  C     0.46725   0.80773   0.97163   0.00000  Uiso   1.00
C1216  C     0.53217   0.85930   0.69497   0.00000  Uiso   1.00
Cu1217 Cu    0.50000   0.83334   0.88022   0.00000  Uiso   1.00
Cu1218 Cu    0.50000   0.83333   0.78645   0.00000  Uiso   1.00
H1219  H     0.65978   0.82912   0.77906   0.00000  Uiso   1.00
H1220  H     0.34024   0.83879   0.88726   0.00000  Uiso   1.00
H1221  H     0.47447   0.70438   0.75841   0.00000  Uiso   1.00
H1222  H     0.52385   0.96230   0.90851   0.00000  Uiso   1.00
H1223  H     0.47344   0.96282   0.75857   0.00000  Uiso   1.00
H1224  H     0.52350   0.70386   0.90868   0.00000  Uiso   1.00
H1225  H     0.44328   0.78669   0.70462   0.00000  Uiso   1.00
H1226  H     0.55874   0.87852   0.96254   0.00000  Uiso   1.00
N1227  N     0.50001   0.83334   0.95069   0.00000  Uiso   1.00
N1228  N     0.49999   0.83332   0.71597   0.00000  Uiso   1.00
O1229  O     0.50000   0.77322   0.87291   0.00000  Uiso   1.00
O1230  O     0.50000   0.89345   0.79375   0.00000  Uiso   1.00
O1231  O     0.50000   0.77321   0.79372   0.00000  Uiso   1.00
O1232  O     0.50000   0.89346   0.87294   0.00000  Uiso   1.00
O1233  O     0.42495   0.83334   0.86379   0.00000  Uiso   1.00
O1234  O     0.57505   0.83333   0.80288   0.00000  Uiso   1.00
O1235  O     0.42494   0.83333   0.78460   0.00000  Uiso   1.00
O1236  O     0.57506   0.83334   0.88207   0.00000  Uiso   1.00
N1237  N     0.43428   0.77991   0.94337   0.00000  Uiso   1.00
H1238  H     0.45107   0.75180   0.93953   0.00000  Uiso   1.00
C1239  C     0.38179   0.77588   0.95373   0.00000  Uiso   1.00
H1240  H     0.37995   0.75495   0.98432   0.00000  Uiso   1.00
H1241  H     0.35738   0.76246   0.92281   0.00000  Uiso   1.00
H1242  H     0.36615   0.80643   0.96132   0.00000  Uiso   1.00
N1243  N     0.56646   0.88603   0.72328   0.00000  Uiso   1.00
H1244  H     0.60375   0.87549   0.72801   0.00000  Uiso   1.00
C1245  C     0.56379   0.92923   0.71034   0.00000  Uiso   1.00
H1246  H     0.58444   0.93522   0.67945   0.00000  Uiso   1.00
H1247  H     0.58233   0.94795   0.74031   0.00000  Uiso   1.00
H1248  H     0.52310   0.93894   0.70180   0.00000  Uiso   1.00
C1249  C     0.83309   0.75407   0.83341   0.00000  Uiso   1.00
C1250  C     0.83319   0.91260   0.83325   0.00000  Uiso   1.00
C1251  C     0.73465   0.83320   0.82134   0.00000  Uiso   1.00
C1252  C     0.93200   0.83378   0.84529   0.00000  Uiso   1.00
C1253  C     0.67944   0.83242   0.81469   0.00000  Uiso   1.00
C1254  C     0.98720   0.83514   0.85177   0.00000  Uiso   1.00
C1255  C     0.81890   0.68814   0.79128   0.00000  Uiso   1.00
C1256  C     0.84616   0.97853   0.87563   0.00000  Uiso   1.00
C1257  C     0.81865   0.97883   0.79126   0.00000  Uiso   1.00
C1258  C     0.84596   0.68785   0.87575   0.00000  Uiso   1.00
C1259  C     0.83279   0.95724   0.83330   0.00000  Uiso   1.00
C1260  C     0.83265   0.70944   0.83352   0.00000  Uiso   1.00
C1261  C     0.80135   0.80758   0.68811   0.00000  Uiso   1.00
C1262  C     0.86583   0.85867   0.97868   0.00000  Uiso   1.00
C1263  C     0.80059   0.80773   0.97163   0.00000  Uiso   1.00
C1264  C     0.86551   0.85930   0.69497   0.00000  Uiso   1.00
Cu1265 Cu    0.83333   0.83334   0.88022   0.00000  Uiso   1.00
Cu1266 Cu    0.83333   0.83333   0.78645   0.00000  Uiso   1.00
H1267  H     0.99311   0.82912   0.77906   0.00000  Uiso   1.00
H1268  H     0.67357   0.83879   0.88726   0.00000  Uiso   1.00
H1269  H     0.80780   0.70438   0.75841   0.00000  Uiso   1.00
H1270  H     0.85718   0.96230   0.90851   0.00000  Uiso   1.00
H1271  H     0.80678   0.96282   0.75857   0.00000  Uiso   1.00
H1272  H     0.85684   0.70386   0.90868   0.00000  Uiso   1.00
H1273  H     0.77661   0.78669   0.70462   0.00000  Uiso   1.00
H1274  H     0.89208   0.87852   0.96254   0.00000  Uiso   1.00
N1275  N     0.83335   0.83334   0.95069   0.00000  Uiso   1.00
N1276  N     0.83332   0.83332   0.71597   0.00000  Uiso   1.00
O1277  O     0.83333   0.77322   0.87291   0.00000  Uiso   1.00
O1278  O     0.83334   0.89345   0.79375   0.00000  Uiso   1.00
O1279  O     0.83333   0.77321   0.79372   0.00000  Uiso   1.00
O1280  O     0.83334   0.89346   0.87294   0.00000  Uiso   1.00
O1281  O     0.75828   0.83334   0.86379   0.00000  Uiso   1.00
O1282  O     0.90839   0.83333   0.80288   0.00000  Uiso   1.00
O1283  O     0.75828   0.83333   0.78460   0.00000  Uiso   1.00
O1284  O     0.90839   0.83334   0.88207   0.00000  Uiso   1.00
N1285  N     0.76761   0.77991   0.94337   0.00000  Uiso   1.00
H1286  H     0.78440   0.75180   0.93953   0.00000  Uiso   1.00
C1287  C     0.71512   0.77588   0.95373   0.00000  Uiso   1.00
H1288  H     0.71328   0.75495   0.98432   0.00000  Uiso   1.00
H1289  H     0.69072   0.76246   0.92281   0.00000  Uiso   1.00
H1290  H     0.69948   0.80643   0.96132   0.00000  Uiso   1.00
N1291  N     0.89979   0.88603   0.72328   0.00000  Uiso   1.00
H1292  H     0.93708   0.87549   0.72801   0.00000  Uiso   1.00
C1293  C     0.89712   0.92923   0.71034   0.00000  Uiso   1.00
H1294  H     0.91777   0.93522   0.67945   0.00000  Uiso   1.00
H1295  H     0.91566   0.94795   0.74031   0.00000  Uiso   1.00
H1296  H     0.85643   0.93894   0.70180   0.00000  Uiso   1.00
loop_
_geom_bond_atom_site_label_1
_geom_bond_atom_site_label_2
_geom_bond_distance
_geom_bond_site_symmetry_2
_ccdc_geom_bond_type
C1     O29     1.294   .     A
C1     C12     1.448   .     S
C1     O31     1.293   .     A
C2     O30     1.296   .     A
C2     C11     1.448   .     S
C2     O32     1.292   .     A
C3     O35     1.289   .     A
C3     O33     1.290   .     A
C3     C5      1.434   .     S
C4     O36     1.290   .     A
C4     O34     1.289   .     A
C4     C6      1.433   .     S
C5     C102    1.332   1_455 S
C5     H115    1.087   1_455 S
C6     C53     1.332   .     S
C6     H68     1.085   .     S
C7     C12     1.401   .     A
C7     H21     1.083   .     S
C7     C297    1.384   1_545 S
C8     H22     1.084   .     S
C8     C11     1.402   .     A
C8     C154    1.384   .     S
C9     C11     1.399   .     A
C9     H23     1.082   .     S
C9     C151    1.384   .     S
C10    C12     1.400   .     A
C10    H24     1.083   .     S
C10    C296    1.384   1_545 S
C13    N28     1.361   .     A
C13    H25     1.081   .     S
C13    C879    1.425   1_554 S
C14    N27     1.362   .     A
C14    H26     1.081   .     S
C14    C448    1.423   .     S
C15    N27     1.377   .     A
C15    N37     1.422   .     S
C15    C445    1.425   .     S
C16    N28     1.375   .     A
C16    N43     1.420   .     S
C16    C878    1.423   1_554 S
Cu17   O36     1.960   .     S
Cu17   Cu18    2.687   .     S
Cu17   O33     1.960   .     S
Cu17   N27     2.019   .     S
Cu17   O29     1.964   .     S
Cu17   O32     1.960   .     S
Cu18   O35     1.960   .     S
Cu18   N28     2.019   .     S
Cu18   O34     1.960   .     S
Cu18   O30     1.964   .     S
Cu18   O31     1.960   .     S
H19    C53     1.087   .     S
H20    C102    1.085   1_455 S
N37    H38     1.030   .     S
N37    C39     1.448   .     S
C39    H42     1.111   .     S
C39    H41     1.110   .     S
C39    H40     1.111   .     S
N43    H44     1.031   .     S
N43    C45     1.448   .     S
C45    H46     1.111   .     S
C45    H48     1.111   .     S
C45    H47     1.110   .     S
C49    O77     1.294   .     A
C49    C60     1.448   .     S
C49    O79     1.293   .     A
C50    O78     1.296   .     A
C50    C59     1.448   .     S
C50    O80     1.292   .     A
C51    O83     1.289   .     A
C51    O81     1.290   .     A
C51    C53     1.434   .     S
C52    O84     1.290   .     A
C52    O82     1.289   .     A
C52    C54     1.433   .     S
C54    C101    1.332   .     S
C54    H116    1.085   .     S
C55    C60     1.401   .     A
C55    H69     1.083   .     S
C55    C345    1.384   1_545 S
C56    H70     1.084   .     S
C56    C59     1.402   .     A
C56    C202    1.384   .     S
C57    C59     1.399   .     A
C57    H71     1.082   .     S
C57    C199    1.384   .     S
C58    C60     1.400   .     A
C58    H72     1.083   .     S
C58    C344    1.384   1_545 S
C61    N76     1.361   .     A
C61    H73     1.081   .     S
C61    C927    1.425   1_554 S
C62    N75     1.362   .     A
C62    H74     1.081   .     S
C62    C496    1.423   .     S
C63    N75     1.377   .     A
C63    N85     1.422   .     S
C63    C493    1.425   .     S
C64    N76     1.375   .     A
C64    N91     1.420   .     S
C64    C926    1.423   1_554 S
Cu65   O84     1.960   .     S
Cu65   Cu66    2.687   .     S
Cu65   O81     1.960   .     S
Cu65   N75     2.019   .     S
Cu65   O77     1.964   .     S
Cu65   O80     1.960   .     S
Cu66   O83     1.960   .     S
Cu66   N76     2.019   .     S
Cu66   O82     1.960   .     S
Cu66   O78     1.964   .     S
Cu66   O79     1.960   .     S
H67    C101    1.087   .     S
N85    H86     1.030   .     S
N85    C87     1.448   .     S
C87    H90     1.111   .     S
C87    H89     1.110   .     S
C87    H88     1.111   .     S
N91    H92     1.031   .     S
N91    C93     1.448   .     S
C93    H94     1.111   .     S
C93    H96     1.111   .     S
C93    H95     1.110   .     S
C97    O125    1.294   .     A
C97    C108    1.448   .     S
C97    O127    1.293   .     A
C98    O126    1.296   .     A
C98    C107    1.448   .     S
C98    O128    1.292   .     A
C99    O131    1.289   .     A
C99    O129    1.290   .     A
C99    C101    1.434   .     S
C100   O132    1.290   .     A
C100   O130    1.289   .     A
C100   C102    1.433   .     S
C102   C5      1.332   1_655 S
C102   H20     1.085   1_655 S
C103   C108    1.401   .     A
C103   H117    1.083   .     S
C103   C393    1.384   1_545 S
C104   H118    1.084   .     S
C104   C107    1.402   .     A
C104   C250    1.384   .     S
C105   C107    1.399   .     A
C105   H119    1.082   .     S
C105   C247    1.384   .     S
C106   C108    1.400   .     A
C106   H120    1.083   .     S
C106   C392    1.384   1_545 S
C109   N124    1.361   .     A
C109   H121    1.081   .     S
C109   C975    1.425   1_554 S
C110   N123    1.362   .     A
C110   H122    1.081   .     S
C110   C544    1.423   .     S
C111   N123    1.377   .     A
C111   N133    1.422   .     S
C111   C541    1.425   .     S
C112   N124    1.375   .     A
C112   N139    1.420   .     S
C112   C974    1.423   1_554 S
Cu113  O132    1.960   .     S
Cu113  Cu114   2.687   .     S
Cu113  O129    1.960   .     S
Cu113  N123    2.019   .     S
Cu113  O125    1.964   .     S
Cu113  O128    1.960   .     S
Cu114  O131    1.960   .     S
Cu114  N124    2.019   .     S
Cu114  O130    1.960   .     S
Cu114  O126    1.964   .     S
Cu114  O127    1.960   .     S
H115   C5      1.087   1_655 S
N133   H134    1.030   .     S
N133   C135    1.448   .     S
C135   H138    1.111   .     S
C135   H137    1.110   .     S
C135   H136    1.111   .     S
N139   H140    1.031   .     S
N139   C141    1.448   .     S
C141   H142    1.111   .     S
C141   H144    1.111   .     S
C141   H143    1.110   .     S
C145   O173    1.294   .     A
C145   C156    1.448   .     S
C145   O175    1.293   .     A
C146   O174    1.296   .     A
C146   C155    1.448   .     S
C146   O176    1.292   .     A
C147   O179    1.289   .     A
C147   O177    1.290   .     A
C147   C149    1.434   .     S
C148   O180    1.290   .     A
C148   O178    1.289   .     A
C148   C150    1.433   .     S
C149   C246    1.332   1_455 S
C149   H259    1.087   1_455 S
C150   C197    1.332   .     S
C150   H212    1.085   .     S
C151   C156    1.401   .     A
C151   H165    1.083   .     S
C152   H166    1.084   .     S
C152   C155    1.402   .     A
C152   C298    1.384   .     S
C153   C155    1.399   .     A
C153   H167    1.082   .     S
C153   C295    1.384   .     S
C154   C156    1.400   .     A
C154   H168    1.083   .     S
C157   N172    1.361   .     A
C157   H169    1.081   .     S
C157   C1023   1.425   1_554 S
C158   N171    1.362   .     A
C158   H170    1.081   .     S
C158   C592    1.423   .     S
C159   N171    1.377   .     A
C159   N181    1.422   .     S
C159   C589    1.425   .     S
C160   N172    1.375   .     A
C160   N187    1.420   .     S
C160   C1022   1.423   1_554 S
Cu161  O180    1.960   .     S
Cu161  Cu162   2.687   .     S
Cu161  O177    1.960   .     S
Cu161  N171    2.019   .     S
Cu161  O173    1.964   .     S
Cu161  O176    1.960   .     S
Cu162  O179    1.960   .     S
Cu162  N172    2.019   .     S
Cu162  O178    1.960   .     S
Cu162  O174    1.964   .     S
Cu162  O175    1.960   .     S
H163   C197    1.087   .     S
H164   C246    1.085   1_455 S
N181   H182    1.030   .     S
N181   C183    1.448   .     S
C183   H186    1.111   .     S
C183   H185    1.110   .     S
C183   H184    1.111   .     S
N187   H188    1.031   .     S
N187   C189    1.448   .     S
C189   H190    1.111   .     S
C189   H192    1.111   .     S
C189   H191    1.110   .     S
C193   O221    1.294   .     A
C193   C204    1.448   .     S
C193   O223    1.293   .     A
C194   O222    1.296   .     A
C194   C203    1.448   .     S
C194   O224    1.292   .     A
C195   O227    1.289   .     A
C195   O225    1.290   .     A
C195   C197    1.434   .     S
C196   O228    1.290   .     A
C196   O226    1.289   .     A
C196   C198    1.433   .     S
C198   C245    1.332   .     S
C198   H260    1.085   .     S
C199   C204    1.401   .     A
C199   H213    1.083   .     S
C200   H214    1.084   .     S
C200   C203    1.402   .     A
C200   C346    1.384   .     S
C201   C203    1.399   .     A
C201   H215    1.082   .     S
C201   C343    1.384   .     S
C202   C204    1.400   .     A
C202   H216    1.083   .     S
C205   N220    1.361   .     A
C205   H217    1.081   .     S
C205   C1071   1.425   1_554 S
C206   N219    1.362   .     A
C206   H218    1.081   .     S
C206   C640    1.423   .     S
C207   N219    1.377   .     A
C207   N229    1.422   .     S
C207   C637    1.425   .     S
C208   N220    1.375   .     A
C208   N235    1.420   .     S
C208   C1070   1.423   1_554 S
Cu209  O228    1.960   .     S
Cu209  Cu210   2.687   .     S
Cu209  O225    1.960   .     S
Cu209  N219    2.019   .     S
Cu209  O221    1.964   .     S
Cu209  O224    1.960   .     S
Cu210  O227    1.960   .     S
Cu210  N220    2.019   .     S
Cu210  O226    1.960   .     S
Cu210  O222    1.964   .     S
Cu210  O223    1.960   .     S
H211   C245    1.087   .     S
N229   H230    1.030   .     S
N229   C231    1.448   .     S
C231   H234    1.111   .     S
C231   H233    1.110   .     S
C231   H232    1.111   .     S
N235   H236    1.031   .     S
N235   C237    1.448   .     S
C237   H238    1.111   .     S
C237   H240    1.111   .     S
C237   H239    1.110   .     S
C241   O269    1.294   .     A
C241   C252    1.448   .     S
C241   O271    1.293   .     A
C242   O270    1.296   .     A
C242   C251    1.448   .     S
C242   O272    1.292   .     A
C243   O275    1.289   .     A
C243   O273    1.290   .     A
C243   C245    1.434   .     S
C244   O276    1.290   .     A
C244   O274    1.289   .     A
C244   C246    1.433   .     S
C246   C149    1.332   1_655 S
C246   H164    1.085   1_655 S
C247   C252    1.401   .     A
C247   H261    1.083   .     S
C248   H262    1.084   .     S
C248   C251    1.402   .     A
C248   C394    1.384   .     S
C249   C251    1.399   .     A
C249   H263    1.082   .     S
C249   C391    1.384   .     S
C250   C252    1.400   .     A
C250   H264    1.083   .     S
C253   N268    1.361   .     A
C253   H265    1.081   .     S
C253   C1119   1.425   1_554 S
C254   N267    1.362   .     A
C254   H266    1.081   .     S
C254   C688    1.423   .     S
C255   N267    1.377   .     A
C255   N277    1.422   .     S
C255   C685    1.425   .     S
C256   N268    1.375   .     A
C256   N283    1.420   .     S
C256   C1118   1.423   1_554 S
Cu257  O276    1.960   .     S
Cu257  Cu258   2.687   .     S
Cu257  O273    1.960   .     S
Cu257  N267    2.019   .     S
Cu257  O269    1.964   .     S
Cu257  O272    1.960   .     S
Cu258  O275    1.960   .     S
Cu258  N268    2.019   .     S
Cu258  O274    1.960   .     S
Cu258  O270    1.964   .     S
Cu258  O271    1.960   .     S
H259   C149    1.087   1_655 S
N277   H278    1.030   .     S
N277   C279    1.448   .     S
C279   H282    1.111   .     S
C279   H281    1.110   .     S
C279   H280    1.111   .     S
N283   H284    1.031   .     S
N283   C285    1.448   .     S
C285   H286    1.111   .     S
C285   H288    1.111   .     S
C285   H287    1.110   .     S
C289   O317    1.294   .     A
C289   C300    1.448   .     S
C289   O319    1.293   .     A
C290   O318    1.296   .     A
C290   C299    1.448   .     S
C290   O320    1.292   .     A
C291   O323    1.289   .     A
C291   O321    1.290   .     A
C291   C293    1.434   .     S
C292   O324    1.290   .     A
C292   O322    1.289   .     A
C292   C294    1.433   .     S
C293   C390    1.332   1_455 S
C293   H403    1.087   1_455 S
C294   C341    1.332   .     S
C294   H356    1.085   .     S
C295   C300    1.401   .     A
C295   H309    1.083   .     S
C296   H310    1.084   .     S
C296   C299    1.402   .     A
C296   C10     1.384   1_565 S
C297   C299    1.399   .     A
C297   H311    1.082   .     S
C297   C7      1.384   1_565 S
C298   C300    1.400   .     A
C298   H312    1.083   .     S
C301   N316    1.361   .     A
C301   H313    1.081   .     S
C301   C1167   1.425   1_554 S
C302   N315    1.362   .     A
C302   H314    1.081   .     S
C302   C736    1.423   .     S
C303   N315    1.377   .     A
C303   N325    1.422   .     S
C303   C733    1.425   .     S
C304   N316    1.375   .     A
C304   N331    1.420   .     S
C304   C1166   1.423   1_554 S
Cu305  O324    1.960   .     S
Cu305  Cu306   2.687   .     S
Cu305  O321    1.960   .     S
Cu305  N315    2.019   .     S
Cu305  O317    1.964   .     S
Cu305  O320    1.960   .     S
Cu306  O323    1.960   .     S
Cu306  N316    2.019   .     S
Cu306  O322    1.960   .     S
Cu306  O318    1.964   .     S
Cu306  O319    1.960   .     S
H307   C341    1.087   .     S
H308   C390    1.085   1_455 S
N325   H326    1.030   .     S
N325   C327    1.448   .     S
C327   H330    1.111   .     S
C327   H329    1.110   .     S
C327   H328    1.111   .     S
N331   H332    1.031   .     S
N331   C333    1.448   .     S
C333   H334    1.111   .     S
C333   H336    1.111   .     S
C333   H335    1.110   .     S
C337   O365    1.294   .     A
C337   C348    1.448   .     S
C337   O367    1.293   .     A
C338   O366    1.296   .     A
C338   C347    1.448   .     S
C338   O368    1.292   .     A
C339   O371    1.289   .     A
C339   O369    1.290   .     A
C339   C341    1.434   .     S
C340   O372    1.290   .     A
C340   O370    1.289   .     A
C340   C342    1.433   .     S
C342   C389    1.332   .     S
C342   H404    1.085   .     S
C343   C348    1.401   .     A
C343   H357    1.083   .     S
C344   H358    1.084   .     S
C344   C347    1.402   .     A
C344   C58     1.384   1_565 S
C345   C347    1.399   .     A
C345   H359    1.082   .     S
C345   C55     1.384   1_565 S
C346   C348    1.400   .     A
C346   H360    1.083   .     S
C349   N364    1.361   .     A
C349   H361    1.081   .     S
C349   C1215   1.425   1_554 S
C350   N363    1.362   .     A
C350   H362    1.081   .     S
C350   C784    1.423   .     S
C351   N363    1.377   .     A
C351   N373    1.422   .     S
C351   C781    1.425   .     S
C352   N364    1.375   .     A
C352   N379    1.420   .     S
C352   C1214   1.423   1_554 S
Cu353  O372    1.960   .     S
Cu353  Cu354   2.687   .     S
Cu353  O369    1.960   .     S
Cu353  N363    2.019   .     S
Cu353  O365    1.964   .     S
Cu353  O368    1.960   .     S
Cu354  O371    1.960   .     S
Cu354  N364    2.019   .     S
Cu354  O370    1.960   .     S
Cu354  O366    1.964   .     S
Cu354  O367    1.960   .     S
H355   C389    1.087   .     S
N373   H374    1.030   .     S
N373   C375    1.448   .     S
C375   H378    1.111   .     S
C375   H377    1.110   .     S
C375   H376    1.111   .     S
N379   H380    1.031   .     S
N379   C381    1.448   .     S
C381   H382    1.111   .     S
C381   H384    1.111   .     S
C381   H383    1.110   .     S
C385   O413    1.294   .     A
C385   C396    1.448   .     S
C385   O415    1.293   .     A
C386   O414    1.296   .     A
C386   C395    1.448   .     S
C386   O416    1.292   .     A
C387   O419    1.289   .     A
C387   O417    1.290   .     A
C387   C389    1.434   .     S
C388   O420    1.290   .     A
C388   O418    1.289   .     A
C388   C390    1.433   .     S
C390   C293    1.332   1_655 S
C390   H308    1.085   1_655 S
C391   C396    1.401   .     A
C391   H405    1.083   .     S
C392   H406    1.084   .     S
C392   C395    1.402   .     A
C392   C106    1.384   1_565 S
C393   C395    1.399   .     A
C393   H407    1.082   .     S
C393   C103    1.384   1_565 S
C394   C396    1.400   .     A
C394   H408    1.083   .     S
C397   N412    1.361   .     A
C397   H409    1.081   .     S
C397   C1263   1.425   1_554 S
C398   N411    1.362   .     A
C398   H410    1.081   .     S
C398   C832    1.423   .     S
C399   N411    1.377   .     A
C399   N421    1.422   .     S
C399   C829    1.425   .     S
C400   N412    1.375   .     A
C400   N427    1.420   .     S
C400   C1262   1.423   1_554 S
Cu401  O420    1.960   .     S
Cu401  Cu402   2.687   .     S
Cu401  O417    1.960   .     S
Cu401  N411    2.019   .     S
Cu401  O413    1.964   .     S
Cu401  O416    1.960   .     S
Cu402  O419    1.960   .     S
Cu402  N412    2.019   .     S
Cu402  O418    1.960   .     S
Cu402  O414    1.964   .     S
Cu402  O415    1.960   .     S
H403   C293    1.087   1_655 S
N421   H422    1.030   .     S
N421   C423    1.448   .     S
C423   H426    1.111   .     S
C423   H425    1.110   .     S
C423   H424    1.111   .     S
N427   H428    1.031   .     S
N427   C429    1.448   .     S
C429   H430    1.111   .     S
C429   H432    1.111   .     S
C429   H431    1.110   .     S
C433   O461    1.294   .     A
C433   C444    1.448   .     S
C433   O463    1.293   .     A
C434   O462    1.296   .     A
C434   C443    1.448   .     S
C434   O464    1.292   .     A
C435   O467    1.289   .     A
C435   O465    1.290   .     A
C435   C437    1.434   .     S
C436   O468    1.290   .     A
C436   O466    1.289   .     A
C436   C438    1.433   .     S
C437   C534    1.332   1_455 S
C437   H547    1.087   1_455 S
C438   C485    1.332   .     S
C438   H500    1.085   .     S
C439   C444    1.401   .     A
C439   H453    1.083   .     S
C439   C729    1.384   1_545 S
C440   H454    1.084   .     S
C440   C443    1.402   .     A
C440   C586    1.384   .     S
C441   C443    1.399   .     A
C441   H455    1.082   .     S
C441   C583    1.384   .     S
C442   C444    1.400   .     A
C442   H456    1.083   .     S
C442   C728    1.384   1_545 S
C445   N460    1.361   .     A
C445   H457    1.081   .     S
C446   N459    1.362   .     A
C446   H458    1.081   .     S
C446   C880    1.423   .     S
C447   N459    1.377   .     A
C447   N469    1.422   .     S
C447   C877    1.425   .     S
C448   N460    1.375   .     A
C448   N475    1.420   .     S
Cu449  O468    1.960   .     S
Cu449  Cu450   2.687   .     S
Cu449  O465    1.960   .     S
Cu449  N459    2.019   .     S
Cu449  O461    1.964   .     S
Cu449  O464    1.960   .     S
Cu450  O467    1.960   .     S
Cu450  N460    2.019   .     S
Cu450  O466    1.960   .     S
Cu450  O462    1.964   .     S
Cu450  O463    1.960   .     S
H451   C485    1.087   .     S
H452   C534    1.085   1_455 S
N469   H470    1.030   .     S
N469   C471    1.448   .     S
C471   H474    1.111   .     S
C471   H473    1.110   .     S
C471   H472    1.111   .     S
N475   H476    1.031   .     S
N475   C477    1.448   .     S
C477   H478    1.111   .     S
C477   H480    1.111   .     S
C477   H479    1.110   .     S
C481   O509    1.294   .     A
C481   C492    1.448   .     S
C481   O511    1.293   .     A
C482   O510    1.296   .     A
C482   C491    1.448   .     S
C482   O512    1.292   .     A
C483   O515    1.289   .     A
C483   O513    1.290   .     A
C483   C485    1.434   .     S
C484   O516    1.290   .     A
C484   O514    1.289   .     A
C484   C486    1.433   .     S
C486   C533    1.332   .     S
C486   H548    1.085   .     S
C487   C492    1.401   .     A
C487   H501    1.083   .     S
C487   C777    1.384   1_545 S
C488   H502    1.084   .     S
C488   C491    1.402   .     A
C488   C634    1.384   .     S
C489   C491    1.399   .     A
C489   H503    1.082   .     S
C489   C631    1.384   .     S
C490   C492    1.400   .     A
C490   H504    1.083   .     S
C490   C776    1.384   1_545 S
C493   N508    1.361   .     A
C493   H505    1.081   .     S
C494   N507    1.362   .     A
C494   H506    1.081   .     S
C494   C928    1.423   .     S
C495   N507    1.377   .     A
C495   N517    1.422   .     S
C495   C925    1.425   .     S
C496   N508    1.375   .     A
C496   N523    1.420   .     S
Cu497  O516    1.960   .     S
Cu497  Cu498   2.687   .     S
Cu497  O513    1.960   .     S
Cu497  N507    2.019   .     S
Cu497  O509    1.964   .     S
Cu497  O512    1.960   .     S
Cu498  O515    1.960   .     S
Cu498  N508    2.019   .     S
Cu498  O514    1.960   .     S
Cu498  O510    1.964   .     S
Cu498  O511    1.960   .     S
H499   C533    1.087   .     S
N517   H518    1.030   .     S
N517   C519    1.448   .     S
C519   H522    1.111   .     S
C519   H521    1.110   .     S
C519   H520    1.111   .     S
N523   H524    1.031   .     S
N523   C525    1.448   .     S
C525   H526    1.111   .     S
C525   H528    1.111   .     S
C525   H527    1.110   .     S
C529   O557    1.294   .     A
C529   C540    1.448   .     S
C529   O559    1.293   .     A
C530   O558    1.296   .     A
C530   C539    1.448   .     S
C530   O560    1.292   .     A
C531   O563    1.289   .     A
C531   O561    1.290   .     A
C531   C533    1.434   .     S
C532   O564    1.290   .     A
C532   O562    1.289   .     A
C532   C534    1.433   .     S
C534   C437    1.332   1_655 S
C534   H452    1.085   1_655 S
C535   C540    1.401   .     A
C535   H549    1.083   .     S
C535   C825    1.384   1_545 S
C536   H550    1.084   .     S
C536   C539    1.402   .     A
C536   C682    1.384   .     S
C537   C539    1.399   .     A
C537   H551    1.082   .     S
C537   C679    1.384   .     S
C538   C540    1.400   .     A
C538   H552    1.083   .     S
C538   C824    1.384   1_545 S
C541   N556    1.361   .     A
C541   H553    1.081   .     S
C542   N555    1.362   .     A
C542   H554    1.081   .     S
C542   C976    1.423   .     S
C543   N555    1.377   .     A
C543   N565    1.422   .     S
C543   C973    1.425   .     S
C544   N556    1.375   .     A
C544   N571    1.420   .     S
Cu545  O564    1.960   .     S
Cu545  Cu546   2.687   .     S
Cu545  O561    1.960   .     S
Cu545  N555    2.019   .     S
Cu545  O557    1.964   .     S
Cu545  O560    1.960   .     S
Cu546  O563    1.960   .     S
Cu546  N556    2.019   .     S
Cu546  O562    1.960   .     S
Cu546  O558    1.964   .     S
Cu546  O559    1.960   .     S
H547   C437    1.087   1_655 S
N565   H566    1.030   .     S
N565   C567    1.448   .     S
C567   H570    1.111   .     S
C567   H569    1.110   .     S
C567   H568    1.111   .     S
N571   H572    1.031   .     S
N571   C573    1.448   .     S
C573   H574    1.111   .     S
C573   H576    1.111   .     S
C573   H575    1.110   .     S
C577   O605    1.294   .     A
C577   C588    1.448   .     S
C577   O607    1.293   .     A
C578   O606    1.296   .     A
C578   C587    1.448   .     S
C578   O608    1.292   .     A
C579   O611    1.289   .     A
C579   O609    1.290   .     A
C579   C581    1.434   .     S
C580   O612    1.290   .     A
C580   O610    1.289   .     A
C580   C582    1.433   .     S
C581   C678    1.332   1_455 S
C581   H691    1.087   1_455 S
C582   C629    1.332   .     S
C582   H644    1.085   .     S
C583   C588    1.401   .     A
C583   H597    1.083   .     S
C584   H598    1.084   .     S
C584   C587    1.402   .     A
C584   C730    1.384   .     S
C585   C587    1.399   .     A
C585   H599    1.082   .     S
C585   C727    1.384   .     S
C586   C588    1.400   .     A
C586   H600    1.083   .     S
C589   N604    1.361   .     A
C589   H601    1.081   .     S
C590   N603    1.362   .     A
C590   H602    1.081   .     S
C590   C1024   1.423   .     S
C591   N603    1.377   .     A
C591   N613    1.422   .     S
C591   C1021   1.425   .     S
C592   N604    1.375   .     A
C592   N619    1.420   .     S
Cu593  O612    1.960   .     S
Cu593  Cu594   2.687   .     S
Cu593  O609    1.960   .     S
Cu593  N603    2.019   .     S
Cu593  O605    1.964   .     S
Cu593  O608    1.960   .     S
Cu594  O611    1.960   .     S
Cu594  N604    2.019   .     S
Cu594  O610    1.960   .     S
Cu594  O606    1.964   .     S
Cu594  O607    1.960   .     S
H595   C629    1.087   .     S
H596   C678    1.085   1_455 S
N613   H614    1.030   .     S
N613   C615    1.448   .     S
C615   H618    1.111   .     S
C615   H617    1.110   .     S
C615   H616    1.111   .     S
N619   H620    1.031   .     S
N619   C621    1.448   .     S
C621   H622    1.111   .     S
C621   H624    1.111   .     S
C621   H623    1.110   .     S
C625   O653    1.294   .     A
C625   C636    1.448   .     S
C625   O655    1.293   .     A
C626   O654    1.296   .     A
C626   C635    1.448   .     S
C626   O656    1.292   .     A
C627   O659    1.289   .     A
C627   O657    1.290   .     A
C627   C629    1.434   .     S
C628   O660    1.290   .     A
C628   O658    1.289   .     A
C628   C630    1.433   .     S
C630   C677    1.332   .     S
C630   H692    1.085   .     S
C631   C636    1.401   .     A
C631   H645    1.083   .     S
C632   H646    1.084   .     S
C632   C635    1.402   .     A
C632   C778    1.384   .     S
C633   C635    1.399   .     A
C633   H647    1.082   .     S
C633   C775    1.384   .     S
C634   C636    1.400   .     A
C634   H648    1.083   .     S
C637   N652    1.361   .     A
C637   H649    1.081   .     S
C638   N651    1.362   .     A
C638   H650    1.081   .     S
C638   C1072   1.423   .     S
C639   N651    1.377   .     A
C639   N661    1.422   .     S
C639   C1069   1.425   .     S
C640   N652    1.375   .     A
C640   N667    1.420   .     S
Cu641  O660    1.960   .     S
Cu641  Cu642   2.687   .     S
Cu641  O657    1.960   .     S
Cu641  N651    2.019   .     S
Cu641  O653    1.964   .     S
Cu641  O656    1.960   .     S
Cu642  O659    1.960   .     S
Cu642  N652    2.019   .     S
Cu642  O658    1.960   .     S
Cu642  O654    1.964   .     S
Cu642  O655    1.960   .     S
H643   C677    1.087   .     S
N661   H662    1.030   .     S
N661   C663    1.448   .     S
C663   H666    1.111   .     S
C663   H665    1.110   .     S
C663   H664    1.111   .     S
N667   H668    1.031   .     S
N667   C669    1.448   .     S
C669   H670    1.111   .     S
C669   H672    1.111   .     S
C669   H671    1.110   .     S
C673   O701    1.294   .     A
C673   C684    1.448   .     S
C673   O703    1.293   .     A
C674   O702    1.296   .     A
C674   C683    1.448   .     S
C674   O704    1.292   .     A
C675   O707    1.289   .     A
C675   O705    1.290   .     A
C675   C677    1.434   .     S
C676   O708    1.290   .     A
C676   O706    1.289   .     A
C676   C678    1.433   .     S
C678   C581    1.332   1_655 S
C678   H596    1.085   1_655 S
C679   C684    1.401   .     A
C679   H693    1.083   .     S
C680   H694    1.084   .     S
C680   C683    1.402   .     A
C680   C826    1.384   .     S
C681   C683    1.399   .     A
C681   H695    1.082   .     S
C681   C823    1.384   .     S
C682   C684    1.400   .     A
C682   H696    1.083   .     S
C685   N700    1.361   .     A
C685   H697    1.081   .     S
C686   N699    1.362   .     A
C686   H698    1.081   .     S
C686   C1120   1.423   .     S
C687   N699    1.377   .     A
C687   N709    1.422   .     S
C687   C1117   1.425   .     S
C688   N700    1.375   .     A
C688   N715    1.420   .     S
Cu689  O708    1.960   .     S
Cu689  Cu690   2.687   .     S
Cu689  O705    1.960   .     S
Cu689  N699    2.019   .     S
Cu689  O701    1.964   .     S
Cu689  O704    1.960   .     S
Cu690  O707    1.960   .     S
Cu690  N700    2.019   .     S
Cu690  O706    1.960   .     S
Cu690  O702    1.964   .     S
Cu690  O703    1.960   .     S
H691   C581    1.087   1_655 S
N709   H710    1.030   .     S
N709   C711    1.448   .     S
C711   H714    1.111   .     S
C711   H713    1.110   .     S
C711   H712    1.111   .     S
N715   H716    1.031   .     S
N715   C717    1.448   .     S
C717   H718    1.111   .     S
C717   H720    1.111   .     S
C717   H719    1.110   .     S
C721   O749    1.294   .     A
C721   C732    1.448   .     S
C721   O751    1.293   .     A
C722   O750    1.296   .     A
C722   C731    1.448   .     S
C722   O752    1.292   .     A
C723   O755    1.289   .     A
C723   O753    1.290   .     A
C723   C725    1.434   .     S
C724   O756    1.290   .     A
C724   O754    1.289   .     A
C724   C726    1.433   .     S
C725   C822    1.332   1_455 S
C725   H835    1.087   1_455 S
C726   C773    1.332   .     S
C726   H788    1.085   .     S
C727   C732    1.401   .     A
C727   H741    1.083   .     S
C728   H742    1.084   .     S
C728   C731    1.402   .     A
C728   C442    1.384   1_565 S
C729   C731    1.399   .     A
C729   H743    1.082   .     S
C729   C439    1.384   1_565 S
C730   C732    1.400   .     A
C730   H744    1.083   .     S
C733   N748    1.361   .     A
C733   H745    1.081   .     S
C734   N747    1.362   .     A
C734   H746    1.081   .     S
C734   C1168   1.423   .     S
C735   N747    1.377   .     A
C735   N757    1.422   .     S
C735   C1165   1.425   .     S
C736   N748    1.375   .     A
C736   N763    1.420   .     S
Cu737  O756    1.960   .     S
Cu737  Cu738   2.687   .     S
Cu737  O753    1.960   .     S
Cu737  N747    2.019   .     S
Cu737  O749    1.964   .     S
Cu737  O752    1.960   .     S
Cu738  O755    1.960   .     S
Cu738  N748    2.019   .     S
Cu738  O754    1.960   .     S
Cu738  O750    1.964   .     S
Cu738  O751    1.960   .     S
H739   C773    1.087   .     S
H740   C822    1.085   1_455 S
N757   H758    1.030   .     S
N757   C759    1.448   .     S
C759   H762    1.111   .     S
C759   H761    1.110   .     S
C759   H760    1.111   .     S
N763   H764    1.031   .     S
N763   C765    1.448   .     S
C765   H766    1.111   .     S
C765   H768    1.111   .     S
C765   H767    1.110   .     S
C769   O797    1.294   .     A
C769   C780    1.448   .     S
C769   O799    1.293   .     A
C770   O798    1.296   .     A
C770   C779    1.448   .     S
C770   O800    1.292   .     A
C771   O803    1.289   .     A
C771   O801    1.290   .     A
C771   C773    1.434   .     S
C772   O804    1.290   .     A
C772   O802    1.289   .     A
C772   C774    1.433   .     S
C774   C821    1.332   .     S
C774   H836    1.085   .     S
C775   C780    1.401   .     A
C775   H789    1.083   .     S
C776   H790    1.084   .     S
C776   C779    1.402   .     A
C776   C490    1.384   1_565 S
C777   C779    1.399   .     A
C777   H791    1.082   .     S
C777   C487    1.384   1_565 S
C778   C780    1.400   .     A
C778   H792    1.083   .     S
C781   N796    1.361   .     A
C781   H793    1.081   .     S
C782   N795    1.362   .     A
C782   H794    1.081   .     S
C782   C1216   1.423   .     S
C783   N795    1.377   .     A
C783   N805    1.422   .     S
C783   C1213   1.425   .     S
C784   N796    1.375   .     A
C784   N811    1.420   .     S
Cu785  O804    1.960   .     S
Cu785  Cu786   2.687   .     S
Cu785  O801    1.960   .     S
Cu785  N795    2.019   .     S
Cu785  O797    1.964   .     S
Cu785  O800    1.960   .     S
Cu786  O803    1.960   .     S
Cu786  N796    2.019   .     S
Cu786  O802    1.960   .     S
Cu786  O798    1.964   .     S
Cu786  O799    1.960   .     S
H787   C821    1.087   .     S
N805   H806    1.030   .     S
N805   C807    1.448   .     S
C807   H810    1.111   .     S
C807   H809    1.110   .     S
C807   H808    1.111   .     S
N811   H812    1.031   .     S
N811   C813    1.448   .     S
C813   H814    1.111   .     S
C813   H816    1.111   .     S
C813   H815    1.110   .     S
C817   O845    1.294   .     A
C817   C828    1.448   .     S
C817   O847    1.293   .     A
C818   O846    1.296   .     A
C818   C827    1.448   .     S
C818   O848    1.292   .     A
C819   O851    1.289   .     A
C819   O849    1.290   .     A
C819   C821    1.434   .     S
C820   O852    1.290   .     A
C820   O850    1.289   .     A
C820   C822    1.433   .     S
C822   C725    1.332   1_655 S
C822   H740    1.085   1_655 S
C823   C828    1.401   .     A
C823   H837    1.083   .     S
C824   H838    1.084   .     S
C824   C827    1.402   .     A
C824   C538    1.384   1_565 S
C825   C827    1.399   .     A
C825   H839    1.082   .     S
C825   C535    1.384   1_565 S
C826   C828    1.400   .     A
C826   H840    1.083   .     S
C829   N844    1.361   .     A
C829   H841    1.081   .     S
C830   N843    1.362   .     A
C830   H842    1.081   .     S
C830   C1264   1.423   .     S
C831   N843    1.377   .     A
C831   N853    1.422   .     S
C831   C1261   1.425   .     S
C832   N844    1.375   .     A
C832   N859    1.420   .     S
Cu833  O852    1.960   .     S
Cu833  Cu834   2.687   .     S
Cu833  O849    1.960   .     S
Cu833  N843    2.019   .     S
Cu833  O845    1.964   .     S
Cu833  O848    1.960   .     S
Cu834  O851    1.960   .     S
Cu834  N844    2.019   .     S
Cu834  O850    1.960   .     S
Cu834  O846    1.964   .     S
Cu834  O847    1.960   .     S
H835   C725    1.087   1_655 S
N853   H854    1.030   .     S
N853   C855    1.448   .     S
C855   H858    1.111   .     S
C855   H857    1.110   .     S
C855   H856    1.111   .     S
N859   H860    1.031   .     S
N859   C861    1.448   .     S
C861   H862    1.111   .     S
C861   H864    1.111   .     S
C861   H863    1.110   .     S
C865   O893    1.294   .     A
C865   C876    1.448   .     S
C865   O895    1.293   .     A
C866   O894    1.296   .     A
C866   C875    1.448   .     S
C866   O896    1.292   .     A
C867   O899    1.289   .     A
C867   O897    1.290   .     A
C867   C869    1.434   .     S
C868   O900    1.290   .     A
C868   O898    1.289   .     A
C868   C870    1.433   .     S
C869   C966    1.332   1_455 S
C869   H979    1.087   1_455 S
C870   C917    1.332   .     S
C870   H932    1.085   .     S
C871   C876    1.401   .     A
C871   H885    1.083   .     S
C871   C1161   1.384   1_545 S
C872   H886    1.084   .     S
C872   C875    1.402   .     A
C872   C1018   1.384   .     S
C873   C875    1.399   .     A
C873   H887    1.082   .     S
C873   C1015   1.384   .     S
C874   C876    1.400   .     A
C874   H888    1.083   .     S
C874   C1160   1.384   1_545 S
C877   N892    1.361   .     A
C877   H889    1.081   .     S
C878   N891    1.362   .     A
C878   H890    1.081   .     S
C878   C16     1.423   1_556 S
C879   N891    1.377   .     A
C879   N901    1.422   .     S
C879   C13     1.425   1_556 S
C880   N892    1.375   .     A
C880   N907    1.420   .     S
Cu881  O900    1.960   .     S
Cu881  Cu882   2.687   .     S
Cu881  O897    1.960   .     S
Cu881  N891    2.019   .     S
Cu881  O893    1.964   .     S
Cu881  O896    1.960   .     S
Cu882  O899    1.960   .     S
Cu882  N892    2.019   .     S
Cu882  O898    1.960   .     S
Cu882  O894    1.964   .     S
Cu882  O895    1.960   .     S
H883   C917    1.087   .     S
H884   C966    1.085   1_455 S
N901   H902    1.030   .     S
N901   C903    1.448   .     S
C903   H906    1.111   .     S
C903   H905    1.110   .     S
C903   H904    1.111   .     S
N907   H908    1.031   .     S
N907   C909    1.448   .     S
C909   H910    1.111   .     S
C909   H912    1.111   .     S
C909   H911    1.110   .     S
C913   O941    1.294   .     A
C913   C924    1.448   .     S
C913   O943    1.293   .     A
C914   O942    1.296   .     A
C914   C923    1.448   .     S
C914   O944    1.292   .     A
C915   O947    1.289   .     A
C915   O945    1.290   .     A
C915   C917    1.434   .     S
C916   O948    1.290   .     A
C916   O946    1.289   .     A
C916   C918    1.433   .     S
C918   C965    1.332   .     S
C918   H980    1.085   .     S
C919   C924    1.401   .     A
C919   H933    1.083   .     S
C919   C1209   1.384   1_545 S
C920   H934    1.084   .     S
C920   C923    1.402   .     A
C920   C1066   1.384   .     S
C921   C923    1.399   .     A
C921   H935    1.082   .     S
C921   C1063   1.384   .     S
C922   C924    1.400   .     A
C922   H936    1.083   .     S
C922   C1208   1.384   1_545 S
C925   N940    1.361   .     A
C925   H937    1.081   .     S
C926   N939    1.362   .     A
C926   H938    1.081   .     S
C926   C64     1.423   1_556 S
C927   N939    1.377   .     A
C927   N949    1.422   .     S
C927   C61     1.425   1_556 S
C928   N940    1.375   .     A
C928   N955    1.420   .     S
Cu929  O948    1.960   .     S
Cu929  Cu930   2.687   .     S
Cu929  O945    1.960   .     S
Cu929  N939    2.019   .     S
Cu929  O941    1.964   .     S
Cu929  O944    1.960   .     S
Cu930  O947    1.960   .     S
Cu930  N940    2.019   .     S
Cu930  O946    1.960   .     S
Cu930  O942    1.964   .     S
Cu930  O943    1.960   .     S
H931   C965    1.087   .     S
N949   H950    1.030   .     S
N949   C951    1.448   .     S
C951   H954    1.111   .     S
C951   H953    1.110   .     S
C951   H952    1.111   .     S
N955   H956    1.031   .     S
N955   C957    1.448   .     S
C957   H958    1.111   .     S
C957   H960    1.111   .     S
C957   H959    1.110   .     S
C961   O989    1.294   .     A
C961   C972    1.448   .     S
C961   O991    1.293   .     A
C962   O990    1.296   .     A
C962   C971    1.448   .     S
C962   O992    1.292   .     A
C963   O995    1.289   .     A
C963   O993    1.290   .     A
C963   C965    1.434   .     S
C964   O996    1.290   .     A
C964   O994    1.289   .     A
C964   C966    1.433   .     S
C966   C869    1.332   1_655 S
C966   H884    1.085   1_655 S
C967   C972    1.401   .     A
C967   H981    1.083   .     S
C967   C1257   1.384   1_545 S
C968   H982    1.084   .     S
C968   C971    1.402   .     A
C968   C1114   1.384   .     S
C969   C971    1.399   .     A
C969   H983    1.082   .     S
C969   C1111   1.384   .     S
C970   C972    1.400   .     A
C970   H984    1.083   .     S
C970   C1256   1.384   1_545 S
C973   N988    1.361   .     A
C973   H985    1.081   .     S
C974   N987    1.362   .     A
C974   H986    1.081   .     S
C974   C112    1.423   1_556 S
C975   N987    1.377   .     A
C975   N997    1.422   .     S
C975   C109    1.425   1_556 S
C976   N988    1.375   .     A
C976   N1003   1.420   .     S
Cu977  O996    1.960   .     S
Cu977  Cu978   2.687   .     S
Cu977  O993    1.960   .     S
Cu977  N987    2.019   .     S
Cu977  O989    1.964   .     S
Cu977  O992    1.960   .     S
Cu978  O995    1.960   .     S
Cu978  N988    2.019   .     S
Cu978  O994    1.960   .     S
Cu978  O990    1.964   .     S
Cu978  O991    1.960   .     S
H979   C869    1.087   1_655 S
N997   H998    1.030   .     S
N997   C999    1.448   .     S
C999   H1002   1.111   .     S
C999   H1001   1.110   .     S
C999   H1000   1.111   .     S
N1003  H1004   1.031   .     S
N1003  C1005   1.448   .     S
C1005  H1006   1.111   .     S
C1005  H1008   1.111   .     S
C1005  H1007   1.110   .     S
C1009  O1037   1.294   .     A
C1009  C1020   1.448   .     S
C1009  O1039   1.293   .     A
C1010  O1038   1.296   .     A
C1010  C1019   1.448   .     S
C1010  O1040   1.292   .     A
C1011  O1043   1.289   .     A
C1011  O1041   1.290   .     A
C1011  C1013   1.434   .     S
C1012  O1044   1.290   .     A
C1012  O1042   1.289   .     A
C1012  C1014   1.433   .     S
C1013  C1110   1.332   1_455 S
C1013  H1123   1.087   1_455 S
C1014  C1061   1.332   .     S
C1014  H1076   1.085   .     S
C1015  C1020   1.401   .     A
C1015  H1029   1.083   .     S
C1016  H1030   1.084   .     S
C1016  C1019   1.402   .     A
C1016  C1162   1.384   .     S
C1017  C1019   1.399   .     A
C1017  H1031   1.082   .     S
C1017  C1159   1.384   .     S
C1018  C1020   1.400   .     A
C1018  H1032   1.083   .     S
C1021  N1036   1.361   .     A
C1021  H1033   1.081   .     S
C1022  N1035   1.362   .     A
C1022  H1034   1.081   .     S
C1022  C160    1.423   1_556 S
C1023  N1035   1.377   .     A
C1023  N1045   1.422   .     S
C1023  C157    1.425   1_556 S
C1024  N1036   1.375   .     A
C1024  N1051   1.420   .     S
Cu1025 O1044   1.960   .     S
Cu1025 Cu1026  2.687   .     S
Cu1025 O1041   1.960   .     S
Cu1025 N1035   2.019   .     S
Cu1025 O1037   1.964   .     S
Cu1025 O1040   1.960   .     S
Cu1026 O1043   1.960   .     S
Cu1026 N1036   2.019   .     S
Cu1026 O1042   1.960   .     S
Cu1026 O1038   1.964   .     S
Cu1026 O1039   1.960   .     S
H1027  C1061   1.087   .     S
H1028  C1110   1.085   1_455 S
N1045  H1046   1.030   .     S
N1045  C1047   1.448   .     S
C1047  H1050   1.111   .     S
C1047  H1049   1.110   .     S
C1047  H1048   1.111   .     S
N1051  H1052   1.031   .     S
N1051  C1053   1.448   .     S
C1053  H1054   1.111   .     S
C1053  H1056   1.111   .     S
C1053  H1055   1.110   .     S
C1057  O1085   1.294   .     A
C1057  C1068   1.448   .     S
C1057  O1087   1.293   .     A
C1058  O1086   1.296   .     A
C1058  C1067   1.448   .     S
C1058  O1088   1.292   .     A
C1059  O1091   1.289   .     A
C1059  O1089   1.290   .     A
C1059  C1061   1.434   .     S
C1060  O1092   1.290   .     A
C1060  O1090   1.289   .     A
C1060  C1062   1.433   .     S
C1062  C1109   1.332   .     S
C1062  H1124   1.085   .     S
C1063  C1068   1.401   .     A
C1063  H1077   1.083   .     S
C1064  H1078   1.084   .     S
C1064  C1067   1.402   .     A
C1064  C1210   1.384   .     S
C1065  C1067   1.399   .     A
C1065  H1079   1.082   .     S
C1065  C1207   1.384   .     S
C1066  C1068   1.400   .     A
C1066  H1080   1.083   .     S
C1069  N1084   1.361   .     A
C1069  H1081   1.081   .     S
C1070  N1083   1.362   .     A
C1070  H1082   1.081   .     S
C1070  C208    1.423   1_556 S
C1071  N1083   1.377   .     A
C1071  N1093   1.422   .     S
C1071  C205    1.425   1_556 S
C1072  N1084   1.375   .     A
C1072  N1099   1.420   .     S
Cu1073 O1092   1.960   .     S
Cu1073 Cu1074  2.687   .     S
Cu1073 O1089   1.960   .     S
Cu1073 N1083   2.019   .     S
Cu1073 O1085   1.964   .     S
Cu1073 O1088   1.960   .     S
Cu1074 O1091   1.960   .     S
Cu1074 N1084   2.019   .     S
Cu1074 O1090   1.960   .     S
Cu1074 O1086   1.964   .     S
Cu1074 O1087   1.960   .     S
H1075  C1109   1.087   .     S
N1093  H1094   1.030   .     S
N1093  C1095   1.448   .     S
C1095  H1098   1.111   .     S
C1095  H1097   1.110   .     S
C1095  H1096   1.111   .     S
N1099  H1100   1.031   .     S
N1099  C1101   1.448   .     S
C1101  H1102   1.111   .     S
C1101  H1104   1.111   .     S
C1101  H1103   1.110   .     S
C1105  O1133   1.294   .     A
C1105  C1116   1.448   .     S
C1105  O1135   1.293   .     A
C1106  O1134   1.296   .     A
C1106  C1115   1.448   .     S
C1106  O1136   1.292   .     A
C1107  O1139   1.289   .     A
C1107  O1137   1.290   .     A
C1107  C1109   1.434   .     S
C1108  O1140   1.290   .     A
C1108  O1138   1.289   .     A
C1108  C1110   1.433   .     S
C1110  C1013   1.332   1_655 S
C1110  H1028   1.085   1_655 S
C1111  C1116   1.401   .     A
C1111  H1125   1.083   .     S
C1112  H1126   1.084   .     S
C1112  C1115   1.402   .     A
C1112  C1258   1.384   .     S
C1113  C1115   1.399   .     A
C1113  H1127   1.082   .     S
C1113  C1255   1.384   .     S
C1114  C1116   1.400   .     A
C1114  H1128   1.083   .     S
C1117  N1132   1.361   .     A
C1117  H1129   1.081   .     S
C1118  N1131   1.362   .     A
C1118  H1130   1.081   .     S
C1118  C256    1.423   1_556 S
C1119  N1131   1.377   .     A
C1119  N1141   1.422   .     S
C1119  C253    1.425   1_556 S
C1120  N1132   1.375   .     A
C1120  N1147   1.420   .     S
Cu1121 O1140   1.960   .     S
Cu1121 Cu1122  2.687   .     S
Cu1121 O1137   1.960   .     S
Cu1121 N1131   2.019   .     S
Cu1121 O1133   1.964   .     S
Cu1121 O1136   1.960   .     S
Cu1122 O1139   1.960   .     S
Cu1122 N1132   2.019   .     S
Cu1122 O1138   1.960   .     S
Cu1122 O1134   1.964   .     S
Cu1122 O1135   1.960   .     S
H1123  C1013   1.087   1_655 S
N1141  H1142   1.030   .     S
N1141  C1143   1.448   .     S
C1143  H1146   1.111   .     S
C1143  H1145   1.110   .     S
C1143  H1144   1.111   .     S
N1147  H1148   1.031   .     S
N1147  C1149   1.448   .     S
C1149  H1150   1.111   .     S
C1149  H1152   1.111   .     S
C1149  H1151   1.110   .     S
C1153  O1181   1.294   .     A
C1153  C1164   1.448   .     S
C1153  O1183   1.293   .     A
C1154  O1182   1.296   .     A
C1154  C1163   1.448   .     S
C1154  O1184   1.292   .     A
C1155  O1187   1.289   .     A
C1155  O1185   1.290   .     A
C1155  C1157   1.434   .     S
C1156  O1188   1.290   .     A
C1156  O1186   1.289   .     A
C1156  C1158   1.433   .     S
C1157  C1254   1.332   1_455 S
C1157  H1267   1.087   1_455 S
C1158  C1205   1.332   .     S
C1158  H1220   1.085   .     S
C1159  C1164   1.401   .     A
C1159  H1173   1.083   .     S
C1160  H1174   1.084   .     S
C1160  C1163   1.402   .     A
C1160  C874    1.384   1_565 S
C1161  C1163   1.399   .     A
C1161  H1175   1.082   .     S
C1161  C871    1.384   1_565 S
C1162  C1164   1.400   .     A
C1162  H1176   1.083   .     S
C1165  N1180   1.361   .     A
C1165  H1177   1.081   .     S
C1166  N1179   1.362   .     A
C1166  H1178   1.081   .     S
C1166  C304    1.423   1_556 S
C1167  N1179   1.377   .     A
C1167  N1189   1.422   .     S
C1167  C301    1.425   1_556 S
C1168  N1180   1.375   .     A
C1168  N1195   1.420   .     S
Cu1169 O1188   1.960   .     S
Cu1169 Cu1170  2.687   .     S
Cu1169 O1185   1.960   .     S
Cu1169 N1179   2.019   .     S
Cu1169 O1181   1.964   .     S
Cu1169 O1184   1.960   .     S
Cu1170 O1187   1.960   .     S
Cu1170 N1180   2.019   .     S
Cu1170 O1186   1.960   .     S
Cu1170 O1182   1.964   .     S
Cu1170 O1183   1.960   .     S
H1171  C1205   1.087   .     S
H1172  C1254   1.085   1_455 S
N1189  H1190   1.030   .     S
N1189  C1191   1.448   .     S
C1191  H1194   1.111   .     S
C1191  H1193   1.110   .     S
C1191  H1192   1.111   .     S
N1195  H1196   1.031   .     S
N1195  C1197   1.448   .     S
C1197  H1198   1.111   .     S
C1197  H1200   1.111   .     S
C1197  H1199   1.110   .     S
C1201  O1229   1.294   .     A
C1201  C1212   1.448   .     S
C1201  O1231   1.293   .     A
C1202  O1230   1.296   .     A
C1202  C1211   1.448   .     S
C1202  O1232   1.292   .     A
C1203  O1235   1.289   .     A
C1203  O1233   1.290   .     A
C1203  C1205   1.434   .     S
C1204  O1236   1.290   .     A
C1204  O1234   1.289   .     A
C1204  C1206   1.433   .     S
C1206  C1253   1.332   .     S
C1206  H1268   1.085   .     S
C1207  C1212   1.401   .     A
C1207  H1221   1.083   .     S
C1208  H1222   1.084   .     S
C1208  C1211   1.402   .     A
C1208  C922    1.384   1_565 S
C1209  C1211   1.399   .     A
C1209  H1223   1.082   .     S
C1209  C919    1.384   1_565 S
C1210  C1212   1.400   .     A
C1210  H1224   1.083   .     S
C1213  N1228   1.361   .     A
C1213  H1225   1.081   .     S
C1214  N1227   1.362   .     A
C1214  H1226   1.081   .     S
C1214  C352    1.423   1_556 S
C1215  N1227   1.377   .     A
C1215  N1237   1.422   .     S
C1215  C349    1.425   1_556 S
C1216  N1228   1.375   .     A
C1216  N1243   1.420   .     S
Cu1217 O1236   1.960   .     S
Cu1217 Cu1218  2.687   .     S
Cu1217 O1233   1.960   .     S
Cu1217 N1227   2.019   .     S
Cu1217 O1229   1.964   .     S
Cu1217 O1232   1.960   .     S
Cu1218 O1235   1.960   .     S
Cu1218 N1228   2.019   .     S
Cu1218 O1234   1.960   .     S
Cu1218 O1230   1.964   .     S
Cu1218 O1231   1.960   .     S
H1219  C1253   1.087   .     S
N1237  H1238   1.030   .     S
N1237  C1239   1.448   .     S
C1239  H1242   1.111   .     S
C1239  H1241   1.110   .     S
C1239  H1240   1.111   .     S
N1243  H1244   1.031   .     S
N1243  C1245   1.448   .     S
C1245  H1246   1.111   .     S
C1245  H1248   1.111   .     S
C1245  H1247   1.110   .     S
C1249  O1277   1.294   .     A
C1249  C1260   1.448   .     S
C1249  O1279   1.293   .     A
C1250  O1278   1.296   .     A
C1250  C1259   1.448   .     S
C1250  O1280   1.292   .     A
C1251  O1283   1.289   .     A
C1251  O1281   1.290   .     A
C1251  C1253   1.434   .     S
C1252  O1284   1.290   .     A
C1252  O1282   1.289   .     A
C1252  C1254   1.433   .     S
C1254  C1157   1.332   1_655 S
C1254  H1172   1.085   1_655 S
C1255  C1260   1.401   .     A
C1255  H1269   1.083   .     S
C1256  H1270   1.084   .     S
C1256  C1259   1.402   .     A
C1256  C970    1.384   1_565 S
C1257  C1259   1.399   .     A
C1257  H1271   1.082   .     S
C1257  C967    1.384   1_565 S
C1258  C1260   1.400   .     A
C1258  H1272   1.083   .     S
C1261  N1276   1.361   .     A
C1261  H1273   1.081   .     S
C1262  N1275   1.362   .     A
C1262  H1274   1.081   .     S
C1262  C400    1.423   1_556 S
C1263  N1275   1.377   .     A
C1263  N1285   1.422   .     S
C1263  C397    1.425   1_556 S
C1264  N1276   1.375   .     A
C1264  N1291   1.420   .     S
Cu1265 O1284   1.960   .     S
Cu1265 Cu1266  2.687   .     S
Cu1265 O1281   1.960   .     S
Cu1265 N1275   2.019   .     S
Cu1265 O1277   1.964   .     S
Cu1265 O1280   1.960   .     S
Cu1266 O1283   1.960   .     S
Cu1266 N1276   2.019   .     S
Cu1266 O1282   1.960   .     S
Cu1266 O1278   1.964   .     S
Cu1266 O1279   1.960   .     S
H1267  C1157   1.087   1_655 S
N1285  H1286   1.030   .     S
N1285  C1287   1.448   .     S
C1287  H1290   1.111   .     S
C1287  H1289   1.110   .     S
C1287  H1288   1.111   .     S
N1291  H1292   1.031   .     S
N1291  C1293   1.448   .     S
C1293  H1294   1.111   .     S
C1293  H1296   1.111   .     S
C1293  H1295   1.110   .     S
