data_str_m2_o1_o16_pcu_sym.162
_audit_creation_date              2020-01-03
_audit_creation_method            'Materials Studio'
_symmetry_space_group_name_H-M    'P1'
_symmetry_Int_Tables_number       1
_symmetry_cell_setting            triclinic
loop_
_symmetry_equiv_pos_as_xyz
  x,y,z
_cell_length_a                    28.9582
_cell_length_b                    32.2766
_cell_length_c                    26.8068
_cell_angle_alpha                 92.5029
_cell_angle_beta                  72.6897
_cell_angle_gamma                 90.2185
loop_
_atom_site_label
_atom_site_type_symbol
_atom_site_fract_x
_atom_site_fract_y
_atom_site_fract_z
_atom_site_U_iso_or_equiv
_atom_site_adp_type
_atom_site_occupancy
C1     C     0.16666   0.24578   0.25041   0.00000  Uiso   1.00
C2     C     0.14749   0.16828   0.48935   0.00000  Uiso   1.00
C3     C     0.15501   0.18134   0.43789   0.00000  Uiso   1.00
C4     C     0.18220   0.17858   0.01593   0.00000  Uiso   1.00
C5     C     0.21590   0.21042   0.49656   0.00000  Uiso   1.00
C6     C     0.21840   0.22776   0.44855   0.00000  Uiso   1.00
C7     C     0.18972   0.21183   0.41884   0.00000  Uiso   1.00
C8     C     0.18458   0.15864   0.06127   0.00000  Uiso   1.00
C9     C     0.24136   0.21077   0.07552   0.00000  Uiso   1.00
C10    C     0.12528   0.16579   0.40798   0.00000  Uiso   1.00
C11    C     0.20285   0.31114   0.21540   0.00000  Uiso   1.00
C12    C     0.14057   0.16742   0.35021   0.00000  Uiso   1.00
C13    C     0.20200   0.02062   0.21577   0.00000  Uiso   1.00
C14    C     0.16550   0.04298   0.25316   0.00000  Uiso   1.00
C15    C     0.12931   0.02236   0.29123   0.00000  Uiso   1.00
C16    C     0.13030   0.31240   0.28970   0.00000  Uiso   1.00
C17    C     0.16655   0.29043   0.25169   0.00000  Uiso   1.00
C18    C     0.30207   0.19808   0.27500   0.00000  Uiso   1.00
C19    C     0.01751   0.19717   0.27696   0.00000  Uiso   1.00
C20    C     0.03231   0.13662   0.22239   0.00000  Uiso   1.00
C21    C     0.31603   0.13609   0.22294   0.00000  Uiso   1.00
C22    C     0.16622   0.08762   0.25120   0.00000  Uiso   1.00
C23    C     0.19281   0.16914   0.15041   0.00000  Uiso   1.00
C24    C     0.24666   0.22433   0.02542   0.00000  Uiso   1.00
C25    C     0.20800   0.17868   0.09467   0.00000  Uiso   1.00
C26    C     0.08259   0.14503   0.43314   0.00000  Uiso   1.00
C27    C     0.07064   0.13777   0.48664   0.00000  Uiso   1.00
C28    C     0.10348   0.14862   0.01412   0.00000  Uiso   1.00
Cu29   Cu    0.11978   0.16666   0.25000   0.00000  Uiso   1.00
Cu30   Cu    0.21355   0.16667   0.25000   0.00000  Uiso   1.00
H31    H     0.22930   0.03634   0.18615   0.00000  Uiso   1.00
H32    H     0.10395   0.29565   0.31908   0.00000  Uiso   1.00
H33    H     0.27331   0.24780   0.01027   0.00000  Uiso   1.00
H34    H     0.05882   0.13416   0.41096   0.00000  Uiso   1.00
H35    H     0.09364   0.14293   0.05547   0.00000  Uiso   1.00
H36    H     0.19131   0.22615   0.38282   0.00000  Uiso   1.00
H37    H     0.23120   0.29427   0.18619   0.00000  Uiso   1.00
N38    N     0.04931   0.16666   0.24998   0.00000  Uiso   1.00
N39    N     0.28402   0.16669   0.24999   0.00000  Uiso   1.00
O40    O     0.12708   0.22678   0.25000   0.00000  Uiso   1.00
O41    O     0.20627   0.22679   0.25000   0.00000  Uiso   1.00
O42    O     0.10775   0.16665   0.32549   0.00000  Uiso   1.00
O43    O     0.18694   0.16666   0.32549   0.00000  Uiso   1.00
O44    O     0.12706   0.10654   0.24999   0.00000  Uiso   1.00
O45    O     0.20625   0.10655   0.24999   0.00000  Uiso   1.00
O46    O     0.14640   0.16667   0.17451   0.00000  Uiso   1.00
O47    O     0.22559   0.16668   0.17451   0.00000  Uiso   1.00
C48    C     0.27060   0.23155   0.10654   0.00000  Uiso   1.00
H49    H     0.26188   0.22896   0.14826   0.00000  Uiso   1.00
O50    O     0.30541   0.25272   0.08543   0.00000  Uiso   1.00
C51    C     0.09195   0.04525   0.33370   0.00000  Uiso   1.00
H52    H     0.09393   0.07854   0.33954   0.00000  Uiso   1.00
O53    O     0.05848   0.02702   0.36323   0.00000  Uiso   1.00
C54    C     0.27317   0.23450   0.29658   0.00000  Uiso   1.00
N55    N     0.25151   0.26475   0.31284   0.00000  Uiso   1.00
C56    C     0.03369   0.22969   0.30852   0.00000  Uiso   1.00
H57    H     0.05139   0.22155   0.33696   0.00000  Uiso   1.00
O58    O     0.02736   0.26635   0.30282   0.00000  Uiso   1.00
C59    C     0.06518   0.10548   0.19103   0.00000  Uiso   1.00
N60    N     0.09054   0.07984   0.16595   0.00000  Uiso   1.00
C61    C     0.29999   0.10295   0.19205   0.00000  Uiso   1.00
H62    H     0.27841   0.11009   0.16692   0.00000  Uiso   1.00
O63    O     0.31088   0.06676   0.19454   0.00000  Uiso   1.00
C64    C     0.25011   0.26312   0.42894   0.00000  Uiso   1.00
H65    H     0.28064   0.25907   0.39414   0.00000  Uiso   1.00
O66    O     0.24245   0.29694   0.45221   0.00000  Uiso   1.00
C67    C     0.17324   0.11380   0.06879   0.00000  Uiso   1.00
H68    H     0.17273   0.10008   0.10508   0.00000  Uiso   1.00
O69    O     0.16868   0.09085   0.03316   0.00000  Uiso   1.00
C70    C     0.02441   0.11808   0.01430   0.00000  Uiso   1.00
H71    H     0.01629   0.11195   0.05551   0.00000  Uiso   1.00
O72    O     0.32806   0.10870   0.49164   0.00000  Uiso   1.00
C73    C     0.49999   0.24578   0.25041   0.00000  Uiso   1.00
C74    C     0.48082   0.16828   0.48935   0.00000  Uiso   1.00
C75    C     0.48834   0.18134   0.43789   0.00000  Uiso   1.00
C76    C     0.51554   0.17858   0.01593   0.00000  Uiso   1.00
C77    C     0.54923   0.21042   0.49656   0.00000  Uiso   1.00
C78    C     0.55173   0.22776   0.44855   0.00000  Uiso   1.00
C79    C     0.52305   0.21183   0.41884   0.00000  Uiso   1.00
C80    C     0.51791   0.15864   0.06127   0.00000  Uiso   1.00
C81    C     0.57469   0.21077   0.07552   0.00000  Uiso   1.00
C82    C     0.45861   0.16579   0.40798   0.00000  Uiso   1.00
C83    C     0.53619   0.31114   0.21540   0.00000  Uiso   1.00
C84    C     0.47390   0.16742   0.35021   0.00000  Uiso   1.00
C85    C     0.53534   0.02062   0.21577   0.00000  Uiso   1.00
C86    C     0.49883   0.04298   0.25316   0.00000  Uiso   1.00
C87    C     0.46264   0.02236   0.29123   0.00000  Uiso   1.00
C88    C     0.46363   0.31240   0.28970   0.00000  Uiso   1.00
C89    C     0.49988   0.29043   0.25169   0.00000  Uiso   1.00
C90    C     0.63540   0.19808   0.27500   0.00000  Uiso   1.00
C91    C     0.35084   0.19717   0.27696   0.00000  Uiso   1.00
C92    C     0.36565   0.13662   0.22239   0.00000  Uiso   1.00
C93    C     0.64937   0.13609   0.22294   0.00000  Uiso   1.00
C94    C     0.49955   0.08762   0.25120   0.00000  Uiso   1.00
C95    C     0.52615   0.16914   0.15041   0.00000  Uiso   1.00
C96    C     0.57999   0.22433   0.02542   0.00000  Uiso   1.00
C97    C     0.54133   0.17868   0.09467   0.00000  Uiso   1.00
C98    C     0.41592   0.14503   0.43314   0.00000  Uiso   1.00
C99    C     0.40397   0.13777   0.48664   0.00000  Uiso   1.00
C100   C     0.43682   0.14862   0.01412   0.00000  Uiso   1.00
Cu101  Cu    0.45311   0.16666   0.25000   0.00000  Uiso   1.00
Cu102  Cu    0.54689   0.16667   0.25000   0.00000  Uiso   1.00
H103   H     0.56263   0.03634   0.18615   0.00000  Uiso   1.00
H104   H     0.43728   0.29565   0.31908   0.00000  Uiso   1.00
H105   H     0.60664   0.24780   0.01027   0.00000  Uiso   1.00
H106   H     0.39216   0.13416   0.41096   0.00000  Uiso   1.00
H107   H     0.42697   0.14293   0.05547   0.00000  Uiso   1.00
H108   H     0.52464   0.22615   0.38282   0.00000  Uiso   1.00
H109   H     0.56453   0.29427   0.18619   0.00000  Uiso   1.00
N110   N     0.38265   0.16666   0.24998   0.00000  Uiso   1.00
N111   N     0.61735   0.16669   0.24999   0.00000  Uiso   1.00
O112   O     0.46042   0.22678   0.25000   0.00000  Uiso   1.00
O113   O     0.53961   0.22679   0.25000   0.00000  Uiso   1.00
O114   O     0.44108   0.16665   0.32549   0.00000  Uiso   1.00
O115   O     0.52027   0.16666   0.32549   0.00000  Uiso   1.00
O116   O     0.46039   0.10654   0.24999   0.00000  Uiso   1.00
O117   O     0.53958   0.10655   0.24999   0.00000  Uiso   1.00
O118   O     0.47973   0.16667   0.17451   0.00000  Uiso   1.00
O119   O     0.55892   0.16668   0.17451   0.00000  Uiso   1.00
C120   C     0.60393   0.23155   0.10654   0.00000  Uiso   1.00
H121   H     0.59522   0.22896   0.14826   0.00000  Uiso   1.00
O122   O     0.63874   0.25272   0.08543   0.00000  Uiso   1.00
C123   C     0.42529   0.04525   0.33370   0.00000  Uiso   1.00
H124   H     0.42727   0.07854   0.33954   0.00000  Uiso   1.00
O125   O     0.39182   0.02702   0.36323   0.00000  Uiso   1.00
C126   C     0.60650   0.23450   0.29658   0.00000  Uiso   1.00
N127   N     0.58484   0.26475   0.31284   0.00000  Uiso   1.00
C128   C     0.36702   0.22969   0.30852   0.00000  Uiso   1.00
H129   H     0.38472   0.22155   0.33696   0.00000  Uiso   1.00
O130   O     0.36069   0.26635   0.30282   0.00000  Uiso   1.00
C131   C     0.39851   0.10548   0.19103   0.00000  Uiso   1.00
N132   N     0.42388   0.07984   0.16595   0.00000  Uiso   1.00
C133   C     0.63332   0.10295   0.19205   0.00000  Uiso   1.00
H134   H     0.61175   0.11009   0.16692   0.00000  Uiso   1.00
O135   O     0.64422   0.06676   0.19454   0.00000  Uiso   1.00
C136   C     0.58344   0.26312   0.42894   0.00000  Uiso   1.00
H137   H     0.61398   0.25907   0.39414   0.00000  Uiso   1.00
O138   O     0.57578   0.29694   0.45221   0.00000  Uiso   1.00
C139   C     0.50657   0.11380   0.06879   0.00000  Uiso   1.00
H140   H     0.50607   0.10008   0.10508   0.00000  Uiso   1.00
O141   O     0.50201   0.09085   0.03316   0.00000  Uiso   1.00
C142   C     0.35774   0.11808   0.01430   0.00000  Uiso   1.00
H143   H     0.34962   0.11195   0.05551   0.00000  Uiso   1.00
O144   O     0.66140   0.10870   0.49164   0.00000  Uiso   1.00
C145   C     0.83333   0.24578   0.25041   0.00000  Uiso   1.00
C146   C     0.81415   0.16828   0.48935   0.00000  Uiso   1.00
C147   C     0.82167   0.18134   0.43789   0.00000  Uiso   1.00
C148   C     0.84887   0.17858   0.01593   0.00000  Uiso   1.00
C149   C     0.88256   0.21042   0.49656   0.00000  Uiso   1.00
C150   C     0.88506   0.22776   0.44855   0.00000  Uiso   1.00
C151   C     0.85638   0.21183   0.41884   0.00000  Uiso   1.00
C152   C     0.85125   0.15864   0.06127   0.00000  Uiso   1.00
C153   C     0.90802   0.21077   0.07552   0.00000  Uiso   1.00
C154   C     0.79195   0.16579   0.40798   0.00000  Uiso   1.00
C155   C     0.86952   0.31114   0.21540   0.00000  Uiso   1.00
C156   C     0.80724   0.16742   0.35021   0.00000  Uiso   1.00
C157   C     0.86867   0.02062   0.21577   0.00000  Uiso   1.00
C158   C     0.83217   0.04298   0.25316   0.00000  Uiso   1.00
C159   C     0.79598   0.02236   0.29123   0.00000  Uiso   1.00
C160   C     0.79697   0.31240   0.28970   0.00000  Uiso   1.00
C161   C     0.83321   0.29043   0.25169   0.00000  Uiso   1.00
C162   C     0.96874   0.19808   0.27500   0.00000  Uiso   1.00
C163   C     0.68417   0.19717   0.27696   0.00000  Uiso   1.00
C164   C     0.69898   0.13662   0.22239   0.00000  Uiso   1.00
C165   C     0.98270   0.13609   0.22294   0.00000  Uiso   1.00
C166   C     0.83289   0.08762   0.25120   0.00000  Uiso   1.00
C167   C     0.85948   0.16914   0.15041   0.00000  Uiso   1.00
C168   C     0.91332   0.22433   0.02542   0.00000  Uiso   1.00
C169   C     0.87467   0.17868   0.09467   0.00000  Uiso   1.00
C170   C     0.74925   0.14503   0.43314   0.00000  Uiso   1.00
C171   C     0.73730   0.13777   0.48664   0.00000  Uiso   1.00
C172   C     0.77015   0.14862   0.01412   0.00000  Uiso   1.00
Cu173  Cu    0.78645   0.16666   0.25000   0.00000  Uiso   1.00
Cu174  Cu    0.88022   0.16667   0.25000   0.00000  Uiso   1.00
H175   H     0.89597   0.03634   0.18615   0.00000  Uiso   1.00
H176   H     0.77062   0.29565   0.31908   0.00000  Uiso   1.00
H177   H     0.93998   0.24780   0.01027   0.00000  Uiso   1.00
H178   H     0.72549   0.13416   0.41096   0.00000  Uiso   1.00
H179   H     0.76031   0.14293   0.05547   0.00000  Uiso   1.00
H180   H     0.85798   0.22615   0.38282   0.00000  Uiso   1.00
H181   H     0.89786   0.29427   0.18619   0.00000  Uiso   1.00
N182   N     0.71598   0.16666   0.24998   0.00000  Uiso   1.00
N183   N     0.95069   0.16669   0.24999   0.00000  Uiso   1.00
O184   O     0.79375   0.22678   0.25000   0.00000  Uiso   1.00
O185   O     0.87294   0.22679   0.25000   0.00000  Uiso   1.00
O186   O     0.77441   0.16665   0.32549   0.00000  Uiso   1.00
O187   O     0.85360   0.16666   0.32549   0.00000  Uiso   1.00
O188   O     0.79373   0.10654   0.24999   0.00000  Uiso   1.00
O189   O     0.87292   0.10655   0.24999   0.00000  Uiso   1.00
O190   O     0.81306   0.16667   0.17451   0.00000  Uiso   1.00
O191   O     0.89225   0.16668   0.17451   0.00000  Uiso   1.00
C192   C     0.93726   0.23155   0.10654   0.00000  Uiso   1.00
H193   H     0.92855   0.22896   0.14826   0.00000  Uiso   1.00
O194   O     0.97208   0.25272   0.08543   0.00000  Uiso   1.00
C195   C     0.75862   0.04525   0.33370   0.00000  Uiso   1.00
H196   H     0.76060   0.07854   0.33954   0.00000  Uiso   1.00
O197   O     0.72515   0.02702   0.36323   0.00000  Uiso   1.00
C198   C     0.93984   0.23450   0.29658   0.00000  Uiso   1.00
N199   N     0.91817   0.26475   0.31284   0.00000  Uiso   1.00
C200   C     0.70036   0.22969   0.30852   0.00000  Uiso   1.00
H201   H     0.71806   0.22155   0.33696   0.00000  Uiso   1.00
O202   O     0.69402   0.26635   0.30282   0.00000  Uiso   1.00
C203   C     0.73184   0.10548   0.19103   0.00000  Uiso   1.00
N204   N     0.75721   0.07984   0.16595   0.00000  Uiso   1.00
C205   C     0.96665   0.10295   0.19205   0.00000  Uiso   1.00
H206   H     0.94508   0.11009   0.16692   0.00000  Uiso   1.00
O207   O     0.97755   0.06676   0.19454   0.00000  Uiso   1.00
C208   C     0.91678   0.26312   0.42894   0.00000  Uiso   1.00
H209   H     0.94731   0.25907   0.39414   0.00000  Uiso   1.00
O210   O     0.90912   0.29694   0.45221   0.00000  Uiso   1.00
C211   C     0.83991   0.11380   0.06879   0.00000  Uiso   1.00
H212   H     0.83940   0.10008   0.10508   0.00000  Uiso   1.00
O213   O     0.83534   0.09085   0.03316   0.00000  Uiso   1.00
C214   C     0.69107   0.11808   0.01430   0.00000  Uiso   1.00
H215   H     0.68295   0.11195   0.05551   0.00000  Uiso   1.00
O216   O     0.99473   0.10870   0.49164   0.00000  Uiso   1.00
C217   C     0.16666   0.57911   0.25041   0.00000  Uiso   1.00
C218   C     0.14749   0.50162   0.48935   0.00000  Uiso   1.00
C219   C     0.15501   0.51467   0.43789   0.00000  Uiso   1.00
C220   C     0.18220   0.51192   0.01593   0.00000  Uiso   1.00
C221   C     0.21590   0.54375   0.49656   0.00000  Uiso   1.00
C222   C     0.21840   0.56109   0.44855   0.00000  Uiso   1.00
C223   C     0.18972   0.54516   0.41884   0.00000  Uiso   1.00
C224   C     0.18458   0.49197   0.06127   0.00000  Uiso   1.00
C225   C     0.24136   0.54411   0.07552   0.00000  Uiso   1.00
C226   C     0.12528   0.49912   0.40798   0.00000  Uiso   1.00
C227   C     0.20285   0.64447   0.21540   0.00000  Uiso   1.00
C228   C     0.14057   0.50076   0.35021   0.00000  Uiso   1.00
C229   C     0.20200   0.35396   0.21577   0.00000  Uiso   1.00
C230   C     0.16550   0.37632   0.25316   0.00000  Uiso   1.00
C231   C     0.12931   0.35569   0.29123   0.00000  Uiso   1.00
C232   C     0.13030   0.64573   0.28970   0.00000  Uiso   1.00
C233   C     0.16655   0.62377   0.25169   0.00000  Uiso   1.00
C234   C     0.30207   0.53142   0.27500   0.00000  Uiso   1.00
C235   C     0.01751   0.53051   0.27696   0.00000  Uiso   1.00
C236   C     0.03231   0.46996   0.22239   0.00000  Uiso   1.00
C237   C     0.31603   0.46943   0.22294   0.00000  Uiso   1.00
C238   C     0.16622   0.42096   0.25120   0.00000  Uiso   1.00
C239   C     0.19281   0.50247   0.15041   0.00000  Uiso   1.00
C240   C     0.24666   0.55766   0.02542   0.00000  Uiso   1.00
C241   C     0.20800   0.51201   0.09467   0.00000  Uiso   1.00
C242   C     0.08259   0.47836   0.43314   0.00000  Uiso   1.00
C243   C     0.07064   0.47111   0.48664   0.00000  Uiso   1.00
C244   C     0.10348   0.48195   0.01412   0.00000  Uiso   1.00
Cu245  Cu    0.11978   0.49999   0.25000   0.00000  Uiso   1.00
Cu246  Cu    0.21355   0.50001   0.25000   0.00000  Uiso   1.00
H247   H     0.22930   0.36967   0.18615   0.00000  Uiso   1.00
H248   H     0.10395   0.62898   0.31908   0.00000  Uiso   1.00
H249   H     0.27331   0.58113   0.01027   0.00000  Uiso   1.00
H250   H     0.05882   0.46749   0.41096   0.00000  Uiso   1.00
H251   H     0.09364   0.47626   0.05547   0.00000  Uiso   1.00
H252   H     0.19131   0.55948   0.38282   0.00000  Uiso   1.00
H253   H     0.23120   0.62760   0.18619   0.00000  Uiso   1.00
N254   N     0.04931   0.49999   0.24998   0.00000  Uiso   1.00
N255   N     0.28402   0.50002   0.24999   0.00000  Uiso   1.00
O256   O     0.12708   0.56011   0.25000   0.00000  Uiso   1.00
O257   O     0.20627   0.56012   0.25000   0.00000  Uiso   1.00
O258   O     0.10775   0.49998   0.32549   0.00000  Uiso   1.00
O259   O     0.18694   0.49999   0.32549   0.00000  Uiso   1.00
O260   O     0.12706   0.43988   0.24999   0.00000  Uiso   1.00
O261   O     0.20625   0.43989   0.24999   0.00000  Uiso   1.00
O262   O     0.14640   0.50001   0.17451   0.00000  Uiso   1.00
O263   O     0.22559   0.50002   0.17451   0.00000  Uiso   1.00
C264   C     0.27060   0.56488   0.10654   0.00000  Uiso   1.00
H265   H     0.26188   0.56229   0.14826   0.00000  Uiso   1.00
O266   O     0.30541   0.58605   0.08543   0.00000  Uiso   1.00
C267   C     0.09195   0.37858   0.33370   0.00000  Uiso   1.00
H268   H     0.09393   0.41187   0.33954   0.00000  Uiso   1.00
O269   O     0.05848   0.36035   0.36323   0.00000  Uiso   1.00
C270   C     0.27317   0.56783   0.29658   0.00000  Uiso   1.00
N271   N     0.25151   0.59808   0.31284   0.00000  Uiso   1.00
C272   C     0.03369   0.56302   0.30852   0.00000  Uiso   1.00
H273   H     0.05139   0.55489   0.33696   0.00000  Uiso   1.00
O274   O     0.02736   0.59968   0.30282   0.00000  Uiso   1.00
C275   C     0.06518   0.43881   0.19103   0.00000  Uiso   1.00
N276   N     0.09054   0.41317   0.16595   0.00000  Uiso   1.00
C277   C     0.29999   0.43629   0.19205   0.00000  Uiso   1.00
H278   H     0.27841   0.44342   0.16692   0.00000  Uiso   1.00
O279   O     0.31088   0.40009   0.19454   0.00000  Uiso   1.00
C280   C     0.25011   0.59645   0.42894   0.00000  Uiso   1.00
H281   H     0.28064   0.59241   0.39414   0.00000  Uiso   1.00
O282   O     0.24245   0.63027   0.45221   0.00000  Uiso   1.00
C283   C     0.17324   0.44713   0.06879   0.00000  Uiso   1.00
H284   H     0.17273   0.43341   0.10508   0.00000  Uiso   1.00
O285   O     0.16868   0.42418   0.03316   0.00000  Uiso   1.00
C286   C     0.02441   0.45142   0.01430   0.00000  Uiso   1.00
H287   H     0.01629   0.44529   0.05551   0.00000  Uiso   1.00
O288   O     0.32806   0.44204   0.49164   0.00000  Uiso   1.00
C289   C     0.49999   0.57911   0.25041   0.00000  Uiso   1.00
C290   C     0.48082   0.50162   0.48935   0.00000  Uiso   1.00
C291   C     0.48834   0.51467   0.43789   0.00000  Uiso   1.00
C292   C     0.51554   0.51192   0.01593   0.00000  Uiso   1.00
C293   C     0.54923   0.54375   0.49656   0.00000  Uiso   1.00
C294   C     0.55173   0.56109   0.44855   0.00000  Uiso   1.00
C295   C     0.52305   0.54516   0.41884   0.00000  Uiso   1.00
C296   C     0.51791   0.49197   0.06127   0.00000  Uiso   1.00
C297   C     0.57469   0.54411   0.07552   0.00000  Uiso   1.00
C298   C     0.45861   0.49912   0.40798   0.00000  Uiso   1.00
C299   C     0.53619   0.64447   0.21540   0.00000  Uiso   1.00
C300   C     0.47390   0.50076   0.35021   0.00000  Uiso   1.00
C301   C     0.53534   0.35396   0.21577   0.00000  Uiso   1.00
C302   C     0.49883   0.37632   0.25316   0.00000  Uiso   1.00
C303   C     0.46264   0.35569   0.29123   0.00000  Uiso   1.00
C304   C     0.46363   0.64573   0.28970   0.00000  Uiso   1.00
C305   C     0.49988   0.62377   0.25169   0.00000  Uiso   1.00
C306   C     0.63540   0.53142   0.27500   0.00000  Uiso   1.00
C307   C     0.35084   0.53051   0.27696   0.00000  Uiso   1.00
C308   C     0.36565   0.46996   0.22239   0.00000  Uiso   1.00
C309   C     0.64937   0.46943   0.22294   0.00000  Uiso   1.00
C310   C     0.49955   0.42096   0.25120   0.00000  Uiso   1.00
C311   C     0.52615   0.50247   0.15041   0.00000  Uiso   1.00
C312   C     0.57999   0.55766   0.02542   0.00000  Uiso   1.00
C313   C     0.54133   0.51201   0.09467   0.00000  Uiso   1.00
C314   C     0.41592   0.47836   0.43314   0.00000  Uiso   1.00
C315   C     0.40397   0.47111   0.48664   0.00000  Uiso   1.00
C316   C     0.43682   0.48195   0.01412   0.00000  Uiso   1.00
Cu317  Cu    0.45311   0.49999   0.25000   0.00000  Uiso   1.00
Cu318  Cu    0.54689   0.50001   0.25000   0.00000  Uiso   1.00
H319   H     0.56263   0.36967   0.18615   0.00000  Uiso   1.00
H320   H     0.43728   0.62898   0.31908   0.00000  Uiso   1.00
H321   H     0.60664   0.58113   0.01027   0.00000  Uiso   1.00
H322   H     0.39216   0.46749   0.41096   0.00000  Uiso   1.00
H323   H     0.42697   0.47626   0.05547   0.00000  Uiso   1.00
H324   H     0.52464   0.55948   0.38282   0.00000  Uiso   1.00
H325   H     0.56453   0.62760   0.18619   0.00000  Uiso   1.00
N326   N     0.38265   0.49999   0.24998   0.00000  Uiso   1.00
N327   N     0.61735   0.50002   0.24999   0.00000  Uiso   1.00
O328   O     0.46042   0.56011   0.25000   0.00000  Uiso   1.00
O329   O     0.53961   0.56012   0.25000   0.00000  Uiso   1.00
O330   O     0.44108   0.49998   0.32549   0.00000  Uiso   1.00
O331   O     0.52027   0.49999   0.32549   0.00000  Uiso   1.00
O332   O     0.46039   0.43988   0.24999   0.00000  Uiso   1.00
O333   O     0.53958   0.43989   0.24999   0.00000  Uiso   1.00
O334   O     0.47973   0.50001   0.17451   0.00000  Uiso   1.00
O335   O     0.55892   0.50002   0.17451   0.00000  Uiso   1.00
C336   C     0.60393   0.56488   0.10654   0.00000  Uiso   1.00
H337   H     0.59522   0.56229   0.14826   0.00000  Uiso   1.00
O338   O     0.63874   0.58605   0.08543   0.00000  Uiso   1.00
C339   C     0.42529   0.37858   0.33370   0.00000  Uiso   1.00
H340   H     0.42727   0.41187   0.33954   0.00000  Uiso   1.00
O341   O     0.39182   0.36035   0.36323   0.00000  Uiso   1.00
C342   C     0.60650   0.56783   0.29658   0.00000  Uiso   1.00
N343   N     0.58484   0.59808   0.31284   0.00000  Uiso   1.00
C344   C     0.36702   0.56302   0.30852   0.00000  Uiso   1.00
H345   H     0.38472   0.55489   0.33696   0.00000  Uiso   1.00
O346   O     0.36069   0.59968   0.30282   0.00000  Uiso   1.00
C347   C     0.39851   0.43881   0.19103   0.00000  Uiso   1.00
N348   N     0.42388   0.41317   0.16595   0.00000  Uiso   1.00
C349   C     0.63332   0.43629   0.19205   0.00000  Uiso   1.00
H350   H     0.61175   0.44342   0.16692   0.00000  Uiso   1.00
O351   O     0.64422   0.40009   0.19454   0.00000  Uiso   1.00
C352   C     0.58344   0.59645   0.42894   0.00000  Uiso   1.00
H353   H     0.61398   0.59241   0.39414   0.00000  Uiso   1.00
O354   O     0.57578   0.63027   0.45221   0.00000  Uiso   1.00
C355   C     0.50657   0.44713   0.06879   0.00000  Uiso   1.00
H356   H     0.50607   0.43341   0.10508   0.00000  Uiso   1.00
O357   O     0.50201   0.42418   0.03316   0.00000  Uiso   1.00
C358   C     0.35774   0.45142   0.01430   0.00000  Uiso   1.00
H359   H     0.34962   0.44529   0.05551   0.00000  Uiso   1.00
O360   O     0.66140   0.44204   0.49164   0.00000  Uiso   1.00
C361   C     0.83333   0.57911   0.25041   0.00000  Uiso   1.00
C362   C     0.81415   0.50162   0.48935   0.00000  Uiso   1.00
C363   C     0.82167   0.51467   0.43789   0.00000  Uiso   1.00
C364   C     0.84887   0.51192   0.01593   0.00000  Uiso   1.00
C365   C     0.88256   0.54375   0.49656   0.00000  Uiso   1.00
C366   C     0.88506   0.56109   0.44855   0.00000  Uiso   1.00
C367   C     0.85638   0.54516   0.41884   0.00000  Uiso   1.00
C368   C     0.85125   0.49197   0.06127   0.00000  Uiso   1.00
C369   C     0.90802   0.54411   0.07552   0.00000  Uiso   1.00
C370   C     0.79195   0.49912   0.40798   0.00000  Uiso   1.00
C371   C     0.86952   0.64447   0.21540   0.00000  Uiso   1.00
C372   C     0.80724   0.50076   0.35021   0.00000  Uiso   1.00
C373   C     0.86867   0.35396   0.21577   0.00000  Uiso   1.00
C374   C     0.83217   0.37632   0.25316   0.00000  Uiso   1.00
C375   C     0.79598   0.35569   0.29123   0.00000  Uiso   1.00
C376   C     0.79697   0.64573   0.28970   0.00000  Uiso   1.00
C377   C     0.83321   0.62377   0.25169   0.00000  Uiso   1.00
C378   C     0.96874   0.53142   0.27500   0.00000  Uiso   1.00
C379   C     0.68417   0.53051   0.27696   0.00000  Uiso   1.00
C380   C     0.69898   0.46996   0.22239   0.00000  Uiso   1.00
C381   C     0.98270   0.46943   0.22294   0.00000  Uiso   1.00
C382   C     0.83289   0.42096   0.25120   0.00000  Uiso   1.00
C383   C     0.85948   0.50247   0.15041   0.00000  Uiso   1.00
C384   C     0.91332   0.55766   0.02542   0.00000  Uiso   1.00
C385   C     0.87467   0.51201   0.09467   0.00000  Uiso   1.00
C386   C     0.74925   0.47836   0.43314   0.00000  Uiso   1.00
C387   C     0.73730   0.47111   0.48664   0.00000  Uiso   1.00
C388   C     0.77015   0.48195   0.01412   0.00000  Uiso   1.00
Cu389  Cu    0.78645   0.49999   0.25000   0.00000  Uiso   1.00
Cu390  Cu    0.88022   0.50001   0.25000   0.00000  Uiso   1.00
H391   H     0.89597   0.36967   0.18615   0.00000  Uiso   1.00
H392   H     0.77062   0.62898   0.31908   0.00000  Uiso   1.00
H393   H     0.93998   0.58113   0.01027   0.00000  Uiso   1.00
H394   H     0.72549   0.46749   0.41096   0.00000  Uiso   1.00
H395   H     0.76031   0.47626   0.05547   0.00000  Uiso   1.00
H396   H     0.85798   0.55948   0.38282   0.00000  Uiso   1.00
H397   H     0.89786   0.62760   0.18619   0.00000  Uiso   1.00
N398   N     0.71598   0.49999   0.24998   0.00000  Uiso   1.00
N399   N     0.95069   0.50002   0.24999   0.00000  Uiso   1.00
O400   O     0.79375   0.56011   0.25000   0.00000  Uiso   1.00
O401   O     0.87294   0.56012   0.25000   0.00000  Uiso   1.00
O402   O     0.77441   0.49998   0.32549   0.00000  Uiso   1.00
O403   O     0.85360   0.49999   0.32549   0.00000  Uiso   1.00
O404   O     0.79373   0.43988   0.24999   0.00000  Uiso   1.00
O405   O     0.87292   0.43989   0.24999   0.00000  Uiso   1.00
O406   O     0.81306   0.50001   0.17451   0.00000  Uiso   1.00
O407   O     0.89225   0.50002   0.17451   0.00000  Uiso   1.00
C408   C     0.93726   0.56488   0.10654   0.00000  Uiso   1.00
H409   H     0.92855   0.56229   0.14826   0.00000  Uiso   1.00
O410   O     0.97208   0.58605   0.08543   0.00000  Uiso   1.00
C411   C     0.75862   0.37858   0.33370   0.00000  Uiso   1.00
H412   H     0.76060   0.41187   0.33954   0.00000  Uiso   1.00
O413   O     0.72515   0.36035   0.36323   0.00000  Uiso   1.00
C414   C     0.93984   0.56783   0.29658   0.00000  Uiso   1.00
N415   N     0.91817   0.59808   0.31284   0.00000  Uiso   1.00
C416   C     0.70036   0.56302   0.30852   0.00000  Uiso   1.00
H417   H     0.71806   0.55489   0.33696   0.00000  Uiso   1.00
O418   O     0.69402   0.59968   0.30282   0.00000  Uiso   1.00
C419   C     0.73184   0.43881   0.19103   0.00000  Uiso   1.00
N420   N     0.75721   0.41317   0.16595   0.00000  Uiso   1.00
C421   C     0.96665   0.43629   0.19205   0.00000  Uiso   1.00
H422   H     0.94508   0.44342   0.16692   0.00000  Uiso   1.00
O423   O     0.97755   0.40009   0.19454   0.00000  Uiso   1.00
C424   C     0.91678   0.59645   0.42894   0.00000  Uiso   1.00
H425   H     0.94731   0.59241   0.39414   0.00000  Uiso   1.00
O426   O     0.90912   0.63027   0.45221   0.00000  Uiso   1.00
C427   C     0.83991   0.44713   0.06879   0.00000  Uiso   1.00
H428   H     0.83940   0.43341   0.10508   0.00000  Uiso   1.00
O429   O     0.83534   0.42418   0.03316   0.00000  Uiso   1.00
C430   C     0.69107   0.45142   0.01430   0.00000  Uiso   1.00
H431   H     0.68295   0.44529   0.05551   0.00000  Uiso   1.00
O432   O     0.99473   0.44204   0.49164   0.00000  Uiso   1.00
C433   C     0.16666   0.91245   0.25041   0.00000  Uiso   1.00
C434   C     0.14749   0.83495   0.48935   0.00000  Uiso   1.00
C435   C     0.15501   0.84801   0.43789   0.00000  Uiso   1.00
C436   C     0.18220   0.84525   0.01593   0.00000  Uiso   1.00
C437   C     0.21590   0.87708   0.49656   0.00000  Uiso   1.00
C438   C     0.21840   0.89443   0.44855   0.00000  Uiso   1.00
C439   C     0.18972   0.87849   0.41884   0.00000  Uiso   1.00
C440   C     0.18458   0.82530   0.06127   0.00000  Uiso   1.00
C441   C     0.24136   0.87744   0.07552   0.00000  Uiso   1.00
C442   C     0.12528   0.83246   0.40798   0.00000  Uiso   1.00
C443   C     0.20285   0.97781   0.21540   0.00000  Uiso   1.00
C444   C     0.14057   0.83409   0.35021   0.00000  Uiso   1.00
C445   C     0.20200   0.68729   0.21577   0.00000  Uiso   1.00
C446   C     0.16550   0.70965   0.25316   0.00000  Uiso   1.00
C447   C     0.12931   0.68903   0.29123   0.00000  Uiso   1.00
C448   C     0.13030   0.97906   0.28970   0.00000  Uiso   1.00
C449   C     0.16655   0.95710   0.25169   0.00000  Uiso   1.00
C450   C     0.30207   0.86475   0.27500   0.00000  Uiso   1.00
C451   C     0.01751   0.86384   0.27696   0.00000  Uiso   1.00
C452   C     0.03231   0.80329   0.22239   0.00000  Uiso   1.00
C453   C     0.31603   0.80276   0.22294   0.00000  Uiso   1.00
C454   C     0.16622   0.75429   0.25120   0.00000  Uiso   1.00
C455   C     0.19281   0.83581   0.15041   0.00000  Uiso   1.00
C456   C     0.24666   0.89099   0.02542   0.00000  Uiso   1.00
C457   C     0.20800   0.84534   0.09467   0.00000  Uiso   1.00
C458   C     0.08259   0.81170   0.43314   0.00000  Uiso   1.00
C459   C     0.07064   0.80444   0.48664   0.00000  Uiso   1.00
C460   C     0.10348   0.81528   0.01412   0.00000  Uiso   1.00
Cu461  Cu    0.11978   0.83333   0.25000   0.00000  Uiso   1.00
Cu462  Cu    0.21355   0.83334   0.25000   0.00000  Uiso   1.00
H463   H     0.22930   0.70301   0.18615   0.00000  Uiso   1.00
H464   H     0.10395   0.96231   0.31908   0.00000  Uiso   1.00
H465   H     0.27331   0.91446   0.01027   0.00000  Uiso   1.00
H466   H     0.05882   0.80083   0.41096   0.00000  Uiso   1.00
H467   H     0.09364   0.80959   0.05547   0.00000  Uiso   1.00
H468   H     0.19131   0.89282   0.38282   0.00000  Uiso   1.00
H469   H     0.23120   0.96093   0.18619   0.00000  Uiso   1.00
N470   N     0.04931   0.83332   0.24998   0.00000  Uiso   1.00
N471   N     0.28402   0.83335   0.24999   0.00000  Uiso   1.00
O472   O     0.12708   0.89345   0.25000   0.00000  Uiso   1.00
O473   O     0.20627   0.89346   0.25000   0.00000  Uiso   1.00
O474   O     0.10775   0.83332   0.32549   0.00000  Uiso   1.00
O475   O     0.18694   0.83333   0.32549   0.00000  Uiso   1.00
O476   O     0.12706   0.77321   0.24999   0.00000  Uiso   1.00
O477   O     0.20625   0.77322   0.24999   0.00000  Uiso   1.00
O478   O     0.14640   0.83334   0.17451   0.00000  Uiso   1.00
O479   O     0.22559   0.83335   0.17451   0.00000  Uiso   1.00
C480   C     0.27060   0.89821   0.10654   0.00000  Uiso   1.00
H481   H     0.26188   0.89562   0.14826   0.00000  Uiso   1.00
O482   O     0.30541   0.91938   0.08543   0.00000  Uiso   1.00
C483   C     0.09195   0.71191   0.33370   0.00000  Uiso   1.00
H484   H     0.09393   0.74520   0.33954   0.00000  Uiso   1.00
O485   O     0.05848   0.69369   0.36323   0.00000  Uiso   1.00
C486   C     0.27317   0.90116   0.29658   0.00000  Uiso   1.00
N487   N     0.25151   0.93142   0.31284   0.00000  Uiso   1.00
C488   C     0.03369   0.89636   0.30852   0.00000  Uiso   1.00
H489   H     0.05139   0.88822   0.33696   0.00000  Uiso   1.00
O490   O     0.02736   0.93301   0.30282   0.00000  Uiso   1.00
C491   C     0.06518   0.77214   0.19103   0.00000  Uiso   1.00
N492   N     0.09054   0.74651   0.16595   0.00000  Uiso   1.00
C493   C     0.29999   0.76962   0.19205   0.00000  Uiso   1.00
H494   H     0.27841   0.77676   0.16692   0.00000  Uiso   1.00
O495   O     0.31088   0.73342   0.19454   0.00000  Uiso   1.00
C496   C     0.25011   0.92978   0.42894   0.00000  Uiso   1.00
H497   H     0.28064   0.92574   0.39414   0.00000  Uiso   1.00
O498   O     0.24245   0.96360   0.45221   0.00000  Uiso   1.00
C499   C     0.17324   0.78047   0.06879   0.00000  Uiso   1.00
H500   H     0.17273   0.76674   0.10508   0.00000  Uiso   1.00
O501   O     0.16868   0.75751   0.03316   0.00000  Uiso   1.00
C502   C     0.02441   0.78475   0.01430   0.00000  Uiso   1.00
H503   H     0.01629   0.77862   0.05551   0.00000  Uiso   1.00
O504   O     0.32806   0.77537   0.49164   0.00000  Uiso   1.00
C505   C     0.49999   0.91245   0.25041   0.00000  Uiso   1.00
C506   C     0.48082   0.83495   0.48935   0.00000  Uiso   1.00
C507   C     0.48834   0.84801   0.43789   0.00000  Uiso   1.00
C508   C     0.51554   0.84525   0.01593   0.00000  Uiso   1.00
C509   C     0.54923   0.87708   0.49656   0.00000  Uiso   1.00
C510   C     0.55173   0.89443   0.44855   0.00000  Uiso   1.00
C511   C     0.52305   0.87849   0.41884   0.00000  Uiso   1.00
C512   C     0.51791   0.82530   0.06127   0.00000  Uiso   1.00
C513   C     0.57469   0.87744   0.07552   0.00000  Uiso   1.00
C514   C     0.45861   0.83246   0.40798   0.00000  Uiso   1.00
C515   C     0.53619   0.97781   0.21540   0.00000  Uiso   1.00
C516   C     0.47390   0.83409   0.35021   0.00000  Uiso   1.00
C517   C     0.53534   0.68729   0.21577   0.00000  Uiso   1.00
C518   C     0.49883   0.70965   0.25316   0.00000  Uiso   1.00
C519   C     0.46264   0.68903   0.29123   0.00000  Uiso   1.00
C520   C     0.46363   0.97906   0.28970   0.00000  Uiso   1.00
C521   C     0.49988   0.95710   0.25169   0.00000  Uiso   1.00
C522   C     0.63540   0.86475   0.27500   0.00000  Uiso   1.00
C523   C     0.35084   0.86384   0.27696   0.00000  Uiso   1.00
C524   C     0.36565   0.80329   0.22239   0.00000  Uiso   1.00
C525   C     0.64937   0.80276   0.22294   0.00000  Uiso   1.00
C526   C     0.49955   0.75429   0.25120   0.00000  Uiso   1.00
C527   C     0.52615   0.83581   0.15041   0.00000  Uiso   1.00
C528   C     0.57999   0.89099   0.02542   0.00000  Uiso   1.00
C529   C     0.54133   0.84534   0.09467   0.00000  Uiso   1.00
C530   C     0.41592   0.81170   0.43314   0.00000  Uiso   1.00
C531   C     0.40397   0.80444   0.48664   0.00000  Uiso   1.00
C532   C     0.43682   0.81528   0.01412   0.00000  Uiso   1.00
Cu533  Cu    0.45311   0.83333   0.25000   0.00000  Uiso   1.00
Cu534  Cu    0.54689   0.83334   0.25000   0.00000  Uiso   1.00
H535   H     0.56263   0.70301   0.18615   0.00000  Uiso   1.00
H536   H     0.43728   0.96231   0.31908   0.00000  Uiso   1.00
H537   H     0.60664   0.91446   0.01027   0.00000  Uiso   1.00
H538   H     0.39216   0.80083   0.41096   0.00000  Uiso   1.00
H539   H     0.42697   0.80959   0.05547   0.00000  Uiso   1.00
H540   H     0.52464   0.89282   0.38282   0.00000  Uiso   1.00
H541   H     0.56453   0.96093   0.18619   0.00000  Uiso   1.00
N542   N     0.38265   0.83332   0.24998   0.00000  Uiso   1.00
N543   N     0.61735   0.83335   0.24999   0.00000  Uiso   1.00
O544   O     0.46042   0.89345   0.25000   0.00000  Uiso   1.00
O545   O     0.53961   0.89346   0.25000   0.00000  Uiso   1.00
O546   O     0.44108   0.83332   0.32549   0.00000  Uiso   1.00
O547   O     0.52027   0.83333   0.32549   0.00000  Uiso   1.00
O548   O     0.46039   0.77321   0.24999   0.00000  Uiso   1.00
O549   O     0.53958   0.77322   0.24999   0.00000  Uiso   1.00
O550   O     0.47973   0.83334   0.17451   0.00000  Uiso   1.00
O551   O     0.55892   0.83335   0.17451   0.00000  Uiso   1.00
C552   C     0.60393   0.89821   0.10654   0.00000  Uiso   1.00
H553   H     0.59522   0.89562   0.14826   0.00000  Uiso   1.00
O554   O     0.63874   0.91938   0.08543   0.00000  Uiso   1.00
C555   C     0.42529   0.71191   0.33370   0.00000  Uiso   1.00
H556   H     0.42727   0.74520   0.33954   0.00000  Uiso   1.00
O557   O     0.39182   0.69369   0.36323   0.00000  Uiso   1.00
C558   C     0.60650   0.90116   0.29658   0.00000  Uiso   1.00
N559   N     0.58484   0.93142   0.31284   0.00000  Uiso   1.00
C560   C     0.36702   0.89636   0.30852   0.00000  Uiso   1.00
H561   H     0.38472   0.88822   0.33696   0.00000  Uiso   1.00
O562   O     0.36069   0.93301   0.30282   0.00000  Uiso   1.00
C563   C     0.39851   0.77214   0.19103   0.00000  Uiso   1.00
N564   N     0.42388   0.74651   0.16595   0.00000  Uiso   1.00
C565   C     0.63332   0.76962   0.19205   0.00000  Uiso   1.00
H566   H     0.61175   0.77676   0.16692   0.00000  Uiso   1.00
O567   O     0.64422   0.73342   0.19454   0.00000  Uiso   1.00
C568   C     0.58344   0.92978   0.42894   0.00000  Uiso   1.00
H569   H     0.61398   0.92574   0.39414   0.00000  Uiso   1.00
O570   O     0.57578   0.96360   0.45221   0.00000  Uiso   1.00
C571   C     0.50657   0.78047   0.06879   0.00000  Uiso   1.00
H572   H     0.50607   0.76674   0.10508   0.00000  Uiso   1.00
O573   O     0.50201   0.75751   0.03316   0.00000  Uiso   1.00
C574   C     0.35774   0.78475   0.01430   0.00000  Uiso   1.00
H575   H     0.34962   0.77862   0.05551   0.00000  Uiso   1.00
O576   O     0.66140   0.77537   0.49164   0.00000  Uiso   1.00
C577   C     0.83333   0.91245   0.25041   0.00000  Uiso   1.00
C578   C     0.81415   0.83495   0.48935   0.00000  Uiso   1.00
C579   C     0.82167   0.84801   0.43789   0.00000  Uiso   1.00
C580   C     0.84887   0.84525   0.01593   0.00000  Uiso   1.00
C581   C     0.88256   0.87708   0.49656   0.00000  Uiso   1.00
C582   C     0.88506   0.89443   0.44855   0.00000  Uiso   1.00
C583   C     0.85638   0.87849   0.41884   0.00000  Uiso   1.00
C584   C     0.85125   0.82530   0.06127   0.00000  Uiso   1.00
C585   C     0.90802   0.87744   0.07552   0.00000  Uiso   1.00
C586   C     0.79195   0.83246   0.40798   0.00000  Uiso   1.00
C587   C     0.86952   0.97781   0.21540   0.00000  Uiso   1.00
C588   C     0.80724   0.83409   0.35021   0.00000  Uiso   1.00
C589   C     0.86867   0.68729   0.21577   0.00000  Uiso   1.00
C590   C     0.83217   0.70965   0.25316   0.00000  Uiso   1.00
C591   C     0.79598   0.68903   0.29123   0.00000  Uiso   1.00
C592   C     0.79697   0.97906   0.28970   0.00000  Uiso   1.00
C593   C     0.83321   0.95710   0.25169   0.00000  Uiso   1.00
C594   C     0.96874   0.86475   0.27500   0.00000  Uiso   1.00
C595   C     0.68417   0.86384   0.27696   0.00000  Uiso   1.00
C596   C     0.69898   0.80329   0.22239   0.00000  Uiso   1.00
C597   C     0.98270   0.80276   0.22294   0.00000  Uiso   1.00
C598   C     0.83289   0.75429   0.25120   0.00000  Uiso   1.00
C599   C     0.85948   0.83581   0.15041   0.00000  Uiso   1.00
C600   C     0.91332   0.89099   0.02542   0.00000  Uiso   1.00
C601   C     0.87467   0.84534   0.09467   0.00000  Uiso   1.00
C602   C     0.74925   0.81170   0.43314   0.00000  Uiso   1.00
C603   C     0.73730   0.80444   0.48664   0.00000  Uiso   1.00
C604   C     0.77015   0.81528   0.01412   0.00000  Uiso   1.00
Cu605  Cu    0.78645   0.83333   0.25000   0.00000  Uiso   1.00
Cu606  Cu    0.88022   0.83334   0.25000   0.00000  Uiso   1.00
H607   H     0.89597   0.70301   0.18615   0.00000  Uiso   1.00
H608   H     0.77062   0.96231   0.31908   0.00000  Uiso   1.00
H609   H     0.93998   0.91446   0.01027   0.00000  Uiso   1.00
H610   H     0.72549   0.80083   0.41096   0.00000  Uiso   1.00
H611   H     0.76031   0.80959   0.05547   0.00000  Uiso   1.00
H612   H     0.85798   0.89282   0.38282   0.00000  Uiso   1.00
H613   H     0.89786   0.96093   0.18619   0.00000  Uiso   1.00
N614   N     0.71598   0.83332   0.24998   0.00000  Uiso   1.00
N615   N     0.95069   0.83335   0.24999   0.00000  Uiso   1.00
O616   O     0.79375   0.89345   0.25000   0.00000  Uiso   1.00
O617   O     0.87294   0.89346   0.25000   0.00000  Uiso   1.00
O618   O     0.77441   0.83332   0.32549   0.00000  Uiso   1.00
O619   O     0.85360   0.83333   0.32549   0.00000  Uiso   1.00
O620   O     0.79373   0.77321   0.24999   0.00000  Uiso   1.00
O621   O     0.87292   0.77322   0.24999   0.00000  Uiso   1.00
O622   O     0.81306   0.83334   0.17451   0.00000  Uiso   1.00
O623   O     0.89225   0.83335   0.17451   0.00000  Uiso   1.00
C624   C     0.93726   0.89821   0.10654   0.00000  Uiso   1.00
H625   H     0.92855   0.89562   0.14826   0.00000  Uiso   1.00
O626   O     0.97208   0.91938   0.08543   0.00000  Uiso   1.00
C627   C     0.75862   0.71191   0.33370   0.00000  Uiso   1.00
H628   H     0.76060   0.74520   0.33954   0.00000  Uiso   1.00
O629   O     0.72515   0.69369   0.36323   0.00000  Uiso   1.00
C630   C     0.93984   0.90116   0.29658   0.00000  Uiso   1.00
N631   N     0.91817   0.93142   0.31284   0.00000  Uiso   1.00
C632   C     0.70036   0.89636   0.30852   0.00000  Uiso   1.00
H633   H     0.71806   0.88822   0.33696   0.00000  Uiso   1.00
O634   O     0.69402   0.93301   0.30282   0.00000  Uiso   1.00
C635   C     0.73184   0.77214   0.19103   0.00000  Uiso   1.00
N636   N     0.75721   0.74651   0.16595   0.00000  Uiso   1.00
C637   C     0.96665   0.76962   0.19205   0.00000  Uiso   1.00
H638   H     0.94508   0.77676   0.16692   0.00000  Uiso   1.00
O639   O     0.97755   0.73342   0.19454   0.00000  Uiso   1.00
C640   C     0.91678   0.92978   0.42894   0.00000  Uiso   1.00
H641   H     0.94731   0.92574   0.39414   0.00000  Uiso   1.00
O642   O     0.90912   0.96360   0.45221   0.00000  Uiso   1.00
C643   C     0.83991   0.78047   0.06879   0.00000  Uiso   1.00
H644   H     0.83940   0.76674   0.10508   0.00000  Uiso   1.00
O645   O     0.83534   0.75751   0.03316   0.00000  Uiso   1.00
C646   C     0.69107   0.78475   0.01430   0.00000  Uiso   1.00
H647   H     0.68295   0.77862   0.05551   0.00000  Uiso   1.00
O648   O     0.99473   0.77537   0.49164   0.00000  Uiso   1.00
C649   C     0.16666   0.24578   0.75041   0.00000  Uiso   1.00
C650   C     0.14749   0.16828   0.98935   0.00000  Uiso   1.00
C651   C     0.15501   0.18134   0.93789   0.00000  Uiso   1.00
C652   C     0.18220   0.17858   0.51593   0.00000  Uiso   1.00
C653   C     0.21590   0.21042   0.99656   0.00000  Uiso   1.00
C654   C     0.21840   0.22776   0.94855   0.00000  Uiso   1.00
C655   C     0.18972   0.21183   0.91884   0.00000  Uiso   1.00
C656   C     0.18458   0.15864   0.56127   0.00000  Uiso   1.00
C657   C     0.24136   0.21077   0.57552   0.00000  Uiso   1.00
C658   C     0.12528   0.16579   0.90798   0.00000  Uiso   1.00
C659   C     0.20285   0.31114   0.71540   0.00000  Uiso   1.00
C660   C     0.14057   0.16742   0.85021   0.00000  Uiso   1.00
C661   C     0.20200   0.02062   0.71577   0.00000  Uiso   1.00
C662   C     0.16550   0.04298   0.75316   0.00000  Uiso   1.00
C663   C     0.12931   0.02236   0.79123   0.00000  Uiso   1.00
C664   C     0.13030   0.31240   0.78970   0.00000  Uiso   1.00
C665   C     0.16655   0.29043   0.75169   0.00000  Uiso   1.00
C666   C     0.30207   0.19808   0.77500   0.00000  Uiso   1.00
C667   C     0.01751   0.19717   0.77696   0.00000  Uiso   1.00
C668   C     0.03231   0.13662   0.72239   0.00000  Uiso   1.00
C669   C     0.31603   0.13609   0.72294   0.00000  Uiso   1.00
C670   C     0.16622   0.08762   0.75120   0.00000  Uiso   1.00
C671   C     0.19281   0.16914   0.65041   0.00000  Uiso   1.00
C672   C     0.24666   0.22433   0.52542   0.00000  Uiso   1.00
C673   C     0.20800   0.17868   0.59467   0.00000  Uiso   1.00
C674   C     0.08259   0.14503   0.93314   0.00000  Uiso   1.00
C675   C     0.07064   0.13777   0.98664   0.00000  Uiso   1.00
C676   C     0.10348   0.14862   0.51412   0.00000  Uiso   1.00
Cu677  Cu    0.11978   0.16666   0.75000   0.00000  Uiso   1.00
Cu678  Cu    0.21355   0.16667   0.75000   0.00000  Uiso   1.00
H679   H     0.22930   0.03634   0.68615   0.00000  Uiso   1.00
H680   H     0.10395   0.29565   0.81908   0.00000  Uiso   1.00
H681   H     0.27331   0.24780   0.51027   0.00000  Uiso   1.00
H682   H     0.05882   0.13416   0.91096   0.00000  Uiso   1.00
H683   H     0.09364   0.14293   0.55547   0.00000  Uiso   1.00
H684   H     0.19131   0.22615   0.88282   0.00000  Uiso   1.00
H685   H     0.23120   0.29427   0.68619   0.00000  Uiso   1.00
N686   N     0.04931   0.16666   0.74998   0.00000  Uiso   1.00
N687   N     0.28402   0.16669   0.74999   0.00000  Uiso   1.00
O688   O     0.12708   0.22678   0.75000   0.00000  Uiso   1.00
O689   O     0.20627   0.22679   0.75000   0.00000  Uiso   1.00
O690   O     0.10775   0.16665   0.82549   0.00000  Uiso   1.00
O691   O     0.18694   0.16666   0.82549   0.00000  Uiso   1.00
O692   O     0.12706   0.10654   0.74999   0.00000  Uiso   1.00
O693   O     0.20625   0.10655   0.74999   0.00000  Uiso   1.00
O694   O     0.14640   0.16667   0.67451   0.00000  Uiso   1.00
O695   O     0.22559   0.16668   0.67451   0.00000  Uiso   1.00
C696   C     0.27060   0.23155   0.60654   0.00000  Uiso   1.00
H697   H     0.26188   0.22896   0.64826   0.00000  Uiso   1.00
O698   O     0.30541   0.25272   0.58543   0.00000  Uiso   1.00
C699   C     0.09195   0.04525   0.83370   0.00000  Uiso   1.00
H700   H     0.09393   0.07854   0.83954   0.00000  Uiso   1.00
O701   O     0.05848   0.02702   0.86323   0.00000  Uiso   1.00
C702   C     0.27317   0.23450   0.79658   0.00000  Uiso   1.00
N703   N     0.25151   0.26475   0.81284   0.00000  Uiso   1.00
C704   C     0.03369   0.22969   0.80852   0.00000  Uiso   1.00
H705   H     0.05139   0.22155   0.83696   0.00000  Uiso   1.00
O706   O     0.02736   0.26635   0.80282   0.00000  Uiso   1.00
C707   C     0.06518   0.10548   0.69103   0.00000  Uiso   1.00
N708   N     0.09054   0.07984   0.66595   0.00000  Uiso   1.00
C709   C     0.29999   0.10295   0.69205   0.00000  Uiso   1.00
H710   H     0.27841   0.11009   0.66692   0.00000  Uiso   1.00
O711   O     0.31088   0.06676   0.69454   0.00000  Uiso   1.00
C712   C     0.25011   0.26312   0.92894   0.00000  Uiso   1.00
H713   H     0.28064   0.25907   0.89414   0.00000  Uiso   1.00
O714   O     0.24245   0.29694   0.95221   0.00000  Uiso   1.00
C715   C     0.17324   0.11380   0.56879   0.00000  Uiso   1.00
H716   H     0.17273   0.10008   0.60508   0.00000  Uiso   1.00
O717   O     0.16868   0.09085   0.53316   0.00000  Uiso   1.00
C718   C     0.02441   0.11808   0.51430   0.00000  Uiso   1.00
H719   H     0.01629   0.11195   0.55551   0.00000  Uiso   1.00
O720   O     0.32806   0.10870   0.99164   0.00000  Uiso   1.00
C721   C     0.49999   0.24578   0.75041   0.00000  Uiso   1.00
C722   C     0.48082   0.16828   0.98935   0.00000  Uiso   1.00
C723   C     0.48834   0.18134   0.93789   0.00000  Uiso   1.00
C724   C     0.51554   0.17858   0.51593   0.00000  Uiso   1.00
C725   C     0.54923   0.21042   0.99656   0.00000  Uiso   1.00
C726   C     0.55173   0.22776   0.94855   0.00000  Uiso   1.00
C727   C     0.52305   0.21183   0.91884   0.00000  Uiso   1.00
C728   C     0.51791   0.15864   0.56127   0.00000  Uiso   1.00
C729   C     0.57469   0.21077   0.57552   0.00000  Uiso   1.00
C730   C     0.45861   0.16579   0.90798   0.00000  Uiso   1.00
C731   C     0.53619   0.31114   0.71540   0.00000  Uiso   1.00
C732   C     0.47390   0.16742   0.85021   0.00000  Uiso   1.00
C733   C     0.53534   0.02062   0.71577   0.00000  Uiso   1.00
C734   C     0.49883   0.04298   0.75316   0.00000  Uiso   1.00
C735   C     0.46264   0.02236   0.79123   0.00000  Uiso   1.00
C736   C     0.46363   0.31240   0.78970   0.00000  Uiso   1.00
C737   C     0.49988   0.29043   0.75169   0.00000  Uiso   1.00
C738   C     0.63540   0.19808   0.77500   0.00000  Uiso   1.00
C739   C     0.35084   0.19717   0.77696   0.00000  Uiso   1.00
C740   C     0.36565   0.13662   0.72239   0.00000  Uiso   1.00
C741   C     0.64937   0.13609   0.72294   0.00000  Uiso   1.00
C742   C     0.49955   0.08762   0.75120   0.00000  Uiso   1.00
C743   C     0.52615   0.16914   0.65041   0.00000  Uiso   1.00
C744   C     0.57999   0.22433   0.52542   0.00000  Uiso   1.00
C745   C     0.54133   0.17868   0.59467   0.00000  Uiso   1.00
C746   C     0.41592   0.14503   0.93314   0.00000  Uiso   1.00
C747   C     0.40397   0.13777   0.98664   0.00000  Uiso   1.00
C748   C     0.43682   0.14862   0.51412   0.00000  Uiso   1.00
Cu749  Cu    0.45311   0.16666   0.75000   0.00000  Uiso   1.00
Cu750  Cu    0.54689   0.16667   0.75000   0.00000  Uiso   1.00
H751   H     0.56263   0.03634   0.68615   0.00000  Uiso   1.00
H752   H     0.43728   0.29565   0.81908   0.00000  Uiso   1.00
H753   H     0.60664   0.24780   0.51027   0.00000  Uiso   1.00
H754   H     0.39216   0.13416   0.91096   0.00000  Uiso   1.00
H755   H     0.42697   0.14293   0.55547   0.00000  Uiso   1.00
H756   H     0.52464   0.22615   0.88282   0.00000  Uiso   1.00
H757   H     0.56453   0.29427   0.68619   0.00000  Uiso   1.00
N758   N     0.38265   0.16666   0.74998   0.00000  Uiso   1.00
N759   N     0.61735   0.16669   0.74999   0.00000  Uiso   1.00
O760   O     0.46042   0.22678   0.75000   0.00000  Uiso   1.00
O761   O     0.53961   0.22679   0.75000   0.00000  Uiso   1.00
O762   O     0.44108   0.16665   0.82549   0.00000  Uiso   1.00
O763   O     0.52027   0.16666   0.82549   0.00000  Uiso   1.00
O764   O     0.46039   0.10654   0.74999   0.00000  Uiso   1.00
O765   O     0.53958   0.10655   0.74999   0.00000  Uiso   1.00
O766   O     0.47973   0.16667   0.67451   0.00000  Uiso   1.00
O767   O     0.55892   0.16668   0.67451   0.00000  Uiso   1.00
C768   C     0.60393   0.23155   0.60654   0.00000  Uiso   1.00
H769   H     0.59522   0.22896   0.64826   0.00000  Uiso   1.00
O770   O     0.63874   0.25272   0.58543   0.00000  Uiso   1.00
C771   C     0.42529   0.04525   0.83370   0.00000  Uiso   1.00
H772   H     0.42727   0.07854   0.83954   0.00000  Uiso   1.00
O773   O     0.39182   0.02702   0.86323   0.00000  Uiso   1.00
C774   C     0.60650   0.23450   0.79658   0.00000  Uiso   1.00
N775   N     0.58484   0.26475   0.81284   0.00000  Uiso   1.00
C776   C     0.36702   0.22969   0.80852   0.00000  Uiso   1.00
H777   H     0.38472   0.22155   0.83696   0.00000  Uiso   1.00
O778   O     0.36069   0.26635   0.80282   0.00000  Uiso   1.00
C779   C     0.39851   0.10548   0.69103   0.00000  Uiso   1.00
N780   N     0.42388   0.07984   0.66595   0.00000  Uiso   1.00
C781   C     0.63332   0.10295   0.69205   0.00000  Uiso   1.00
H782   H     0.61175   0.11009   0.66692   0.00000  Uiso   1.00
O783   O     0.64422   0.06676   0.69454   0.00000  Uiso   1.00
C784   C     0.58344   0.26312   0.92894   0.00000  Uiso   1.00
H785   H     0.61398   0.25907   0.89414   0.00000  Uiso   1.00
O786   O     0.57578   0.29694   0.95221   0.00000  Uiso   1.00
C787   C     0.50657   0.11380   0.56879   0.00000  Uiso   1.00
H788   H     0.50607   0.10008   0.60508   0.00000  Uiso   1.00
O789   O     0.50201   0.09085   0.53316   0.00000  Uiso   1.00
C790   C     0.35774   0.11808   0.51430   0.00000  Uiso   1.00
H791   H     0.34962   0.11195   0.55551   0.00000  Uiso   1.00
O792   O     0.66140   0.10870   0.99164   0.00000  Uiso   1.00
C793   C     0.83333   0.24578   0.75041   0.00000  Uiso   1.00
C794   C     0.81415   0.16828   0.98935   0.00000  Uiso   1.00
C795   C     0.82167   0.18134   0.93789   0.00000  Uiso   1.00
C796   C     0.84887   0.17858   0.51593   0.00000  Uiso   1.00
C797   C     0.88256   0.21042   0.99656   0.00000  Uiso   1.00
C798   C     0.88506   0.22776   0.94855   0.00000  Uiso   1.00
C799   C     0.85638   0.21183   0.91884   0.00000  Uiso   1.00
C800   C     0.85125   0.15864   0.56127   0.00000  Uiso   1.00
C801   C     0.90802   0.21077   0.57552   0.00000  Uiso   1.00
C802   C     0.79195   0.16579   0.90798   0.00000  Uiso   1.00
C803   C     0.86952   0.31114   0.71540   0.00000  Uiso   1.00
C804   C     0.80724   0.16742   0.85021   0.00000  Uiso   1.00
C805   C     0.86867   0.02062   0.71577   0.00000  Uiso   1.00
C806   C     0.83217   0.04298   0.75316   0.00000  Uiso   1.00
C807   C     0.79598   0.02236   0.79123   0.00000  Uiso   1.00
C808   C     0.79697   0.31240   0.78970   0.00000  Uiso   1.00
C809   C     0.83321   0.29043   0.75169   0.00000  Uiso   1.00
C810   C     0.96874   0.19808   0.77500   0.00000  Uiso   1.00
C811   C     0.68417   0.19717   0.77696   0.00000  Uiso   1.00
C812   C     0.69898   0.13662   0.72239   0.00000  Uiso   1.00
C813   C     0.98270   0.13609   0.72294   0.00000  Uiso   1.00
C814   C     0.83289   0.08762   0.75120   0.00000  Uiso   1.00
C815   C     0.85948   0.16914   0.65041   0.00000  Uiso   1.00
C816   C     0.91332   0.22433   0.52542   0.00000  Uiso   1.00
C817   C     0.87467   0.17868   0.59467   0.00000  Uiso   1.00
C818   C     0.74925   0.14503   0.93314   0.00000  Uiso   1.00
C819   C     0.73730   0.13777   0.98664   0.00000  Uiso   1.00
C820   C     0.77015   0.14862   0.51412   0.00000  Uiso   1.00
Cu821  Cu    0.78645   0.16666   0.75000   0.00000  Uiso   1.00
Cu822  Cu    0.88022   0.16667   0.75000   0.00000  Uiso   1.00
H823   H     0.89597   0.03634   0.68615   0.00000  Uiso   1.00
H824   H     0.77062   0.29565   0.81908   0.00000  Uiso   1.00
H825   H     0.93998   0.24780   0.51027   0.00000  Uiso   1.00
H826   H     0.72549   0.13416   0.91096   0.00000  Uiso   1.00
H827   H     0.76031   0.14293   0.55547   0.00000  Uiso   1.00
H828   H     0.85798   0.22615   0.88282   0.00000  Uiso   1.00
H829   H     0.89786   0.29427   0.68619   0.00000  Uiso   1.00
N830   N     0.71598   0.16666   0.74998   0.00000  Uiso   1.00
N831   N     0.95069   0.16669   0.74999   0.00000  Uiso   1.00
O832   O     0.79375   0.22678   0.75000   0.00000  Uiso   1.00
O833   O     0.87294   0.22679   0.75000   0.00000  Uiso   1.00
O834   O     0.77441   0.16665   0.82549   0.00000  Uiso   1.00
O835   O     0.85360   0.16666   0.82549   0.00000  Uiso   1.00
O836   O     0.79373   0.10654   0.74999   0.00000  Uiso   1.00
O837   O     0.87292   0.10655   0.74999   0.00000  Uiso   1.00
O838   O     0.81306   0.16667   0.67451   0.00000  Uiso   1.00
O839   O     0.89225   0.16668   0.67451   0.00000  Uiso   1.00
C840   C     0.93726   0.23155   0.60654   0.00000  Uiso   1.00
H841   H     0.92855   0.22896   0.64826   0.00000  Uiso   1.00
O842   O     0.97208   0.25272   0.58543   0.00000  Uiso   1.00
C843   C     0.75862   0.04525   0.83370   0.00000  Uiso   1.00
H844   H     0.76060   0.07854   0.83954   0.00000  Uiso   1.00
O845   O     0.72515   0.02702   0.86323   0.00000  Uiso   1.00
C846   C     0.93984   0.23450   0.79658   0.00000  Uiso   1.00
N847   N     0.91817   0.26475   0.81284   0.00000  Uiso   1.00
C848   C     0.70036   0.22969   0.80852   0.00000  Uiso   1.00
H849   H     0.71806   0.22155   0.83696   0.00000  Uiso   1.00
O850   O     0.69402   0.26635   0.80282   0.00000  Uiso   1.00
C851   C     0.73184   0.10548   0.69103   0.00000  Uiso   1.00
N852   N     0.75721   0.07984   0.66595   0.00000  Uiso   1.00
C853   C     0.96665   0.10295   0.69205   0.00000  Uiso   1.00
H854   H     0.94508   0.11009   0.66692   0.00000  Uiso   1.00
O855   O     0.97755   0.06676   0.69454   0.00000  Uiso   1.00
C856   C     0.91678   0.26312   0.92894   0.00000  Uiso   1.00
H857   H     0.94731   0.25907   0.89414   0.00000  Uiso   1.00
O858   O     0.90912   0.29694   0.95221   0.00000  Uiso   1.00
C859   C     0.83991   0.11380   0.56879   0.00000  Uiso   1.00
H860   H     0.83940   0.10008   0.60508   0.00000  Uiso   1.00
O861   O     0.83534   0.09085   0.53316   0.00000  Uiso   1.00
C862   C     0.69107   0.11808   0.51430   0.00000  Uiso   1.00
H863   H     0.68295   0.11195   0.55551   0.00000  Uiso   1.00
O864   O     0.99473   0.10870   0.99164   0.00000  Uiso   1.00
C865   C     0.16666   0.57911   0.75041   0.00000  Uiso   1.00
C866   C     0.14749   0.50162   0.98935   0.00000  Uiso   1.00
C867   C     0.15501   0.51467   0.93789   0.00000  Uiso   1.00
C868   C     0.18220   0.51192   0.51593   0.00000  Uiso   1.00
C869   C     0.21590   0.54375   0.99656   0.00000  Uiso   1.00
C870   C     0.21840   0.56109   0.94855   0.00000  Uiso   1.00
C871   C     0.18972   0.54516   0.91884   0.00000  Uiso   1.00
C872   C     0.18458   0.49197   0.56127   0.00000  Uiso   1.00
C873   C     0.24136   0.54411   0.57552   0.00000  Uiso   1.00
C874   C     0.12528   0.49912   0.90798   0.00000  Uiso   1.00
C875   C     0.20285   0.64447   0.71540   0.00000  Uiso   1.00
C876   C     0.14057   0.50076   0.85021   0.00000  Uiso   1.00
C877   C     0.20200   0.35396   0.71577   0.00000  Uiso   1.00
C878   C     0.16550   0.37632   0.75316   0.00000  Uiso   1.00
C879   C     0.12931   0.35569   0.79123   0.00000  Uiso   1.00
C880   C     0.13030   0.64573   0.78970   0.00000  Uiso   1.00
C881   C     0.16655   0.62377   0.75169   0.00000  Uiso   1.00
C882   C     0.30207   0.53142   0.77500   0.00000  Uiso   1.00
C883   C     0.01751   0.53051   0.77696   0.00000  Uiso   1.00
C884   C     0.03231   0.46996   0.72239   0.00000  Uiso   1.00
C885   C     0.31603   0.46943   0.72294   0.00000  Uiso   1.00
C886   C     0.16622   0.42096   0.75120   0.00000  Uiso   1.00
C887   C     0.19281   0.50247   0.65041   0.00000  Uiso   1.00
C888   C     0.24666   0.55766   0.52542   0.00000  Uiso   1.00
C889   C     0.20800   0.51201   0.59467   0.00000  Uiso   1.00
C890   C     0.08259   0.47836   0.93314   0.00000  Uiso   1.00
C891   C     0.07064   0.47111   0.98664   0.00000  Uiso   1.00
C892   C     0.10348   0.48195   0.51412   0.00000  Uiso   1.00
Cu893  Cu    0.11978   0.49999   0.75000   0.00000  Uiso   1.00
Cu894  Cu    0.21355   0.50001   0.75000   0.00000  Uiso   1.00
H895   H     0.22930   0.36967   0.68615   0.00000  Uiso   1.00
H896   H     0.10395   0.62898   0.81908   0.00000  Uiso   1.00
H897   H     0.27331   0.58113   0.51027   0.00000  Uiso   1.00
H898   H     0.05882   0.46749   0.91096   0.00000  Uiso   1.00
H899   H     0.09364   0.47626   0.55547   0.00000  Uiso   1.00
H900   H     0.19131   0.55948   0.88282   0.00000  Uiso   1.00
H901   H     0.23120   0.62760   0.68619   0.00000  Uiso   1.00
N902   N     0.04931   0.49999   0.74998   0.00000  Uiso   1.00
N903   N     0.28402   0.50002   0.74999   0.00000  Uiso   1.00
O904   O     0.12708   0.56011   0.75000   0.00000  Uiso   1.00
O905   O     0.20627   0.56012   0.75000   0.00000  Uiso   1.00
O906   O     0.10775   0.49998   0.82549   0.00000  Uiso   1.00
O907   O     0.18694   0.49999   0.82549   0.00000  Uiso   1.00
O908   O     0.12706   0.43988   0.74999   0.00000  Uiso   1.00
O909   O     0.20625   0.43989   0.74999   0.00000  Uiso   1.00
O910   O     0.14640   0.50001   0.67451   0.00000  Uiso   1.00
O911   O     0.22559   0.50002   0.67451   0.00000  Uiso   1.00
C912   C     0.27060   0.56488   0.60654   0.00000  Uiso   1.00
H913   H     0.26188   0.56229   0.64826   0.00000  Uiso   1.00
O914   O     0.30541   0.58605   0.58543   0.00000  Uiso   1.00
C915   C     0.09195   0.37858   0.83370   0.00000  Uiso   1.00
H916   H     0.09393   0.41187   0.83954   0.00000  Uiso   1.00
O917   O     0.05848   0.36035   0.86323   0.00000  Uiso   1.00
C918   C     0.27317   0.56783   0.79658   0.00000  Uiso   1.00
N919   N     0.25151   0.59808   0.81284   0.00000  Uiso   1.00
C920   C     0.03369   0.56302   0.80852   0.00000  Uiso   1.00
H921   H     0.05139   0.55489   0.83696   0.00000  Uiso   1.00
O922   O     0.02736   0.59968   0.80282   0.00000  Uiso   1.00
C923   C     0.06518   0.43881   0.69103   0.00000  Uiso   1.00
N924   N     0.09054   0.41317   0.66595   0.00000  Uiso   1.00
C925   C     0.29999   0.43629   0.69205   0.00000  Uiso   1.00
H926   H     0.27841   0.44342   0.66692   0.00000  Uiso   1.00
O927   O     0.31088   0.40009   0.69454   0.00000  Uiso   1.00
C928   C     0.25011   0.59645   0.92894   0.00000  Uiso   1.00
H929   H     0.28064   0.59241   0.89414   0.00000  Uiso   1.00
O930   O     0.24245   0.63027   0.95221   0.00000  Uiso   1.00
C931   C     0.17324   0.44713   0.56879   0.00000  Uiso   1.00
H932   H     0.17273   0.43341   0.60508   0.00000  Uiso   1.00
O933   O     0.16868   0.42418   0.53316   0.00000  Uiso   1.00
C934   C     0.02441   0.45142   0.51430   0.00000  Uiso   1.00
H935   H     0.01629   0.44529   0.55551   0.00000  Uiso   1.00
O936   O     0.32806   0.44204   0.99164   0.00000  Uiso   1.00
C937   C     0.49999   0.57911   0.75041   0.00000  Uiso   1.00
C938   C     0.48082   0.50162   0.98935   0.00000  Uiso   1.00
C939   C     0.48834   0.51467   0.93789   0.00000  Uiso   1.00
C940   C     0.51554   0.51192   0.51593   0.00000  Uiso   1.00
C941   C     0.54923   0.54375   0.99656   0.00000  Uiso   1.00
C942   C     0.55173   0.56109   0.94855   0.00000  Uiso   1.00
C943   C     0.52305   0.54516   0.91884   0.00000  Uiso   1.00
C944   C     0.51791   0.49197   0.56127   0.00000  Uiso   1.00
C945   C     0.57469   0.54411   0.57552   0.00000  Uiso   1.00
C946   C     0.45861   0.49912   0.90798   0.00000  Uiso   1.00
C947   C     0.53619   0.64447   0.71540   0.00000  Uiso   1.00
C948   C     0.47390   0.50076   0.85021   0.00000  Uiso   1.00
C949   C     0.53534   0.35396   0.71577   0.00000  Uiso   1.00
C950   C     0.49883   0.37632   0.75316   0.00000  Uiso   1.00
C951   C     0.46264   0.35569   0.79123   0.00000  Uiso   1.00
C952   C     0.46363   0.64573   0.78970   0.00000  Uiso   1.00
C953   C     0.49988   0.62377   0.75169   0.00000  Uiso   1.00
C954   C     0.63540   0.53142   0.77500   0.00000  Uiso   1.00
C955   C     0.35084   0.53051   0.77696   0.00000  Uiso   1.00
C956   C     0.36565   0.46996   0.72239   0.00000  Uiso   1.00
C957   C     0.64937   0.46943   0.72294   0.00000  Uiso   1.00
C958   C     0.49955   0.42096   0.75120   0.00000  Uiso   1.00
C959   C     0.52615   0.50247   0.65041   0.00000  Uiso   1.00
C960   C     0.57999   0.55766   0.52542   0.00000  Uiso   1.00
C961   C     0.54133   0.51201   0.59467   0.00000  Uiso   1.00
C962   C     0.41592   0.47836   0.93314   0.00000  Uiso   1.00
C963   C     0.40397   0.47111   0.98664   0.00000  Uiso   1.00
C964   C     0.43682   0.48195   0.51412   0.00000  Uiso   1.00
Cu965  Cu    0.45311   0.49999   0.75000   0.00000  Uiso   1.00
Cu966  Cu    0.54689   0.50001   0.75000   0.00000  Uiso   1.00
H967   H     0.56263   0.36967   0.68615   0.00000  Uiso   1.00
H968   H     0.43728   0.62898   0.81908   0.00000  Uiso   1.00
H969   H     0.60664   0.58113   0.51027   0.00000  Uiso   1.00
H970   H     0.39216   0.46749   0.91096   0.00000  Uiso   1.00
H971   H     0.42697   0.47626   0.55547   0.00000  Uiso   1.00
H972   H     0.52464   0.55948   0.88282   0.00000  Uiso   1.00
H973   H     0.56453   0.62760   0.68619   0.00000  Uiso   1.00
N974   N     0.38265   0.49999   0.74998   0.00000  Uiso   1.00
N975   N     0.61735   0.50002   0.74999   0.00000  Uiso   1.00
O976   O     0.46042   0.56011   0.75000   0.00000  Uiso   1.00
O977   O     0.53961   0.56012   0.75000   0.00000  Uiso   1.00
O978   O     0.44108   0.49998   0.82549   0.00000  Uiso   1.00
O979   O     0.52027   0.49999   0.82549   0.00000  Uiso   1.00
O980   O     0.46039   0.43988   0.74999   0.00000  Uiso   1.00
O981   O     0.53958   0.43989   0.74999   0.00000  Uiso   1.00
O982   O     0.47973   0.50001   0.67451   0.00000  Uiso   1.00
O983   O     0.55892   0.50002   0.67451   0.00000  Uiso   1.00
C984   C     0.60393   0.56488   0.60654   0.00000  Uiso   1.00
H985   H     0.59522   0.56229   0.64826   0.00000  Uiso   1.00
O986   O     0.63874   0.58605   0.58543   0.00000  Uiso   1.00
C987   C     0.42529   0.37858   0.83370   0.00000  Uiso   1.00
H988   H     0.42727   0.41187   0.83954   0.00000  Uiso   1.00
O989   O     0.39182   0.36035   0.86323   0.00000  Uiso   1.00
C990   C     0.60650   0.56783   0.79658   0.00000  Uiso   1.00
N991   N     0.58484   0.59808   0.81284   0.00000  Uiso   1.00
C992   C     0.36702   0.56302   0.80852   0.00000  Uiso   1.00
H993   H     0.38472   0.55489   0.83696   0.00000  Uiso   1.00
O994   O     0.36069   0.59968   0.80282   0.00000  Uiso   1.00
C995   C     0.39851   0.43881   0.69103   0.00000  Uiso   1.00
N996   N     0.42388   0.41317   0.66595   0.00000  Uiso   1.00
C997   C     0.63332   0.43629   0.69205   0.00000  Uiso   1.00
H998   H     0.61175   0.44342   0.66692   0.00000  Uiso   1.00
O999   O     0.64422   0.40009   0.69454   0.00000  Uiso   1.00
C1000  C     0.58344   0.59645   0.92894   0.00000  Uiso   1.00
H1001  H     0.61398   0.59241   0.89414   0.00000  Uiso   1.00
O1002  O     0.57578   0.63027   0.95221   0.00000  Uiso   1.00
C1003  C     0.50657   0.44713   0.56879   0.00000  Uiso   1.00
H1004  H     0.50607   0.43341   0.60508   0.00000  Uiso   1.00
O1005  O     0.50201   0.42418   0.53316   0.00000  Uiso   1.00
C1006  C     0.35774   0.45142   0.51430   0.00000  Uiso   1.00
H1007  H     0.34962   0.44529   0.55551   0.00000  Uiso   1.00
O1008  O     0.66140   0.44204   0.99164   0.00000  Uiso   1.00
C1009  C     0.83333   0.57911   0.75041   0.00000  Uiso   1.00
C1010  C     0.81415   0.50162   0.98935   0.00000  Uiso   1.00
C1011  C     0.82167   0.51467   0.93789   0.00000  Uiso   1.00
C1012  C     0.84887   0.51192   0.51593   0.00000  Uiso   1.00
C1013  C     0.88256   0.54375   0.99656   0.00000  Uiso   1.00
C1014  C     0.88506   0.56109   0.94855   0.00000  Uiso   1.00
C1015  C     0.85638   0.54516   0.91884   0.00000  Uiso   1.00
C1016  C     0.85125   0.49197   0.56127   0.00000  Uiso   1.00
C1017  C     0.90802   0.54411   0.57552   0.00000  Uiso   1.00
C1018  C     0.79195   0.49912   0.90798   0.00000  Uiso   1.00
C1019  C     0.86952   0.64447   0.71540   0.00000  Uiso   1.00
C1020  C     0.80724   0.50076   0.85021   0.00000  Uiso   1.00
C1021  C     0.86867   0.35396   0.71577   0.00000  Uiso   1.00
C1022  C     0.83217   0.37632   0.75316   0.00000  Uiso   1.00
C1023  C     0.79598   0.35569   0.79123   0.00000  Uiso   1.00
C1024  C     0.79697   0.64573   0.78970   0.00000  Uiso   1.00
C1025  C     0.83321   0.62377   0.75169   0.00000  Uiso   1.00
C1026  C     0.96874   0.53142   0.77500   0.00000  Uiso   1.00
C1027  C     0.68417   0.53051   0.77696   0.00000  Uiso   1.00
C1028  C     0.69898   0.46996   0.72239   0.00000  Uiso   1.00
C1029  C     0.98270   0.46943   0.72294   0.00000  Uiso   1.00
C1030  C     0.83289   0.42096   0.75120   0.00000  Uiso   1.00
C1031  C     0.85948   0.50247   0.65041   0.00000  Uiso   1.00
C1032  C     0.91332   0.55766   0.52542   0.00000  Uiso   1.00
C1033  C     0.87467   0.51201   0.59467   0.00000  Uiso   1.00
C1034  C     0.74925   0.47836   0.93314   0.00000  Uiso   1.00
C1035  C     0.73730   0.47111   0.98664   0.00000  Uiso   1.00
C1036  C     0.77015   0.48195   0.51412   0.00000  Uiso   1.00
Cu1037 Cu    0.78645   0.49999   0.75000   0.00000  Uiso   1.00
Cu1038 Cu    0.88022   0.50001   0.75000   0.00000  Uiso   1.00
H1039  H     0.89597   0.36967   0.68615   0.00000  Uiso   1.00
H1040  H     0.77062   0.62898   0.81908   0.00000  Uiso   1.00
H1041  H     0.93998   0.58113   0.51027   0.00000  Uiso   1.00
H1042  H     0.72549   0.46749   0.91096   0.00000  Uiso   1.00
H1043  H     0.76031   0.47626   0.55547   0.00000  Uiso   1.00
H1044  H     0.85798   0.55948   0.88282   0.00000  Uiso   1.00
H1045  H     0.89786   0.62760   0.68619   0.00000  Uiso   1.00
N1046  N     0.71598   0.49999   0.74998   0.00000  Uiso   1.00
N1047  N     0.95069   0.50002   0.74999   0.00000  Uiso   1.00
O1048  O     0.79375   0.56011   0.75000   0.00000  Uiso   1.00
O1049  O     0.87294   0.56012   0.75000   0.00000  Uiso   1.00
O1050  O     0.77441   0.49998   0.82549   0.00000  Uiso   1.00
O1051  O     0.85360   0.49999   0.82549   0.00000  Uiso   1.00
O1052  O     0.79373   0.43988   0.74999   0.00000  Uiso   1.00
O1053  O     0.87292   0.43989   0.74999   0.00000  Uiso   1.00
O1054  O     0.81306   0.50001   0.67451   0.00000  Uiso   1.00
O1055  O     0.89225   0.50002   0.67451   0.00000  Uiso   1.00
C1056  C     0.93726   0.56488   0.60654   0.00000  Uiso   1.00
H1057  H     0.92855   0.56229   0.64826   0.00000  Uiso   1.00
O1058  O     0.97208   0.58605   0.58543   0.00000  Uiso   1.00
C1059  C     0.75862   0.37858   0.83370   0.00000  Uiso   1.00
H1060  H     0.76060   0.41187   0.83954   0.00000  Uiso   1.00
O1061  O     0.72515   0.36035   0.86323   0.00000  Uiso   1.00
C1062  C     0.93984   0.56783   0.79658   0.00000  Uiso   1.00
N1063  N     0.91817   0.59808   0.81284   0.00000  Uiso   1.00
C1064  C     0.70036   0.56302   0.80852   0.00000  Uiso   1.00
H1065  H     0.71806   0.55489   0.83696   0.00000  Uiso   1.00
O1066  O     0.69402   0.59968   0.80282   0.00000  Uiso   1.00
C1067  C     0.73184   0.43881   0.69103   0.00000  Uiso   1.00
N1068  N     0.75721   0.41317   0.66595   0.00000  Uiso   1.00
C1069  C     0.96665   0.43629   0.69205   0.00000  Uiso   1.00
H1070  H     0.94508   0.44342   0.66692   0.00000  Uiso   1.00
O1071  O     0.97755   0.40009   0.69454   0.00000  Uiso   1.00
C1072  C     0.91678   0.59645   0.92894   0.00000  Uiso   1.00
H1073  H     0.94731   0.59241   0.89414   0.00000  Uiso   1.00
O1074  O     0.90912   0.63027   0.95221   0.00000  Uiso   1.00
C1075  C     0.83991   0.44713   0.56879   0.00000  Uiso   1.00
H1076  H     0.83940   0.43341   0.60508   0.00000  Uiso   1.00
O1077  O     0.83534   0.42418   0.53316   0.00000  Uiso   1.00
C1078  C     0.69107   0.45142   0.51430   0.00000  Uiso   1.00
H1079  H     0.68295   0.44529   0.55551   0.00000  Uiso   1.00
O1080  O     0.99473   0.44204   0.99164   0.00000  Uiso   1.00
C1081  C     0.16666   0.91245   0.75041   0.00000  Uiso   1.00
C1082  C     0.14749   0.83495   0.98935   0.00000  Uiso   1.00
C1083  C     0.15501   0.84801   0.93789   0.00000  Uiso   1.00
C1084  C     0.18220   0.84525   0.51593   0.00000  Uiso   1.00
C1085  C     0.21590   0.87708   0.99656   0.00000  Uiso   1.00
C1086  C     0.21840   0.89443   0.94855   0.00000  Uiso   1.00
C1087  C     0.18972   0.87849   0.91884   0.00000  Uiso   1.00
C1088  C     0.18458   0.82530   0.56127   0.00000  Uiso   1.00
C1089  C     0.24136   0.87744   0.57552   0.00000  Uiso   1.00
C1090  C     0.12528   0.83246   0.90798   0.00000  Uiso   1.00
C1091  C     0.20285   0.97781   0.71540   0.00000  Uiso   1.00
C1092  C     0.14057   0.83409   0.85021   0.00000  Uiso   1.00
C1093  C     0.20200   0.68729   0.71577   0.00000  Uiso   1.00
C1094  C     0.16550   0.70965   0.75316   0.00000  Uiso   1.00
C1095  C     0.12931   0.68903   0.79123   0.00000  Uiso   1.00
C1096  C     0.13030   0.97906   0.78970   0.00000  Uiso   1.00
C1097  C     0.16655   0.95710   0.75169   0.00000  Uiso   1.00
C1098  C     0.30207   0.86475   0.77500   0.00000  Uiso   1.00
C1099  C     0.01751   0.86384   0.77696   0.00000  Uiso   1.00
C1100  C     0.03231   0.80329   0.72239   0.00000  Uiso   1.00
C1101  C     0.31603   0.80276   0.72294   0.00000  Uiso   1.00
C1102  C     0.16622   0.75429   0.75120   0.00000  Uiso   1.00
C1103  C     0.19281   0.83581   0.65041   0.00000  Uiso   1.00
C1104  C     0.24666   0.89099   0.52542   0.00000  Uiso   1.00
C1105  C     0.20800   0.84534   0.59467   0.00000  Uiso   1.00
C1106  C     0.08259   0.81170   0.93314   0.00000  Uiso   1.00
C1107  C     0.07064   0.80444   0.98664   0.00000  Uiso   1.00
C1108  C     0.10348   0.81528   0.51412   0.00000  Uiso   1.00
Cu1109 Cu    0.11978   0.83333   0.75000   0.00000  Uiso   1.00
Cu1110 Cu    0.21355   0.83334   0.75000   0.00000  Uiso   1.00
H1111  H     0.22930   0.70301   0.68615   0.00000  Uiso   1.00
H1112  H     0.10395   0.96231   0.81908   0.00000  Uiso   1.00
H1113  H     0.27331   0.91446   0.51027   0.00000  Uiso   1.00
H1114  H     0.05882   0.80083   0.91096   0.00000  Uiso   1.00
H1115  H     0.09364   0.80959   0.55547   0.00000  Uiso   1.00
H1116  H     0.19131   0.89282   0.88282   0.00000  Uiso   1.00
H1117  H     0.23120   0.96093   0.68619   0.00000  Uiso   1.00
N1118  N     0.04931   0.83332   0.74998   0.00000  Uiso   1.00
N1119  N     0.28402   0.83335   0.74999   0.00000  Uiso   1.00
O1120  O     0.12708   0.89345   0.75000   0.00000  Uiso   1.00
O1121  O     0.20627   0.89346   0.75000   0.00000  Uiso   1.00
O1122  O     0.10775   0.83332   0.82549   0.00000  Uiso   1.00
O1123  O     0.18694   0.83333   0.82549   0.00000  Uiso   1.00
O1124  O     0.12706   0.77321   0.74999   0.00000  Uiso   1.00
O1125  O     0.20625   0.77322   0.74999   0.00000  Uiso   1.00
O1126  O     0.14640   0.83334   0.67451   0.00000  Uiso   1.00
O1127  O     0.22559   0.83335   0.67451   0.00000  Uiso   1.00
C1128  C     0.27060   0.89821   0.60654   0.00000  Uiso   1.00
H1129  H     0.26188   0.89562   0.64826   0.00000  Uiso   1.00
O1130  O     0.30541   0.91938   0.58543   0.00000  Uiso   1.00
C1131  C     0.09195   0.71191   0.83370   0.00000  Uiso   1.00
H1132  H     0.09393   0.74520   0.83954   0.00000  Uiso   1.00
O1133  O     0.05848   0.69369   0.86323   0.00000  Uiso   1.00
C1134  C     0.27317   0.90116   0.79658   0.00000  Uiso   1.00
N1135  N     0.25151   0.93142   0.81284   0.00000  Uiso   1.00
C1136  C     0.03369   0.89636   0.80852   0.00000  Uiso   1.00
H1137  H     0.05139   0.88822   0.83696   0.00000  Uiso   1.00
O1138  O     0.02736   0.93301   0.80282   0.00000  Uiso   1.00
C1139  C     0.06518   0.77214   0.69103   0.00000  Uiso   1.00
N1140  N     0.09054   0.74651   0.66595   0.00000  Uiso   1.00
C1141  C     0.29999   0.76962   0.69205   0.00000  Uiso   1.00
H1142  H     0.27841   0.77676   0.66692   0.00000  Uiso   1.00
O1143  O     0.31088   0.73342   0.69454   0.00000  Uiso   1.00
C1144  C     0.25011   0.92978   0.92894   0.00000  Uiso   1.00
H1145  H     0.28064   0.92574   0.89414   0.00000  Uiso   1.00
O1146  O     0.24245   0.96360   0.95221   0.00000  Uiso   1.00
C1147  C     0.17324   0.78047   0.56879   0.00000  Uiso   1.00
H1148  H     0.17273   0.76674   0.60508   0.00000  Uiso   1.00
O1149  O     0.16868   0.75751   0.53316   0.00000  Uiso   1.00
C1150  C     0.02441   0.78475   0.51430   0.00000  Uiso   1.00
H1151  H     0.01629   0.77862   0.55551   0.00000  Uiso   1.00
O1152  O     0.32806   0.77537   0.99164   0.00000  Uiso   1.00
C1153  C     0.49999   0.91245   0.75041   0.00000  Uiso   1.00
C1154  C     0.48082   0.83495   0.98935   0.00000  Uiso   1.00
C1155  C     0.48834   0.84801   0.93789   0.00000  Uiso   1.00
C1156  C     0.51554   0.84525   0.51593   0.00000  Uiso   1.00
C1157  C     0.54923   0.87708   0.99656   0.00000  Uiso   1.00
C1158  C     0.55173   0.89443   0.94855   0.00000  Uiso   1.00
C1159  C     0.52305   0.87849   0.91884   0.00000  Uiso   1.00
C1160  C     0.51791   0.82530   0.56127   0.00000  Uiso   1.00
C1161  C     0.57469   0.87744   0.57552   0.00000  Uiso   1.00
C1162  C     0.45861   0.83246   0.90798   0.00000  Uiso   1.00
C1163  C     0.53619   0.97781   0.71540   0.00000  Uiso   1.00
C1164  C     0.47390   0.83409   0.85021   0.00000  Uiso   1.00
C1165  C     0.53534   0.68729   0.71577   0.00000  Uiso   1.00
C1166  C     0.49883   0.70965   0.75316   0.00000  Uiso   1.00
C1167  C     0.46264   0.68903   0.79123   0.00000  Uiso   1.00
C1168  C     0.46363   0.97906   0.78970   0.00000  Uiso   1.00
C1169  C     0.49988   0.95710   0.75169   0.00000  Uiso   1.00
C1170  C     0.63540   0.86475   0.77500   0.00000  Uiso   1.00
C1171  C     0.35084   0.86384   0.77696   0.00000  Uiso   1.00
C1172  C     0.36565   0.80329   0.72239   0.00000  Uiso   1.00
C1173  C     0.64937   0.80276   0.72294   0.00000  Uiso   1.00
C1174  C     0.49955   0.75429   0.75120   0.00000  Uiso   1.00
C1175  C     0.52615   0.83581   0.65041   0.00000  Uiso   1.00
C1176  C     0.57999   0.89099   0.52542   0.00000  Uiso   1.00
C1177  C     0.54133   0.84534   0.59467   0.00000  Uiso   1.00
C1178  C     0.41592   0.81170   0.93314   0.00000  Uiso   1.00
C1179  C     0.40397   0.80444   0.98664   0.00000  Uiso   1.00
C1180  C     0.43682   0.81528   0.51412   0.00000  Uiso   1.00
Cu1181 Cu    0.45311   0.83333   0.75000   0.00000  Uiso   1.00
Cu1182 Cu    0.54689   0.83334   0.75000   0.00000  Uiso   1.00
H1183  H     0.56263   0.70301   0.68615   0.00000  Uiso   1.00
H1184  H     0.43728   0.96231   0.81908   0.00000  Uiso   1.00
H1185  H     0.60664   0.91446   0.51027   0.00000  Uiso   1.00
H1186  H     0.39216   0.80083   0.91096   0.00000  Uiso   1.00
H1187  H     0.42697   0.80959   0.55547   0.00000  Uiso   1.00
H1188  H     0.52464   0.89282   0.88282   0.00000  Uiso   1.00
H1189  H     0.56453   0.96093   0.68619   0.00000  Uiso   1.00
N1190  N     0.38265   0.83332   0.74998   0.00000  Uiso   1.00
N1191  N     0.61735   0.83335   0.74999   0.00000  Uiso   1.00
O1192  O     0.46042   0.89345   0.75000   0.00000  Uiso   1.00
O1193  O     0.53961   0.89346   0.75000   0.00000  Uiso   1.00
O1194  O     0.44108   0.83332   0.82549   0.00000  Uiso   1.00
O1195  O     0.52027   0.83333   0.82549   0.00000  Uiso   1.00
O1196  O     0.46039   0.77321   0.74999   0.00000  Uiso   1.00
O1197  O     0.53958   0.77322   0.74999   0.00000  Uiso   1.00
O1198  O     0.47973   0.83334   0.67451   0.00000  Uiso   1.00
O1199  O     0.55892   0.83335   0.67451   0.00000  Uiso   1.00
C1200  C     0.60393   0.89821   0.60654   0.00000  Uiso   1.00
H1201  H     0.59522   0.89562   0.64826   0.00000  Uiso   1.00
O1202  O     0.63874   0.91938   0.58543   0.00000  Uiso   1.00
C1203  C     0.42529   0.71191   0.83370   0.00000  Uiso   1.00
H1204  H     0.42727   0.74520   0.83954   0.00000  Uiso   1.00
O1205  O     0.39182   0.69369   0.86323   0.00000  Uiso   1.00
C1206  C     0.60650   0.90116   0.79658   0.00000  Uiso   1.00
N1207  N     0.58484   0.93142   0.81284   0.00000  Uiso   1.00
C1208  C     0.36702   0.89636   0.80852   0.00000  Uiso   1.00
H1209  H     0.38472   0.88822   0.83696   0.00000  Uiso   1.00
O1210  O     0.36069   0.93301   0.80282   0.00000  Uiso   1.00
C1211  C     0.39851   0.77214   0.69103   0.00000  Uiso   1.00
N1212  N     0.42388   0.74651   0.66595   0.00000  Uiso   1.00
C1213  C     0.63332   0.76962   0.69205   0.00000  Uiso   1.00
H1214  H     0.61175   0.77676   0.66692   0.00000  Uiso   1.00
O1215  O     0.64422   0.73342   0.69454   0.00000  Uiso   1.00
C1216  C     0.58344   0.92978   0.92894   0.00000  Uiso   1.00
H1217  H     0.61398   0.92574   0.89414   0.00000  Uiso   1.00
O1218  O     0.57578   0.96360   0.95221   0.00000  Uiso   1.00
C1219  C     0.50657   0.78047   0.56879   0.00000  Uiso   1.00
H1220  H     0.50607   0.76674   0.60508   0.00000  Uiso   1.00
O1221  O     0.50201   0.75751   0.53316   0.00000  Uiso   1.00
C1222  C     0.35774   0.78475   0.51430   0.00000  Uiso   1.00
H1223  H     0.34962   0.77862   0.55551   0.00000  Uiso   1.00
O1224  O     0.66140   0.77537   0.99164   0.00000  Uiso   1.00
C1225  C     0.83333   0.91245   0.75041   0.00000  Uiso   1.00
C1226  C     0.81415   0.83495   0.98935   0.00000  Uiso   1.00
C1227  C     0.82167   0.84801   0.93789   0.00000  Uiso   1.00
C1228  C     0.84887   0.84525   0.51593   0.00000  Uiso   1.00
C1229  C     0.88256   0.87708   0.99656   0.00000  Uiso   1.00
C1230  C     0.88506   0.89443   0.94855   0.00000  Uiso   1.00
C1231  C     0.85638   0.87849   0.91884   0.00000  Uiso   1.00
C1232  C     0.85125   0.82530   0.56127   0.00000  Uiso   1.00
C1233  C     0.90802   0.87744   0.57552   0.00000  Uiso   1.00
C1234  C     0.79195   0.83246   0.90798   0.00000  Uiso   1.00
C1235  C     0.86952   0.97781   0.71540   0.00000  Uiso   1.00
C1236  C     0.80724   0.83409   0.85021   0.00000  Uiso   1.00
C1237  C     0.86867   0.68729   0.71577   0.00000  Uiso   1.00
C1238  C     0.83217   0.70965   0.75316   0.00000  Uiso   1.00
C1239  C     0.79598   0.68903   0.79123   0.00000  Uiso   1.00
C1240  C     0.79697   0.97906   0.78970   0.00000  Uiso   1.00
C1241  C     0.83321   0.95710   0.75169   0.00000  Uiso   1.00
C1242  C     0.96874   0.86475   0.77500   0.00000  Uiso   1.00
C1243  C     0.68417   0.86384   0.77696   0.00000  Uiso   1.00
C1244  C     0.69898   0.80329   0.72239   0.00000  Uiso   1.00
C1245  C     0.98270   0.80276   0.72294   0.00000  Uiso   1.00
C1246  C     0.83289   0.75429   0.75120   0.00000  Uiso   1.00
C1247  C     0.85948   0.83581   0.65041   0.00000  Uiso   1.00
C1248  C     0.91332   0.89099   0.52542   0.00000  Uiso   1.00
C1249  C     0.87467   0.84534   0.59467   0.00000  Uiso   1.00
C1250  C     0.74925   0.81170   0.93314   0.00000  Uiso   1.00
C1251  C     0.73730   0.80444   0.98664   0.00000  Uiso   1.00
C1252  C     0.77015   0.81528   0.51412   0.00000  Uiso   1.00
Cu1253 Cu    0.78645   0.83333   0.75000   0.00000  Uiso   1.00
Cu1254 Cu    0.88022   0.83334   0.75000   0.00000  Uiso   1.00
H1255  H     0.89597   0.70301   0.68615   0.00000  Uiso   1.00
H1256  H     0.77062   0.96231   0.81908   0.00000  Uiso   1.00
H1257  H     0.93998   0.91446   0.51027   0.00000  Uiso   1.00
H1258  H     0.72549   0.80083   0.91096   0.00000  Uiso   1.00
H1259  H     0.76031   0.80959   0.55547   0.00000  Uiso   1.00
H1260  H     0.85798   0.89282   0.88282   0.00000  Uiso   1.00
H1261  H     0.89786   0.96093   0.68619   0.00000  Uiso   1.00
N1262  N     0.71598   0.83332   0.74998   0.00000  Uiso   1.00
N1263  N     0.95069   0.83335   0.74999   0.00000  Uiso   1.00
O1264  O     0.79375   0.89345   0.75000   0.00000  Uiso   1.00
O1265  O     0.87294   0.89346   0.75000   0.00000  Uiso   1.00
O1266  O     0.77441   0.83332   0.82549   0.00000  Uiso   1.00
O1267  O     0.85360   0.83333   0.82549   0.00000  Uiso   1.00
O1268  O     0.79373   0.77321   0.74999   0.00000  Uiso   1.00
O1269  O     0.87292   0.77322   0.74999   0.00000  Uiso   1.00
O1270  O     0.81306   0.83334   0.67451   0.00000  Uiso   1.00
O1271  O     0.89225   0.83335   0.67451   0.00000  Uiso   1.00
C1272  C     0.93726   0.89821   0.60654   0.00000  Uiso   1.00
H1273  H     0.92855   0.89562   0.64826   0.00000  Uiso   1.00
O1274  O     0.97208   0.91938   0.58543   0.00000  Uiso   1.00
C1275  C     0.75862   0.71191   0.83370   0.00000  Uiso   1.00
H1276  H     0.76060   0.74520   0.83954   0.00000  Uiso   1.00
O1277  O     0.72515   0.69369   0.86323   0.00000  Uiso   1.00
C1278  C     0.93984   0.90116   0.79658   0.00000  Uiso   1.00
N1279  N     0.91817   0.93142   0.81284   0.00000  Uiso   1.00
C1280  C     0.70036   0.89636   0.80852   0.00000  Uiso   1.00
H1281  H     0.71806   0.88822   0.83696   0.00000  Uiso   1.00
O1282  O     0.69402   0.93301   0.80282   0.00000  Uiso   1.00
C1283  C     0.73184   0.77214   0.69103   0.00000  Uiso   1.00
N1284  N     0.75721   0.74651   0.66595   0.00000  Uiso   1.00
C1285  C     0.96665   0.76962   0.69205   0.00000  Uiso   1.00
H1286  H     0.94508   0.77676   0.66692   0.00000  Uiso   1.00
O1287  O     0.97755   0.73342   0.69454   0.00000  Uiso   1.00
C1288  C     0.91678   0.92978   0.92894   0.00000  Uiso   1.00
H1289  H     0.94731   0.92574   0.89414   0.00000  Uiso   1.00
O1290  O     0.90912   0.96360   0.95221   0.00000  Uiso   1.00
C1291  C     0.83991   0.78047   0.56879   0.00000  Uiso   1.00
H1292  H     0.83940   0.76674   0.60508   0.00000  Uiso   1.00
O1293  O     0.83534   0.75751   0.53316   0.00000  Uiso   1.00
C1294  C     0.69107   0.78475   0.51430   0.00000  Uiso   1.00
H1295  H     0.68295   0.77862   0.55551   0.00000  Uiso   1.00
O1296  O     0.99473   0.77537   0.99164   0.00000  Uiso   1.00
loop_
_geom_bond_atom_site_label_1
_geom_bond_atom_site_label_2
_geom_bond_distance
_geom_bond_site_symmetry_2
_ccdc_geom_bond_type
C1     O41     1.300   .     A
C1     O40     1.301   .     A
C1     C17     1.440   .     S
C2     C3      1.414   .     A
C2     C652    1.425   .     S
C2     C676    1.412   .     S
C3     C10     1.417   .     A
C3     C7      1.404   .     A
C4     C8      1.420   .     A
C4     C650    1.425   1_554 S
C4     C653    1.419   1_554 S
C5     C6      1.408   .     A
C5     C652    1.419   .     S
C5     C672    1.404   .     S
C6     C7      1.394   .     A
C6     C64     1.476   .     S
C7     H36     1.077   .     S
C8     C25     1.410   .     A
C8     C67     1.492   .     S
C9     C24     1.395   .     A
C9     C25     1.419   .     A
C9     C48     1.491   .     S
C10    C26     1.403   .     A
C10    C12     1.482   .     S
C11    H37     1.080   .     S
C11    C17     1.393   .     A
C11    C229    1.382   .     S
C12    O43     1.308   .     A
C12    O42     1.310   .     A
C13    C14     1.398   .     A
C13    H31     1.082   .     S
C13    C443    1.382   1_545 S
C14    C22     1.444   .     S
C14    C15     1.414   .     A
C15    C51     1.487   .     S
C15    C448    1.396   1_545 S
C16    H32     1.082   .     S
C16    C17     1.396   .     A
C16    C231    1.396   .     S
C18    N39     1.376   .     A
C18    C54     1.441   .     S
C18    C91     1.429   .     S
C19    C56     1.480   .     S
C19    N38     1.375   .     A
C19    C162    1.429   1_455 S
C20    N38     1.371   .     A
C20    C59     1.442   .     S
C20    C165    1.432   1_455 S
C21    C61     1.481   .     S
C21    N39     1.380   .     A
C21    C92     1.432   .     S
C22    O44     1.299   .     A
C22    O45     1.301   .     A
C23    C25     1.473   .     S
C23    O47     1.302   .     A
C23    O46     1.310   .     A
C24    H33     1.082   .     S
C24    C653    1.404   1_554 S
C26    C27     1.402   .     A
C26    H34     1.083   .     S
C27    C676    1.401   .     S
C27    C718    1.480   .     S
C28    H35     1.083   .     S
C28    C650    1.412   1_554 S
C28    C675    1.401   1_554 S
Cu29   N38     2.041   .     S
Cu29   O42     1.949   .     S
Cu29   O46     1.939   .     S
Cu29   Cu30    2.716   .     S
Cu29   O40     1.951   .     S
Cu29   O44     1.953   .     S
Cu30   O45     1.951   .     S
Cu30   O41     1.953   .     S
Cu30   N39     2.041   .     S
Cu30   O43     1.939   .     S
Cu30   O47     1.949   .     S
C48    O50     1.222   .     D
C48    H49     1.078   .     S
C51    H52     1.083   .     S
C51    O53     1.221   .     D
C54    N55     1.158   .     T
C56    O58     1.221   .     D
C56    H57     1.079   .     S
C59    N60     1.157   .     T
C61    H62     1.078   .     S
C61    O63     1.221   .     D
C64    H65     1.081   .     S
C64    O66     1.221   .     D
C67    O69     1.221   .     D
C67    H68     1.083   .     S
C70    H71     1.086   .     S
C70    C675    1.480   1_554 S
C70    O864    1.221   1_454 S
O72    C790    1.221   .     S
C73    O113    1.300   .     A
C73    O112    1.301   .     A
C73    C89     1.440   .     S
C74    C75     1.414   .     A
C74    C724    1.425   .     S
C74    C748    1.412   .     S
C75    C82     1.417   .     A
C75    C79     1.404   .     A
C76    C80     1.420   .     A
C76    C722    1.425   1_554 S
C76    C725    1.419   1_554 S
C77    C78     1.408   .     A
C77    C724    1.419   .     S
C77    C744    1.404   .     S
C78    C79     1.394   .     A
C78    C136    1.476   .     S
C79    H108    1.077   .     S
C80    C97     1.410   .     A
C80    C139    1.492   .     S
C81    C96     1.395   .     A
C81    C97     1.419   .     A
C81    C120    1.491   .     S
C82    C98     1.403   .     A
C82    C84     1.482   .     S
C83    H109    1.080   .     S
C83    C89     1.393   .     A
C83    C301    1.382   .     S
C84    O115    1.308   .     A
C84    O114    1.310   .     A
C85    C86     1.398   .     A
C85    H103    1.082   .     S
C85    C515    1.382   1_545 S
C86    C94     1.444   .     S
C86    C87     1.414   .     A
C87    C123    1.487   .     S
C87    C520    1.396   1_545 S
C88    H104    1.082   .     S
C88    C89     1.396   .     A
C88    C303    1.396   .     S
C90    N111    1.376   .     A
C90    C126    1.441   .     S
C90    C163    1.429   .     S
C91    C128    1.480   .     S
C91    N110    1.375   .     A
C92    N110    1.371   .     A
C92    C131    1.442   .     S
C93    C133    1.481   .     S
C93    N111    1.380   .     A
C93    C164    1.432   .     S
C94    O116    1.299   .     A
C94    O117    1.301   .     A
C95    C97     1.473   .     S
C95    O119    1.302   .     A
C95    O118    1.310   .     A
C96    H105    1.082   .     S
C96    C725    1.404   1_554 S
C98    C99     1.402   .     A
C98    H106    1.083   .     S
C99    C748    1.401   .     S
C99    C790    1.480   .     S
C100   H107    1.083   .     S
C100   C722    1.412   1_554 S
C100   C747    1.401   1_554 S
Cu101  N110    2.041   .     S
Cu101  O114    1.949   .     S
Cu101  O118    1.939   .     S
Cu101  Cu102   2.716   .     S
Cu101  O112    1.951   .     S
Cu101  O116    1.953   .     S
Cu102  O117    1.951   .     S
Cu102  O113    1.953   .     S
Cu102  N111    2.041   .     S
Cu102  O115    1.939   .     S
Cu102  O119    1.949   .     S
C120   O122    1.222   .     D
C120   H121    1.078   .     S
C123   H124    1.083   .     S
C123   O125    1.221   .     D
C126   N127    1.158   .     T
C128   O130    1.221   .     D
C128   H129    1.079   .     S
C131   N132    1.157   .     T
C133   H134    1.078   .     S
C133   O135    1.221   .     D
C136   H137    1.081   .     S
C136   O138    1.221   .     D
C139   O141    1.221   .     D
C139   H140    1.083   .     S
C142   H143    1.086   .     S
C142   C747    1.480   1_554 S
C142   O720    1.221   1_554 S
O144   C862    1.221   .     S
C145   O185    1.300   .     A
C145   O184    1.301   .     A
C145   C161    1.440   .     S
C146   C147    1.414   .     A
C146   C796    1.425   .     S
C146   C820    1.412   .     S
C147   C154    1.417   .     A
C147   C151    1.404   .     A
C148   C152    1.420   .     A
C148   C794    1.425   1_554 S
C148   C797    1.419   1_554 S
C149   C150    1.408   .     A
C149   C796    1.419   .     S
C149   C816    1.404   .     S
C150   C151    1.394   .     A
C150   C208    1.476   .     S
C151   H180    1.077   .     S
C152   C169    1.410   .     A
C152   C211    1.492   .     S
C153   C168    1.395   .     A
C153   C169    1.419   .     A
C153   C192    1.491   .     S
C154   C170    1.403   .     A
C154   C156    1.482   .     S
C155   H181    1.080   .     S
C155   C161    1.393   .     A
C155   C373    1.382   .     S
C156   O187    1.308   .     A
C156   O186    1.310   .     A
C157   C158    1.398   .     A
C157   H175    1.082   .     S
C157   C587    1.382   1_545 S
C158   C166    1.444   .     S
C158   C159    1.414   .     A
C159   C195    1.487   .     S
C159   C592    1.396   1_545 S
C160   H176    1.082   .     S
C160   C161    1.396   .     A
C160   C375    1.396   .     S
C162   N183    1.376   .     A
C162   C198    1.441   .     S
C162   C19     1.429   1_655 S
C163   C200    1.480   .     S
C163   N182    1.375   .     A
C164   N182    1.371   .     A
C164   C203    1.442   .     S
C165   C205    1.481   .     S
C165   N183    1.380   .     A
C165   C20     1.432   1_655 S
C166   O188    1.299   .     A
C166   O189    1.301   .     A
C167   C169    1.473   .     S
C167   O191    1.302   .     A
C167   O190    1.310   .     A
C168   H177    1.082   .     S
C168   C797    1.404   1_554 S
C170   C171    1.402   .     A
C170   H178    1.083   .     S
C171   C820    1.401   .     S
C171   C862    1.480   .     S
C172   H179    1.083   .     S
C172   C794    1.412   1_554 S
C172   C819    1.401   1_554 S
Cu173  N182    2.041   .     S
Cu173  O186    1.949   .     S
Cu173  O190    1.939   .     S
Cu173  Cu174   2.716   .     S
Cu173  O184    1.951   .     S
Cu173  O188    1.953   .     S
Cu174  O189    1.951   .     S
Cu174  O185    1.953   .     S
Cu174  N183    2.041   .     S
Cu174  O187    1.939   .     S
Cu174  O191    1.949   .     S
C192   O194    1.222   .     D
C192   H193    1.078   .     S
C195   H196    1.083   .     S
C195   O197    1.221   .     D
C198   N199    1.158   .     T
C200   O202    1.221   .     D
C200   H201    1.079   .     S
C203   N204    1.157   .     T
C205   H206    1.078   .     S
C205   O207    1.221   .     D
C208   H209    1.081   .     S
C208   O210    1.221   .     D
C211   O213    1.221   .     D
C211   H212    1.083   .     S
C214   H215    1.086   .     S
C214   C819    1.480   1_554 S
C214   O792    1.221   1_554 S
O216   C718    1.221   1_655 S
C217   O257    1.300   .     A
C217   O256    1.301   .     A
C217   C233    1.440   .     S
C218   C219    1.414   .     A
C218   C868    1.425   .     S
C218   C892    1.412   .     S
C219   C226    1.417   .     A
C219   C223    1.404   .     A
C220   C224    1.420   .     A
C220   C866    1.425   1_554 S
C220   C869    1.419   1_554 S
C221   C222    1.408   .     A
C221   C868    1.419   .     S
C221   C888    1.404   .     S
C222   C223    1.394   .     A
C222   C280    1.476   .     S
C223   H252    1.077   .     S
C224   C241    1.410   .     A
C224   C283    1.492   .     S
C225   C240    1.395   .     A
C225   C241    1.419   .     A
C225   C264    1.491   .     S
C226   C242    1.403   .     A
C226   C228    1.482   .     S
C227   H253    1.080   .     S
C227   C233    1.393   .     A
C227   C445    1.382   .     S
C228   O259    1.308   .     A
C228   O258    1.310   .     A
C229   C230    1.398   .     A
C229   H247    1.082   .     S
C230   C238    1.444   .     S
C230   C231    1.414   .     A
C231   C267    1.487   .     S
C232   H248    1.082   .     S
C232   C233    1.396   .     A
C232   C447    1.396   .     S
C234   N255    1.376   .     A
C234   C270    1.441   .     S
C234   C307    1.429   .     S
C235   C272    1.480   .     S
C235   N254    1.375   .     A
C235   C378    1.429   1_455 S
C236   N254    1.371   .     A
C236   C275    1.442   .     S
C236   C381    1.432   1_455 S
C237   C277    1.481   .     S
C237   N255    1.380   .     A
C237   C308    1.432   .     S
C238   O260    1.299   .     A
C238   O261    1.301   .     A
C239   C241    1.473   .     S
C239   O263    1.302   .     A
C239   O262    1.310   .     A
C240   H249    1.082   .     S
C240   C869    1.404   1_554 S
C242   C243    1.402   .     A
C242   H250    1.083   .     S
C243   C892    1.401   .     S
C243   C934    1.480   .     S
C244   H251    1.083   .     S
C244   C866    1.412   1_554 S
C244   C891    1.401   1_554 S
Cu245  N254    2.041   .     S
Cu245  O258    1.949   .     S
Cu245  O262    1.939   .     S
Cu245  Cu246   2.716   .     S
Cu245  O256    1.951   .     S
Cu245  O260    1.953   .     S
Cu246  O261    1.951   .     S
Cu246  O257    1.953   .     S
Cu246  N255    2.041   .     S
Cu246  O259    1.939   .     S
Cu246  O263    1.949   .     S
C264   O266    1.222   .     D
C264   H265    1.078   .     S
C267   H268    1.083   .     S
C267   O269    1.221   .     D
C270   N271    1.158   .     T
C272   O274    1.221   .     D
C272   H273    1.079   .     S
C275   N276    1.157   .     T
C277   H278    1.078   .     S
C277   O279    1.221   .     D
C280   H281    1.081   .     S
C280   O282    1.221   .     D
C283   O285    1.221   .     D
C283   H284    1.083   .     S
C286   H287    1.086   .     S
C286   C891    1.480   1_554 S
C286   O1080   1.221   1_454 S
O288   C1006   1.221   .     S
C289   O329    1.300   .     A
C289   O328    1.301   .     A
C289   C305    1.440   .     S
C290   C291    1.414   .     A
C290   C940    1.425   .     S
C290   C964    1.412   .     S
C291   C298    1.417   .     A
C291   C295    1.404   .     A
C292   C296    1.420   .     A
C292   C938    1.425   1_554 S
C292   C941    1.419   1_554 S
C293   C294    1.408   .     A
C293   C940    1.419   .     S
C293   C960    1.404   .     S
C294   C295    1.394   .     A
C294   C352    1.476   .     S
C295   H324    1.077   .     S
C296   C313    1.410   .     A
C296   C355    1.492   .     S
C297   C312    1.395   .     A
C297   C313    1.419   .     A
C297   C336    1.491   .     S
C298   C314    1.403   .     A
C298   C300    1.482   .     S
C299   H325    1.080   .     S
C299   C305    1.393   .     A
C299   C517    1.382   .     S
C300   O331    1.308   .     A
C300   O330    1.310   .     A
C301   C302    1.398   .     A
C301   H319    1.082   .     S
C302   C310    1.444   .     S
C302   C303    1.414   .     A
C303   C339    1.487   .     S
C304   H320    1.082   .     S
C304   C305    1.396   .     A
C304   C519    1.396   .     S
C306   N327    1.376   .     A
C306   C342    1.441   .     S
C306   C379    1.429   .     S
C307   C344    1.480   .     S
C307   N326    1.375   .     A
C308   N326    1.371   .     A
C308   C347    1.442   .     S
C309   C349    1.481   .     S
C309   N327    1.380   .     A
C309   C380    1.432   .     S
C310   O332    1.299   .     A
C310   O333    1.301   .     A
C311   C313    1.473   .     S
C311   O335    1.302   .     A
C311   O334    1.310   .     A
C312   H321    1.082   .     S
C312   C941    1.404   1_554 S
C314   C315    1.402   .     A
C314   H322    1.083   .     S
C315   C964    1.401   .     S
C315   C1006   1.480   .     S
C316   H323    1.083   .     S
C316   C938    1.412   1_554 S
C316   C963    1.401   1_554 S
Cu317  N326    2.041   .     S
Cu317  O330    1.949   .     S
Cu317  O334    1.939   .     S
Cu317  Cu318   2.716   .     S
Cu317  O328    1.951   .     S
Cu317  O332    1.953   .     S
Cu318  O333    1.951   .     S
Cu318  O329    1.953   .     S
Cu318  N327    2.041   .     S
Cu318  O331    1.939   .     S
Cu318  O335    1.949   .     S
C336   O338    1.222   .     D
C336   H337    1.078   .     S
C339   H340    1.083   .     S
C339   O341    1.221   .     D
C342   N343    1.158   .     T
C344   O346    1.221   .     D
C344   H345    1.079   .     S
C347   N348    1.157   .     T
C349   H350    1.078   .     S
C349   O351    1.221   .     D
C352   H353    1.081   .     S
C352   O354    1.221   .     D
C355   O357    1.221   .     D
C355   H356    1.083   .     S
C358   H359    1.086   .     S
C358   C963    1.480   1_554 S
C358   O936    1.221   1_554 S
O360   C1078   1.221   .     S
C361   O401    1.300   .     A
C361   O400    1.301   .     A
C361   C377    1.440   .     S
C362   C363    1.414   .     A
C362   C1012   1.425   .     S
C362   C1036   1.412   .     S
C363   C370    1.417   .     A
C363   C367    1.404   .     A
C364   C368    1.420   .     A
C364   C1010   1.425   1_554 S
C364   C1013   1.419   1_554 S
C365   C366    1.408   .     A
C365   C1012   1.419   .     S
C365   C1032   1.404   .     S
C366   C367    1.394   .     A
C366   C424    1.476   .     S
C367   H396    1.077   .     S
C368   C385    1.410   .     A
C368   C427    1.492   .     S
C369   C384    1.395   .     A
C369   C385    1.419   .     A
C369   C408    1.491   .     S
C370   C386    1.403   .     A
C370   C372    1.482   .     S
C371   H397    1.080   .     S
C371   C377    1.393   .     A
C371   C589    1.382   .     S
C372   O403    1.308   .     A
C372   O402    1.310   .     A
C373   C374    1.398   .     A
C373   H391    1.082   .     S
C374   C382    1.444   .     S
C374   C375    1.414   .     A
C375   C411    1.487   .     S
C376   H392    1.082   .     S
C376   C377    1.396   .     A
C376   C591    1.396   .     S
C378   N399    1.376   .     A
C378   C414    1.441   .     S
C378   C235    1.429   1_655 S
C379   C416    1.480   .     S
C379   N398    1.375   .     A
C380   N398    1.371   .     A
C380   C419    1.442   .     S
C381   C421    1.481   .     S
C381   N399    1.380   .     A
C381   C236    1.432   1_655 S
C382   O404    1.299   .     A
C382   O405    1.301   .     A
C383   C385    1.473   .     S
C383   O407    1.302   .     A
C383   O406    1.310   .     A
C384   H393    1.082   .     S
C384   C1013   1.404   1_554 S
C386   C387    1.402   .     A
C386   H394    1.083   .     S
C387   C1036   1.401   .     S
C387   C1078   1.480   .     S
C388   H395    1.083   .     S
C388   C1010   1.412   1_554 S
C388   C1035   1.401   1_554 S
Cu389  N398    2.041   .     S
Cu389  O402    1.949   .     S
Cu389  O406    1.939   .     S
Cu389  Cu390   2.716   .     S
Cu389  O400    1.951   .     S
Cu389  O404    1.953   .     S
Cu390  O405    1.951   .     S
Cu390  O401    1.953   .     S
Cu390  N399    2.041   .     S
Cu390  O403    1.939   .     S
Cu390  O407    1.949   .     S
C408   O410    1.222   .     D
C408   H409    1.078   .     S
C411   H412    1.083   .     S
C411   O413    1.221   .     D
C414   N415    1.158   .     T
C416   O418    1.221   .     D
C416   H417    1.079   .     S
C419   N420    1.157   .     T
C421   H422    1.078   .     S
C421   O423    1.221   .     D
C424   H425    1.081   .     S
C424   O426    1.221   .     D
C427   O429    1.221   .     D
C427   H428    1.083   .     S
C430   H431    1.086   .     S
C430   C1035   1.480   1_554 S
C430   O1008   1.221   1_554 S
O432   C934    1.221   1_655 S
C433   O473    1.300   .     A
C433   O472    1.301   .     A
C433   C449    1.440   .     S
C434   C435    1.414   .     A
C434   C1084   1.425   .     S
C434   C1108   1.412   .     S
C435   C442    1.417   .     A
C435   C439    1.404   .     A
C436   C440    1.420   .     A
C436   C1082   1.425   1_554 S
C436   C1085   1.419   1_554 S
C437   C438    1.408   .     A
C437   C1084   1.419   .     S
C437   C1104   1.404   .     S
C438   C439    1.394   .     A
C438   C496    1.476   .     S
C439   H468    1.077   .     S
C440   C457    1.410   .     A
C440   C499    1.492   .     S
C441   C456    1.395   .     A
C441   C457    1.419   .     A
C441   C480    1.491   .     S
C442   C458    1.403   .     A
C442   C444    1.482   .     S
C443   H469    1.080   .     S
C443   C449    1.393   .     A
C443   C13     1.382   1_565 S
C444   O475    1.308   .     A
C444   O474    1.310   .     A
C445   C446    1.398   .     A
C445   H463    1.082   .     S
C446   C454    1.444   .     S
C446   C447    1.414   .     A
C447   C483    1.487   .     S
C448   H464    1.082   .     S
C448   C449    1.396   .     A
C448   C15     1.396   1_565 S
C450   N471    1.376   .     A
C450   C486    1.441   .     S
C450   C523    1.429   .     S
C451   C488    1.480   .     S
C451   N470    1.375   .     A
C451   C594    1.429   1_455 S
C452   N470    1.371   .     A
C452   C491    1.442   .     S
C452   C597    1.432   1_455 S
C453   C493    1.481   .     S
C453   N471    1.380   .     A
C453   C524    1.432   .     S
C454   O476    1.299   .     A
C454   O477    1.301   .     A
C455   C457    1.473   .     S
C455   O479    1.302   .     A
C455   O478    1.310   .     A
C456   H465    1.082   .     S
C456   C1085   1.404   1_554 S
C458   C459    1.402   .     A
C458   H466    1.083   .     S
C459   C1108   1.401   .     S
C459   C1150   1.480   .     S
C460   H467    1.083   .     S
C460   C1082   1.412   1_554 S
C460   C1107   1.401   1_554 S
Cu461  N470    2.041   .     S
Cu461  O474    1.949   .     S
Cu461  O478    1.939   .     S
Cu461  Cu462   2.716   .     S
Cu461  O472    1.951   .     S
Cu461  O476    1.953   .     S
Cu462  O477    1.951   .     S
Cu462  O473    1.953   .     S
Cu462  N471    2.041   .     S
Cu462  O475    1.939   .     S
Cu462  O479    1.949   .     S
C480   O482    1.222   .     D
C480   H481    1.078   .     S
C483   H484    1.083   .     S
C483   O485    1.221   .     D
C486   N487    1.158   .     T
C488   O490    1.221   .     D
C488   H489    1.079   .     S
C491   N492    1.157   .     T
C493   H494    1.078   .     S
C493   O495    1.221   .     D
C496   H497    1.081   .     S
C496   O498    1.221   .     D
C499   O501    1.221   .     D
C499   H500    1.083   .     S
C502   H503    1.086   .     S
C502   C1107   1.480   1_554 S
C502   O1296   1.221   1_454 S
O504   C1222   1.221   .     S
C505   O545    1.300   .     A
C505   O544    1.301   .     A
C505   C521    1.440   .     S
C506   C507    1.414   .     A
C506   C1156   1.425   .     S
C506   C1180   1.412   .     S
C507   C514    1.417   .     A
C507   C511    1.404   .     A
C508   C512    1.420   .     A
C508   C1154   1.425   1_554 S
C508   C1157   1.419   1_554 S
C509   C510    1.408   .     A
C509   C1156   1.419   .     S
C509   C1176   1.404   .     S
C510   C511    1.394   .     A
C510   C568    1.476   .     S
C511   H540    1.077   .     S
C512   C529    1.410   .     A
C512   C571    1.492   .     S
C513   C528    1.395   .     A
C513   C529    1.419   .     A
C513   C552    1.491   .     S
C514   C530    1.403   .     A
C514   C516    1.482   .     S
C515   H541    1.080   .     S
C515   C521    1.393   .     A
C515   C85     1.382   1_565 S
C516   O547    1.308   .     A
C516   O546    1.310   .     A
C517   C518    1.398   .     A
C517   H535    1.082   .     S
C518   C526    1.444   .     S
C518   C519    1.414   .     A
C519   C555    1.487   .     S
C520   H536    1.082   .     S
C520   C521    1.396   .     A
C520   C87     1.396   1_565 S
C522   N543    1.376   .     A
C522   C558    1.441   .     S
C522   C595    1.429   .     S
C523   C560    1.480   .     S
C523   N542    1.375   .     A
C524   N542    1.371   .     A
C524   C563    1.442   .     S
C525   C565    1.481   .     S
C525   N543    1.380   .     A
C525   C596    1.432   .     S
C526   O548    1.299   .     A
C526   O549    1.301   .     A
C527   C529    1.473   .     S
C527   O551    1.302   .     A
C527   O550    1.310   .     A
C528   H537    1.082   .     S
C528   C1157   1.404   1_554 S
C530   C531    1.402   .     A
C530   H538    1.083   .     S
C531   C1180   1.401   .     S
C531   C1222   1.480   .     S
C532   H539    1.083   .     S
C532   C1154   1.412   1_554 S
C532   C1179   1.401   1_554 S
Cu533  N542    2.041   .     S
Cu533  O546    1.949   .     S
Cu533  O550    1.939   .     S
Cu533  Cu534   2.716   .     S
Cu533  O544    1.951   .     S
Cu533  O548    1.953   .     S
Cu534  O549    1.951   .     S
Cu534  O545    1.953   .     S
Cu534  N543    2.041   .     S
Cu534  O547    1.939   .     S
Cu534  O551    1.949   .     S
C552   O554    1.222   .     D
C552   H553    1.078   .     S
C555   H556    1.083   .     S
C555   O557    1.221   .     D
C558   N559    1.158   .     T
C560   O562    1.221   .     D
C560   H561    1.079   .     S
C563   N564    1.157   .     T
C565   H566    1.078   .     S
C565   O567    1.221   .     D
C568   H569    1.081   .     S
C568   O570    1.221   .     D
C571   O573    1.221   .     D
C571   H572    1.083   .     S
C574   H575    1.086   .     S
C574   C1179   1.480   1_554 S
C574   O1152   1.221   1_554 S
O576   C1294   1.221   .     S
C577   O617    1.300   .     A
C577   O616    1.301   .     A
C577   C593    1.440   .     S
C578   C579    1.414   .     A
C578   C1228   1.425   .     S
C578   C1252   1.412   .     S
C579   C586    1.417   .     A
C579   C583    1.404   .     A
C580   C584    1.420   .     A
C580   C1226   1.425   1_554 S
C580   C1229   1.419   1_554 S
C581   C582    1.408   .     A
C581   C1228   1.419   .     S
C581   C1248   1.404   .     S
C582   C583    1.394   .     A
C582   C640    1.476   .     S
C583   H612    1.077   .     S
C584   C601    1.410   .     A
C584   C643    1.492   .     S
C585   C600    1.395   .     A
C585   C601    1.419   .     A
C585   C624    1.491   .     S
C586   C602    1.403   .     A
C586   C588    1.482   .     S
C587   H613    1.080   .     S
C587   C593    1.393   .     A
C587   C157    1.382   1_565 S
C588   O619    1.308   .     A
C588   O618    1.310   .     A
C589   C590    1.398   .     A
C589   H607    1.082   .     S
C590   C598    1.444   .     S
C590   C591    1.414   .     A
C591   C627    1.487   .     S
C592   H608    1.082   .     S
C592   C593    1.396   .     A
C592   C159    1.396   1_565 S
C594   N615    1.376   .     A
C594   C630    1.441   .     S
C594   C451    1.429   1_655 S
C595   C632    1.480   .     S
C595   N614    1.375   .     A
C596   N614    1.371   .     A
C596   C635    1.442   .     S
C597   C637    1.481   .     S
C597   N615    1.380   .     A
C597   C452    1.432   1_655 S
C598   O620    1.299   .     A
C598   O621    1.301   .     A
C599   C601    1.473   .     S
C599   O623    1.302   .     A
C599   O622    1.310   .     A
C600   H609    1.082   .     S
C600   C1229   1.404   1_554 S
C602   C603    1.402   .     A
C602   H610    1.083   .     S
C603   C1252   1.401   .     S
C603   C1294   1.480   .     S
C604   H611    1.083   .     S
C604   C1226   1.412   1_554 S
C604   C1251   1.401   1_554 S
Cu605  N614    2.041   .     S
Cu605  O618    1.949   .     S
Cu605  O622    1.939   .     S
Cu605  Cu606   2.716   .     S
Cu605  O616    1.951   .     S
Cu605  O620    1.953   .     S
Cu606  O621    1.951   .     S
Cu606  O617    1.953   .     S
Cu606  N615    2.041   .     S
Cu606  O619    1.939   .     S
Cu606  O623    1.949   .     S
C624   O626    1.222   .     D
C624   H625    1.078   .     S
C627   H628    1.083   .     S
C627   O629    1.221   .     D
C630   N631    1.158   .     T
C632   O634    1.221   .     D
C632   H633    1.079   .     S
C635   N636    1.157   .     T
C637   H638    1.078   .     S
C637   O639    1.221   .     D
C640   H641    1.081   .     S
C640   O642    1.221   .     D
C643   O645    1.221   .     D
C643   H644    1.083   .     S
C646   H647    1.086   .     S
C646   C1251   1.480   1_554 S
C646   O1224   1.221   1_554 S
O648   C1150   1.221   1_655 S
C649   O689    1.300   .     A
C649   O688    1.301   .     A
C649   C665    1.440   .     S
C650   C651    1.414   .     A
C650   C4      1.425   1_556 S
C650   C28     1.412   1_556 S
C651   C658    1.417   .     A
C651   C655    1.404   .     A
C652   C656    1.420   .     A
C653   C654    1.408   .     A
C653   C4      1.419   1_556 S
C653   C24     1.404   1_556 S
C654   C655    1.394   .     A
C654   C712    1.476   .     S
C655   H684    1.077   .     S
C656   C673    1.410   .     A
C656   C715    1.492   .     S
C657   C672    1.395   .     A
C657   C673    1.419   .     A
C657   C696    1.491   .     S
C658   C674    1.403   .     A
C658   C660    1.482   .     S
C659   H685    1.080   .     S
C659   C665    1.393   .     A
C659   C877    1.382   .     S
C660   O691    1.308   .     A
C660   O690    1.310   .     A
C661   C662    1.398   .     A
C661   H679    1.082   .     S
C661   C1091   1.382   1_545 S
C662   C670    1.444   .     S
C662   C663    1.414   .     A
C663   C699    1.487   .     S
C663   C1096   1.396   1_545 S
C664   H680    1.082   .     S
C664   C665    1.396   .     A
C664   C879    1.396   .     S
C666   N687    1.376   .     A
C666   C702    1.441   .     S
C666   C739    1.429   .     S
C667   C704    1.480   .     S
C667   N686    1.375   .     A
C667   C810    1.429   1_455 S
C668   N686    1.371   .     A
C668   C707    1.442   .     S
C668   C813    1.432   1_455 S
C669   C709    1.481   .     S
C669   N687    1.380   .     A
C669   C740    1.432   .     S
C670   O692    1.299   .     A
C670   O693    1.301   .     A
C671   C673    1.473   .     S
C671   O695    1.302   .     A
C671   O694    1.310   .     A
C672   H681    1.082   .     S
C674   C675    1.402   .     A
C674   H682    1.083   .     S
C675   C28     1.401   1_556 S
C675   C70     1.480   1_556 S
C676   H683    1.083   .     S
Cu677  N686    2.041   .     S
Cu677  O690    1.949   .     S
Cu677  O694    1.939   .     S
Cu677  Cu678   2.716   .     S
Cu677  O688    1.951   .     S
Cu677  O692    1.953   .     S
Cu678  O693    1.951   .     S
Cu678  O689    1.953   .     S
Cu678  N687    2.041   .     S
Cu678  O691    1.939   .     S
Cu678  O695    1.949   .     S
C696   O698    1.222   .     D
C696   H697    1.078   .     S
C699   H700    1.083   .     S
C699   O701    1.221   .     D
C702   N703    1.158   .     T
C704   O706    1.221   .     D
C704   H705    1.079   .     S
C707   N708    1.157   .     T
C709   H710    1.078   .     S
C709   O711    1.221   .     D
C712   H713    1.081   .     S
C712   O714    1.221   .     D
C715   O717    1.221   .     D
C715   H716    1.083   .     S
C718   H719    1.086   .     S
C718   O216    1.221   1_455 S
O720   C142    1.221   1_556 S
C721   O761    1.300   .     A
C721   O760    1.301   .     A
C721   C737    1.440   .     S
C722   C723    1.414   .     A
C722   C76     1.425   1_556 S
C722   C100    1.412   1_556 S
C723   C730    1.417   .     A
C723   C727    1.404   .     A
C724   C728    1.420   .     A
C725   C726    1.408   .     A
C725   C76     1.419   1_556 S
C725   C96     1.404   1_556 S
C726   C727    1.394   .     A
C726   C784    1.476   .     S
C727   H756    1.077   .     S
C728   C745    1.410   .     A
C728   C787    1.492   .     S
C729   C744    1.395   .     A
C729   C745    1.419   .     A
C729   C768    1.491   .     S
C730   C746    1.403   .     A
C730   C732    1.482   .     S
C731   H757    1.080   .     S
C731   C737    1.393   .     A
C731   C949    1.382   .     S
C732   O763    1.308   .     A
C732   O762    1.310   .     A
C733   C734    1.398   .     A
C733   H751    1.082   .     S
C733   C1163   1.382   1_545 S
C734   C742    1.444   .     S
C734   C735    1.414   .     A
C735   C771    1.487   .     S
C735   C1168   1.396   1_545 S
C736   H752    1.082   .     S
C736   C737    1.396   .     A
C736   C951    1.396   .     S
C738   N759    1.376   .     A
C738   C774    1.441   .     S
C738   C811    1.429   .     S
C739   C776    1.480   .     S
C739   N758    1.375   .     A
C740   N758    1.371   .     A
C740   C779    1.442   .     S
C741   C781    1.481   .     S
C741   N759    1.380   .     A
C741   C812    1.432   .     S
C742   O764    1.299   .     A
C742   O765    1.301   .     A
C743   C745    1.473   .     S
C743   O767    1.302   .     A
C743   O766    1.310   .     A
C744   H753    1.082   .     S
C746   C747    1.402   .     A
C746   H754    1.083   .     S
C747   C100    1.401   1_556 S
C747   C142    1.480   1_556 S
C748   H755    1.083   .     S
Cu749  N758    2.041   .     S
Cu749  O762    1.949   .     S
Cu749  O766    1.939   .     S
Cu749  Cu750   2.716   .     S
Cu749  O760    1.951   .     S
Cu749  O764    1.953   .     S
Cu750  O765    1.951   .     S
Cu750  O761    1.953   .     S
Cu750  N759    2.041   .     S
Cu750  O763    1.939   .     S
Cu750  O767    1.949   .     S
C768   O770    1.222   .     D
C768   H769    1.078   .     S
C771   H772    1.083   .     S
C771   O773    1.221   .     D
C774   N775    1.158   .     T
C776   O778    1.221   .     D
C776   H777    1.079   .     S
C779   N780    1.157   .     T
C781   H782    1.078   .     S
C781   O783    1.221   .     D
C784   H785    1.081   .     S
C784   O786    1.221   .     D
C787   O789    1.221   .     D
C787   H788    1.083   .     S
C790   H791    1.086   .     S
O792   C214    1.221   1_556 S
C793   O833    1.300   .     A
C793   O832    1.301   .     A
C793   C809    1.440   .     S
C794   C795    1.414   .     A
C794   C148    1.425   1_556 S
C794   C172    1.412   1_556 S
C795   C802    1.417   .     A
C795   C799    1.404   .     A
C796   C800    1.420   .     A
C797   C798    1.408   .     A
C797   C148    1.419   1_556 S
C797   C168    1.404   1_556 S
C798   C799    1.394   .     A
C798   C856    1.476   .     S
C799   H828    1.077   .     S
C800   C817    1.410   .     A
C800   C859    1.492   .     S
C801   C816    1.395   .     A
C801   C817    1.419   .     A
C801   C840    1.491   .     S
C802   C818    1.403   .     A
C802   C804    1.482   .     S
C803   H829    1.080   .     S
C803   C809    1.393   .     A
C803   C1021   1.382   .     S
C804   O835    1.308   .     A
C804   O834    1.310   .     A
C805   C806    1.398   .     A
C805   H823    1.082   .     S
C805   C1235   1.382   1_545 S
C806   C814    1.444   .     S
C806   C807    1.414   .     A
C807   C843    1.487   .     S
C807   C1240   1.396   1_545 S
C808   H824    1.082   .     S
C808   C809    1.396   .     A
C808   C1023   1.396   .     S
C810   N831    1.376   .     A
C810   C846    1.441   .     S
C810   C667    1.429   1_655 S
C811   C848    1.480   .     S
C811   N830    1.375   .     A
C812   N830    1.371   .     A
C812   C851    1.442   .     S
C813   C853    1.481   .     S
C813   N831    1.380   .     A
C813   C668    1.432   1_655 S
C814   O836    1.299   .     A
C814   O837    1.301   .     A
C815   C817    1.473   .     S
C815   O839    1.302   .     A
C815   O838    1.310   .     A
C816   H825    1.082   .     S
C818   C819    1.402   .     A
C818   H826    1.083   .     S
C819   C172    1.401   1_556 S
C819   C214    1.480   1_556 S
C820   H827    1.083   .     S
Cu821  N830    2.041   .     S
Cu821  O834    1.949   .     S
Cu821  O838    1.939   .     S
Cu821  Cu822   2.716   .     S
Cu821  O832    1.951   .     S
Cu821  O836    1.953   .     S
Cu822  O837    1.951   .     S
Cu822  O833    1.953   .     S
Cu822  N831    2.041   .     S
Cu822  O835    1.939   .     S
Cu822  O839    1.949   .     S
C840   O842    1.222   .     D
C840   H841    1.078   .     S
C843   H844    1.083   .     S
C843   O845    1.221   .     D
C846   N847    1.158   .     T
C848   O850    1.221   .     D
C848   H849    1.079   .     S
C851   N852    1.157   .     T
C853   H854    1.078   .     S
C853   O855    1.221   .     D
C856   H857    1.081   .     S
C856   O858    1.221   .     D
C859   O861    1.221   .     D
C859   H860    1.083   .     S
C862   H863    1.086   .     S
O864   C70     1.221   1_656 S
C865   O905    1.300   .     A
C865   O904    1.301   .     A
C865   C881    1.440   .     S
C866   C867    1.414   .     A
C866   C220    1.425   1_556 S
C866   C244    1.412   1_556 S
C867   C874    1.417   .     A
C867   C871    1.404   .     A
C868   C872    1.420   .     A
C869   C870    1.408   .     A
C869   C220    1.419   1_556 S
C869   C240    1.404   1_556 S
C870   C871    1.394   .     A
C870   C928    1.476   .     S
C871   H900    1.077   .     S
C872   C889    1.410   .     A
C872   C931    1.492   .     S
C873   C888    1.395   .     A
C873   C889    1.419   .     A
C873   C912    1.491   .     S
C874   C890    1.403   .     A
C874   C876    1.482   .     S
C875   H901    1.080   .     S
C875   C881    1.393   .     A
C875   C1093   1.382   .     S
C876   O907    1.308   .     A
C876   O906    1.310   .     A
C877   C878    1.398   .     A
C877   H895    1.082   .     S
C878   C886    1.444   .     S
C878   C879    1.414   .     A
C879   C915    1.487   .     S
C880   H896    1.082   .     S
C880   C881    1.396   .     A
C880   C1095   1.396   .     S
C882   N903    1.376   .     A
C882   C918    1.441   .     S
C882   C955    1.429   .     S
C883   C920    1.480   .     S
C883   N902    1.375   .     A
C883   C1026   1.429   1_455 S
C884   N902    1.371   .     A
C884   C923    1.442   .     S
C884   C1029   1.432   1_455 S
C885   C925    1.481   .     S
C885   N903    1.380   .     A
C885   C956    1.432   .     S
C886   O908    1.299   .     A
C886   O909    1.301   .     A
C887   C889    1.473   .     S
C887   O911    1.302   .     A
C887   O910    1.310   .     A
C888   H897    1.082   .     S
C890   C891    1.402   .     A
C890   H898    1.083   .     S
C891   C244    1.401   1_556 S
C891   C286    1.480   1_556 S
C892   H899    1.083   .     S
Cu893  N902    2.041   .     S
Cu893  O906    1.949   .     S
Cu893  O910    1.939   .     S
Cu893  Cu894   2.716   .     S
Cu893  O904    1.951   .     S
Cu893  O908    1.953   .     S
Cu894  O909    1.951   .     S
Cu894  O905    1.953   .     S
Cu894  N903    2.041   .     S
Cu894  O907    1.939   .     S
Cu894  O911    1.949   .     S
C912   O914    1.222   .     D
C912   H913    1.078   .     S
C915   H916    1.083   .     S
C915   O917    1.221   .     D
C918   N919    1.158   .     T
C920   O922    1.221   .     D
C920   H921    1.079   .     S
C923   N924    1.157   .     T
C925   H926    1.078   .     S
C925   O927    1.221   .     D
C928   H929    1.081   .     S
C928   O930    1.221   .     D
C931   O933    1.221   .     D
C931   H932    1.083   .     S
C934   H935    1.086   .     S
C934   O432    1.221   1_455 S
O936   C358    1.221   1_556 S
C937   O977    1.300   .     A
C937   O976    1.301   .     A
C937   C953    1.440   .     S
C938   C939    1.414   .     A
C938   C292    1.425   1_556 S
C938   C316    1.412   1_556 S
C939   C946    1.417   .     A
C939   C943    1.404   .     A
C940   C944    1.420   .     A
C941   C942    1.408   .     A
C941   C292    1.419   1_556 S
C941   C312    1.404   1_556 S
C942   C943    1.394   .     A
C942   C1000   1.476   .     S
C943   H972    1.077   .     S
C944   C961    1.410   .     A
C944   C1003   1.492   .     S
C945   C960    1.395   .     A
C945   C961    1.419   .     A
C945   C984    1.491   .     S
C946   C962    1.403   .     A
C946   C948    1.482   .     S
C947   H973    1.080   .     S
C947   C953    1.393   .     A
C947   C1165   1.382   .     S
C948   O979    1.308   .     A
C948   O978    1.310   .     A
C949   C950    1.398   .     A
C949   H967    1.082   .     S
C950   C958    1.444   .     S
C950   C951    1.414   .     A
C951   C987    1.487   .     S
C952   H968    1.082   .     S
C952   C953    1.396   .     A
C952   C1167   1.396   .     S
C954   N975    1.376   .     A
C954   C990    1.441   .     S
C954   C1027   1.429   .     S
C955   C992    1.480   .     S
C955   N974    1.375   .     A
C956   N974    1.371   .     A
C956   C995    1.442   .     S
C957   C997    1.481   .     S
C957   N975    1.380   .     A
C957   C1028   1.432   .     S
C958   O980    1.299   .     A
C958   O981    1.301   .     A
C959   C961    1.473   .     S
C959   O983    1.302   .     A
C959   O982    1.310   .     A
C960   H969    1.082   .     S
C962   C963    1.402   .     A
C962   H970    1.083   .     S
C963   C316    1.401   1_556 S
C963   C358    1.480   1_556 S
C964   H971    1.083   .     S
Cu965  N974    2.041   .     S
Cu965  O978    1.949   .     S
Cu965  O982    1.939   .     S
Cu965  Cu966   2.716   .     S
Cu965  O976    1.951   .     S
Cu965  O980    1.953   .     S
Cu966  O981    1.951   .     S
Cu966  O977    1.953   .     S
Cu966  N975    2.041   .     S
Cu966  O979    1.939   .     S
Cu966  O983    1.949   .     S
C984   O986    1.222   .     D
C984   H985    1.078   .     S
C987   H988    1.083   .     S
C987   O989    1.221   .     D
C990   N991    1.158   .     T
C992   O994    1.221   .     D
C992   H993    1.079   .     S
C995   N996    1.157   .     T
C997   H998    1.078   .     S
C997   O999    1.221   .     D
C1000  H1001   1.081   .     S
C1000  O1002   1.221   .     D
C1003  O1005   1.221   .     D
C1003  H1004   1.083   .     S
C1006  H1007   1.086   .     S
O1008  C430    1.221   1_556 S
C1009  O1049   1.300   .     A
C1009  O1048   1.301   .     A
C1009  C1025   1.440   .     S
C1010  C1011   1.414   .     A
C1010  C364    1.425   1_556 S
C1010  C388    1.412   1_556 S
C1011  C1018   1.417   .     A
C1011  C1015   1.404   .     A
C1012  C1016   1.420   .     A
C1013  C1014   1.408   .     A
C1013  C364    1.419   1_556 S
C1013  C384    1.404   1_556 S
C1014  C1015   1.394   .     A
C1014  C1072   1.476   .     S
C1015  H1044   1.077   .     S
C1016  C1033   1.410   .     A
C1016  C1075   1.492   .     S
C1017  C1032   1.395   .     A
C1017  C1033   1.419   .     A
C1017  C1056   1.491   .     S
C1018  C1034   1.403   .     A
C1018  C1020   1.482   .     S
C1019  H1045   1.080   .     S
C1019  C1025   1.393   .     A
C1019  C1237   1.382   .     S
C1020  O1051   1.308   .     A
C1020  O1050   1.310   .     A
C1021  C1022   1.398   .     A
C1021  H1039   1.082   .     S
C1022  C1030   1.444   .     S
C1022  C1023   1.414   .     A
C1023  C1059   1.487   .     S
C1024  H1040   1.082   .     S
C1024  C1025   1.396   .     A
C1024  C1239   1.396   .     S
C1026  N1047   1.376   .     A
C1026  C1062   1.441   .     S
C1026  C883    1.429   1_655 S
C1027  C1064   1.480   .     S
C1027  N1046   1.375   .     A
C1028  N1046   1.371   .     A
C1028  C1067   1.442   .     S
C1029  C1069   1.481   .     S
C1029  N1047   1.380   .     A
C1029  C884    1.432   1_655 S
C1030  O1052   1.299   .     A
C1030  O1053   1.301   .     A
C1031  C1033   1.473   .     S
C1031  O1055   1.302   .     A
C1031  O1054   1.310   .     A
C1032  H1041   1.082   .     S
C1034  C1035   1.402   .     A
C1034  H1042   1.083   .     S
C1035  C388    1.401   1_556 S
C1035  C430    1.480   1_556 S
C1036  H1043   1.083   .     S
Cu1037 N1046   2.041   .     S
Cu1037 O1050   1.949   .     S
Cu1037 O1054   1.939   .     S
Cu1037 Cu1038  2.716   .     S
Cu1037 O1048   1.951   .     S
Cu1037 O1052   1.953   .     S
Cu1038 O1053   1.951   .     S
Cu1038 O1049   1.953   .     S
Cu1038 N1047   2.041   .     S
Cu1038 O1051   1.939   .     S
Cu1038 O1055   1.949   .     S
C1056  O1058   1.222   .     D
C1056  H1057   1.078   .     S
C1059  H1060   1.083   .     S
C1059  O1061   1.221   .     D
C1062  N1063   1.158   .     T
C1064  O1066   1.221   .     D
C1064  H1065   1.079   .     S
C1067  N1068   1.157   .     T
C1069  H1070   1.078   .     S
C1069  O1071   1.221   .     D
C1072  H1073   1.081   .     S
C1072  O1074   1.221   .     D
C1075  O1077   1.221   .     D
C1075  H1076   1.083   .     S
C1078  H1079   1.086   .     S
O1080  C286    1.221   1_656 S
C1081  O1121   1.300   .     A
C1081  O1120   1.301   .     A
C1081  C1097   1.440   .     S
C1082  C1083   1.414   .     A
C1082  C436    1.425   1_556 S
C1082  C460    1.412   1_556 S
C1083  C1090   1.417   .     A
C1083  C1087   1.404   .     A
C1084  C1088   1.420   .     A
C1085  C1086   1.408   .     A
C1085  C436    1.419   1_556 S
C1085  C456    1.404   1_556 S
C1086  C1087   1.394   .     A
C1086  C1144   1.476   .     S
C1087  H1116   1.077   .     S
C1088  C1105   1.410   .     A
C1088  C1147   1.492   .     S
C1089  C1104   1.395   .     A
C1089  C1105   1.419   .     A
C1089  C1128   1.491   .     S
C1090  C1106   1.403   .     A
C1090  C1092   1.482   .     S
C1091  H1117   1.080   .     S
C1091  C1097   1.393   .     A
C1091  C661    1.382   1_565 S
C1092  O1123   1.308   .     A
C1092  O1122   1.310   .     A
C1093  C1094   1.398   .     A
C1093  H1111   1.082   .     S
C1094  C1102   1.444   .     S
C1094  C1095   1.414   .     A
C1095  C1131   1.487   .     S
C1096  H1112   1.082   .     S
C1096  C1097   1.396   .     A
C1096  C663    1.396   1_565 S
C1098  N1119   1.376   .     A
C1098  C1134   1.441   .     S
C1098  C1171   1.429   .     S
C1099  C1136   1.480   .     S
C1099  N1118   1.375   .     A
C1099  C1242   1.429   1_455 S
C1100  N1118   1.371   .     A
C1100  C1139   1.442   .     S
C1100  C1245   1.432   1_455 S
C1101  C1141   1.481   .     S
C1101  N1119   1.380   .     A
C1101  C1172   1.432   .     S
C1102  O1124   1.299   .     A
C1102  O1125   1.301   .     A
C1103  C1105   1.473   .     S
C1103  O1127   1.302   .     A
C1103  O1126   1.310   .     A
C1104  H1113   1.082   .     S
C1106  C1107   1.402   .     A
C1106  H1114   1.083   .     S
C1107  C460    1.401   1_556 S
C1107  C502    1.480   1_556 S
C1108  H1115   1.083   .     S
Cu1109 N1118   2.041   .     S
Cu1109 O1122   1.949   .     S
Cu1109 O1126   1.939   .     S
Cu1109 Cu1110  2.716   .     S
Cu1109 O1120   1.951   .     S
Cu1109 O1124   1.953   .     S
Cu1110 O1125   1.951   .     S
Cu1110 O1121   1.953   .     S
Cu1110 N1119   2.041   .     S
Cu1110 O1123   1.939   .     S
Cu1110 O1127   1.949   .     S
C1128  O1130   1.222   .     D
C1128  H1129   1.078   .     S
C1131  H1132   1.083   .     S
C1131  O1133   1.221   .     D
C1134  N1135   1.158   .     T
C1136  O1138   1.221   .     D
C1136  H1137   1.079   .     S
C1139  N1140   1.157   .     T
C1141  H1142   1.078   .     S
C1141  O1143   1.221   .     D
C1144  H1145   1.081   .     S
C1144  O1146   1.221   .     D
C1147  O1149   1.221   .     D
C1147  H1148   1.083   .     S
C1150  H1151   1.086   .     S
C1150  O648    1.221   1_455 S
O1152  C574    1.221   1_556 S
C1153  O1193   1.300   .     A
C1153  O1192   1.301   .     A
C1153  C1169   1.440   .     S
C1154  C1155   1.414   .     A
C1154  C508    1.425   1_556 S
C1154  C532    1.412   1_556 S
C1155  C1162   1.417   .     A
C1155  C1159   1.404   .     A
C1156  C1160   1.420   .     A
C1157  C1158   1.408   .     A
C1157  C508    1.419   1_556 S
C1157  C528    1.404   1_556 S
C1158  C1159   1.394   .     A
C1158  C1216   1.476   .     S
C1159  H1188   1.077   .     S
C1160  C1177   1.410   .     A
C1160  C1219   1.492   .     S
C1161  C1176   1.395   .     A
C1161  C1177   1.419   .     A
C1161  C1200   1.491   .     S
C1162  C1178   1.403   .     A
C1162  C1164   1.482   .     S
C1163  H1189   1.080   .     S
C1163  C1169   1.393   .     A
C1163  C733    1.382   1_565 S
C1164  O1195   1.308   .     A
C1164  O1194   1.310   .     A
C1165  C1166   1.398   .     A
C1165  H1183   1.082   .     S
C1166  C1174   1.444   .     S
C1166  C1167   1.414   .     A
C1167  C1203   1.487   .     S
C1168  H1184   1.082   .     S
C1168  C1169   1.396   .     A
C1168  C735    1.396   1_565 S
C1170  N1191   1.376   .     A
C1170  C1206   1.441   .     S
C1170  C1243   1.429   .     S
C1171  C1208   1.480   .     S
C1171  N1190   1.375   .     A
C1172  N1190   1.371   .     A
C1172  C1211   1.442   .     S
C1173  C1213   1.481   .     S
C1173  N1191   1.380   .     A
C1173  C1244   1.432   .     S
C1174  O1196   1.299   .     A
C1174  O1197   1.301   .     A
C1175  C1177   1.473   .     S
C1175  O1199   1.302   .     A
C1175  O1198   1.310   .     A
C1176  H1185   1.082   .     S
C1178  C1179   1.402   .     A
C1178  H1186   1.083   .     S
C1179  C532    1.401   1_556 S
C1179  C574    1.480   1_556 S
C1180  H1187   1.083   .     S
Cu1181 N1190   2.041   .     S
Cu1181 O1194   1.949   .     S
Cu1181 O1198   1.939   .     S
Cu1181 Cu1182  2.716   .     S
Cu1181 O1192   1.951   .     S
Cu1181 O1196   1.953   .     S
Cu1182 O1197   1.951   .     S
Cu1182 O1193   1.953   .     S
Cu1182 N1191   2.041   .     S
Cu1182 O1195   1.939   .     S
Cu1182 O1199   1.949   .     S
C1200  O1202   1.222   .     D
C1200  H1201   1.078   .     S
C1203  H1204   1.083   .     S
C1203  O1205   1.221   .     D
C1206  N1207   1.158   .     T
C1208  O1210   1.221   .     D
C1208  H1209   1.079   .     S
C1211  N1212   1.157   .     T
C1213  H1214   1.078   .     S
C1213  O1215   1.221   .     D
C1216  H1217   1.081   .     S
C1216  O1218   1.221   .     D
C1219  O1221   1.221   .     D
C1219  H1220   1.083   .     S
C1222  H1223   1.086   .     S
O1224  C646    1.221   1_556 S
C1225  O1265   1.300   .     A
C1225  O1264   1.301   .     A
C1225  C1241   1.440   .     S
C1226  C1227   1.414   .     A
C1226  C580    1.425   1_556 S
C1226  C604    1.412   1_556 S
C1227  C1234   1.417   .     A
C1227  C1231   1.404   .     A
C1228  C1232   1.420   .     A
C1229  C1230   1.408   .     A
C1229  C580    1.419   1_556 S
C1229  C600    1.404   1_556 S
C1230  C1231   1.394   .     A
C1230  C1288   1.476   .     S
C1231  H1260   1.077   .     S
C1232  C1249   1.410   .     A
C1232  C1291   1.492   .     S
C1233  C1248   1.395   .     A
C1233  C1249   1.419   .     A
C1233  C1272   1.491   .     S
C1234  C1250   1.403   .     A
C1234  C1236   1.482   .     S
C1235  H1261   1.080   .     S
C1235  C1241   1.393   .     A
C1235  C805    1.382   1_565 S
C1236  O1267   1.308   .     A
C1236  O1266   1.310   .     A
C1237  C1238   1.398   .     A
C1237  H1255   1.082   .     S
C1238  C1246   1.444   .     S
C1238  C1239   1.414   .     A
C1239  C1275   1.487   .     S
C1240  H1256   1.082   .     S
C1240  C1241   1.396   .     A
C1240  C807    1.396   1_565 S
C1242  N1263   1.376   .     A
C1242  C1278   1.441   .     S
C1242  C1099   1.429   1_655 S
C1243  C1280   1.480   .     S
C1243  N1262   1.375   .     A
C1244  N1262   1.371   .     A
C1244  C1283   1.442   .     S
C1245  C1285   1.481   .     S
C1245  N1263   1.380   .     A
C1245  C1100   1.432   1_655 S
C1246  O1268   1.299   .     A
C1246  O1269   1.301   .     A
C1247  C1249   1.473   .     S
C1247  O1271   1.302   .     A
C1247  O1270   1.310   .     A
C1248  H1257   1.082   .     S
C1250  C1251   1.402   .     A
C1250  H1258   1.083   .     S
C1251  C604    1.401   1_556 S
C1251  C646    1.480   1_556 S
C1252  H1259   1.083   .     S
Cu1253 N1262   2.041   .     S
Cu1253 O1266   1.949   .     S
Cu1253 O1270   1.939   .     S
Cu1253 Cu1254  2.716   .     S
Cu1253 O1264   1.951   .     S
Cu1253 O1268   1.953   .     S
Cu1254 O1269   1.951   .     S
Cu1254 O1265   1.953   .     S
Cu1254 N1263   2.041   .     S
Cu1254 O1267   1.939   .     S
Cu1254 O1271   1.949   .     S
C1272  O1274   1.222   .     D
C1272  H1273   1.078   .     S
C1275  H1276   1.083   .     S
C1275  O1277   1.221   .     D
C1278  N1279   1.158   .     T
C1280  O1282   1.221   .     D
C1280  H1281   1.079   .     S
C1283  N1284   1.157   .     T
C1285  H1286   1.078   .     S
C1285  O1287   1.221   .     D
C1288  H1289   1.081   .     S
C1288  O1290   1.221   .     D
C1291  O1293   1.221   .     D
C1291  H1292   1.083   .     S
C1294  H1295   1.086   .     S
O1296  C502    1.221   1_656 S
