data_str_m2_o1_o18_pcu_sym.208
_audit_creation_date              2020-01-03
_audit_creation_method            'Materials Studio'
_symmetry_space_group_name_H-M    'P1'
_symmetry_Int_Tables_number       1
_symmetry_cell_setting            triclinic
loop_
_symmetry_equiv_pos_as_xyz
  x,y,z
_cell_length_a                    28.5891
_cell_length_b                    32.3883
_cell_length_c                    30.8696
_cell_angle_alpha                 89.8212
_cell_angle_beta                  74.4454
_cell_angle_gamma                 89.8709
loop_
_atom_site_label
_atom_site_type_symbol
_atom_site_fract_x
_atom_site_fract_y
_atom_site_fract_z
_atom_site_U_iso_or_equiv
_atom_site_adp_type
_atom_site_occupancy
C1     C     0.33299   0.08745   0.25134   0.00000  Uiso   1.00
C2     C     0.00034   0.24588   0.24866   0.00000  Uiso   1.00
C3     C     0.19627   0.16910   0.04742   0.00000  Uiso   1.00
C4     C     0.13706   0.16423   0.45258   0.00000  Uiso   1.00
C5     C     0.24289   0.18164   0.02473   0.00000  Uiso   1.00
C6     C     0.09044   0.15169   0.47527   0.00000  Uiso   1.00
C7     C     0.29292   0.02029   0.27853   0.00000  Uiso   1.00
C8     C     0.04041   0.31304   0.22147   0.00000  Uiso   1.00
C9     C     0.29347   0.31097   0.27506   0.00000  Uiso   1.00
C10    C     0.03986   0.02236   0.22494   0.00000  Uiso   1.00
C11    C     0.00036   0.29052   0.24757   0.00000  Uiso   1.00
C12    C     0.33298   0.04282   0.25243   0.00000  Uiso   1.00
C13    C     0.18323   0.14152   0.27852   0.00000  Uiso   1.00
C14    C     0.15010   0.19181   0.22148   0.00000  Uiso   1.00
C15    C     0.13364   0.14158   0.27855   0.00000  Uiso   1.00
C16    C     0.19969   0.19176   0.22145   0.00000  Uiso   1.00
C17    C     0.30609   0.16719   0.33612   0.00000  Uiso   1.00
C18    C     0.02724   0.16614   0.16388   0.00000  Uiso   1.00
C19    C     0.29099   0.17093   0.38521   0.00000  Uiso   1.00
C20    C     0.04234   0.16240   0.11479   0.00000  Uiso   1.00
C21    C     0.30600   0.19095   0.45561   0.00000  Uiso   1.00
C22    C     0.02734   0.14238   0.04439   0.00000  Uiso   1.00
C23    C     0.32254   0.18597   0.40917   0.00000  Uiso   1.00
C24    C     0.01080   0.14737   0.09083   0.00000  Uiso   1.00
C25    C     0.24289   0.16197   0.40793   0.00000  Uiso   1.00
C26    C     0.09044   0.17136   0.09207   0.00000  Uiso   1.00
C27    C     0.22399   0.17157   0.45350   0.00000  Uiso   1.00
C28    C     0.10934   0.16177   0.04650   0.00000  Uiso   1.00
C29    C     0.25731   0.18271   0.47804   0.00000  Uiso   1.00
C30    C     0.07602   0.15062   0.02196   0.00000  Uiso   1.00
C31    C     0.17378   0.16725   0.47597   0.00000  Uiso   1.00
C32    C     0.15955   0.16608   0.02403   0.00000  Uiso   1.00
Cu33   Cu    0.04689   0.16667   0.25000   0.00000  Uiso   1.00
Cu34   Cu    0.28645   0.16666   0.25000   0.00000  Uiso   1.00
H35    H     0.26947   0.18630   0.04352   0.00000  Uiso   1.00
H36    H     0.06386   0.14704   0.45648   0.00000  Uiso   1.00
H37    H     0.11219   0.18763   0.11006   0.00000  Uiso   1.00
H38    H     0.22114   0.14571   0.38993   0.00000  Uiso   1.00
H39    H     0.30676   0.14003   0.10782   0.00000  Uiso   1.00
H40    H     0.02657   0.19331   0.39218   0.00000  Uiso   1.00
H41    H     0.33131   0.20078   0.47409   0.00000  Uiso   1.00
H42    H     0.00202   0.13255   0.02591   0.00000  Uiso   1.00
H43    H     0.26307   0.29359   0.29549   0.00000  Uiso   1.00
H44    H     0.07026   0.03975   0.20451   0.00000  Uiso   1.00
H45    H     0.19528   0.12137   0.30140   0.00000  Uiso   1.00
H46    H     0.13805   0.21196   0.19860   0.00000  Uiso   1.00
H47    H     0.10838   0.12150   0.30146   0.00000  Uiso   1.00
H48    H     0.22495   0.21184   0.19854   0.00000  Uiso   1.00
N49    N     0.11736   0.16668   0.24999   0.00000  Uiso   1.00
N50    N     0.21597   0.16666   0.25001   0.00000  Uiso   1.00
O51    O     0.03958   0.10655   0.25000   0.00000  Uiso   1.00
O52    O     0.29375   0.22678   0.25000   0.00000  Uiso   1.00
O53    O     0.29372   0.10654   0.25000   0.00000  Uiso   1.00
O54    O     0.03961   0.22679   0.24999   0.00000  Uiso   1.00
O55    O     0.01852   0.16668   0.31491   0.00000  Uiso   1.00
O56    O     0.31481   0.16666   0.18508   0.00000  Uiso   1.00
O57    O     0.27267   0.16667   0.31492   0.00000  Uiso   1.00
O58    O     0.06067   0.16667   0.18508   0.00000  Uiso   1.00
Br59   Br    0.19127   0.14684   0.10659   0.00000  Uiso   1.00
Br60   Br    0.14207   0.18649   0.39341   0.00000  Uiso   1.00
O61    O     0.25352   0.03829   0.30854   0.00000  Uiso   1.00
H62    H     0.26321   0.06545   0.31785   0.00000  Uiso   1.00
O63    O     0.07981   0.29505   0.19146   0.00000  Uiso   1.00
H64    H     0.07012   0.26788   0.18215   0.00000  Uiso   1.00
C65    C     0.66632   0.08745   0.25134   0.00000  Uiso   1.00
C66    C     0.33368   0.24588   0.24866   0.00000  Uiso   1.00
C67    C     0.52961   0.16910   0.04742   0.00000  Uiso   1.00
C68    C     0.47039   0.16423   0.45258   0.00000  Uiso   1.00
C69    C     0.57623   0.18164   0.02473   0.00000  Uiso   1.00
C70    C     0.42377   0.15169   0.47527   0.00000  Uiso   1.00
C71    C     0.62625   0.02029   0.27853   0.00000  Uiso   1.00
C72    C     0.37375   0.31304   0.22147   0.00000  Uiso   1.00
C73    C     0.62681   0.31097   0.27506   0.00000  Uiso   1.00
C74    C     0.37319   0.02236   0.22494   0.00000  Uiso   1.00
C75    C     0.33369   0.29052   0.24757   0.00000  Uiso   1.00
C76    C     0.66631   0.04282   0.25243   0.00000  Uiso   1.00
C77    C     0.51657   0.14152   0.27852   0.00000  Uiso   1.00
C78    C     0.48343   0.19181   0.22148   0.00000  Uiso   1.00
C79    C     0.46698   0.14158   0.27855   0.00000  Uiso   1.00
C80    C     0.53302   0.19176   0.22145   0.00000  Uiso   1.00
C81    C     0.63943   0.16719   0.33612   0.00000  Uiso   1.00
C82    C     0.36057   0.16614   0.16388   0.00000  Uiso   1.00
C83    C     0.62433   0.17093   0.38521   0.00000  Uiso   1.00
C84    C     0.37567   0.16240   0.11479   0.00000  Uiso   1.00
C85    C     0.63933   0.19095   0.45561   0.00000  Uiso   1.00
C86    C     0.36067   0.14238   0.04439   0.00000  Uiso   1.00
C87    C     0.65587   0.18597   0.40917   0.00000  Uiso   1.00
C88    C     0.34413   0.14737   0.09083   0.00000  Uiso   1.00
C89    C     0.57623   0.16197   0.40793   0.00000  Uiso   1.00
C90    C     0.42378   0.17136   0.09207   0.00000  Uiso   1.00
C91    C     0.55732   0.17157   0.45350   0.00000  Uiso   1.00
C92    C     0.44268   0.16177   0.04650   0.00000  Uiso   1.00
C93    C     0.59064   0.18271   0.47804   0.00000  Uiso   1.00
C94    C     0.40936   0.15062   0.02196   0.00000  Uiso   1.00
C95    C     0.50711   0.16725   0.47597   0.00000  Uiso   1.00
C96    C     0.49289   0.16608   0.02403   0.00000  Uiso   1.00
Cu97   Cu    0.38022   0.16667   0.25000   0.00000  Uiso   1.00
Cu98   Cu    0.61978   0.16666   0.25000   0.00000  Uiso   1.00
H99    H     0.60281   0.18630   0.04352   0.00000  Uiso   1.00
H100   H     0.39719   0.14704   0.45648   0.00000  Uiso   1.00
H101   H     0.44552   0.18763   0.11006   0.00000  Uiso   1.00
H102   H     0.55448   0.14571   0.38993   0.00000  Uiso   1.00
H103   H     0.64010   0.14003   0.10782   0.00000  Uiso   1.00
H104   H     0.35990   0.19331   0.39218   0.00000  Uiso   1.00
H105   H     0.66464   0.20078   0.47409   0.00000  Uiso   1.00
H106   H     0.33536   0.13255   0.02591   0.00000  Uiso   1.00
H107   H     0.59641   0.29359   0.29549   0.00000  Uiso   1.00
H108   H     0.40359   0.03975   0.20451   0.00000  Uiso   1.00
H109   H     0.52861   0.12137   0.30140   0.00000  Uiso   1.00
H110   H     0.47139   0.21196   0.19860   0.00000  Uiso   1.00
H111   H     0.44171   0.12150   0.30146   0.00000  Uiso   1.00
H112   H     0.55829   0.21184   0.19854   0.00000  Uiso   1.00
N113   N     0.45069   0.16668   0.24999   0.00000  Uiso   1.00
N114   N     0.54931   0.16666   0.25001   0.00000  Uiso   1.00
O115   O     0.37291   0.10655   0.25000   0.00000  Uiso   1.00
O116   O     0.62709   0.22678   0.25000   0.00000  Uiso   1.00
O117   O     0.62706   0.10654   0.25000   0.00000  Uiso   1.00
O118   O     0.37294   0.22679   0.24999   0.00000  Uiso   1.00
O119   O     0.35186   0.16668   0.31491   0.00000  Uiso   1.00
O120   O     0.64814   0.16666   0.18508   0.00000  Uiso   1.00
O121   O     0.60600   0.16667   0.31492   0.00000  Uiso   1.00
O122   O     0.39400   0.16667   0.18508   0.00000  Uiso   1.00
Br123  Br    0.52460   0.14684   0.10659   0.00000  Uiso   1.00
Br124  Br    0.47540   0.18649   0.39341   0.00000  Uiso   1.00
O125   O     0.58685   0.03829   0.30854   0.00000  Uiso   1.00
H126   H     0.59655   0.06545   0.31785   0.00000  Uiso   1.00
O127   O     0.41315   0.29505   0.19146   0.00000  Uiso   1.00
H128   H     0.40345   0.26788   0.18215   0.00000  Uiso   1.00
C129   C     0.99966   0.08745   0.25134   0.00000  Uiso   1.00
C130   C     0.66701   0.24588   0.24866   0.00000  Uiso   1.00
C131   C     0.86294   0.16910   0.04742   0.00000  Uiso   1.00
C132   C     0.80373   0.16423   0.45258   0.00000  Uiso   1.00
C133   C     0.90956   0.18164   0.02473   0.00000  Uiso   1.00
C134   C     0.75711   0.15169   0.47527   0.00000  Uiso   1.00
C135   C     0.95959   0.02029   0.27853   0.00000  Uiso   1.00
C136   C     0.70708   0.31304   0.22147   0.00000  Uiso   1.00
C137   C     0.96014   0.31097   0.27506   0.00000  Uiso   1.00
C138   C     0.70653   0.02236   0.22494   0.00000  Uiso   1.00
C139   C     0.66702   0.29052   0.24757   0.00000  Uiso   1.00
C140   C     0.99964   0.04282   0.25243   0.00000  Uiso   1.00
C141   C     0.84990   0.14152   0.27852   0.00000  Uiso   1.00
C142   C     0.81677   0.19181   0.22148   0.00000  Uiso   1.00
C143   C     0.80031   0.14158   0.27855   0.00000  Uiso   1.00
C144   C     0.86636   0.19176   0.22145   0.00000  Uiso   1.00
C145   C     0.97276   0.16719   0.33612   0.00000  Uiso   1.00
C146   C     0.69391   0.16614   0.16388   0.00000  Uiso   1.00
C147   C     0.95766   0.17093   0.38521   0.00000  Uiso   1.00
C148   C     0.70901   0.16240   0.11479   0.00000  Uiso   1.00
C149   C     0.97266   0.19095   0.45561   0.00000  Uiso   1.00
C150   C     0.69400   0.14238   0.04439   0.00000  Uiso   1.00
C151   C     0.98920   0.18597   0.40917   0.00000  Uiso   1.00
C152   C     0.67747   0.14737   0.09083   0.00000  Uiso   1.00
C153   C     0.90956   0.16197   0.40793   0.00000  Uiso   1.00
C154   C     0.75711   0.17136   0.09207   0.00000  Uiso   1.00
C155   C     0.89066   0.17157   0.45350   0.00000  Uiso   1.00
C156   C     0.77601   0.16177   0.04650   0.00000  Uiso   1.00
C157   C     0.92398   0.18271   0.47804   0.00000  Uiso   1.00
C158   C     0.74269   0.15062   0.02196   0.00000  Uiso   1.00
C159   C     0.84045   0.16725   0.47597   0.00000  Uiso   1.00
C160   C     0.82622   0.16608   0.02403   0.00000  Uiso   1.00
Cu161  Cu    0.71355   0.16667   0.25000   0.00000  Uiso   1.00
Cu162  Cu    0.95311   0.16666   0.25000   0.00000  Uiso   1.00
H163   H     0.93614   0.18630   0.04352   0.00000  Uiso   1.00
H164   H     0.73053   0.14704   0.45648   0.00000  Uiso   1.00
H165   H     0.77886   0.18763   0.11006   0.00000  Uiso   1.00
H166   H     0.88781   0.14571   0.38993   0.00000  Uiso   1.00
H167   H     0.97343   0.14003   0.10782   0.00000  Uiso   1.00
H168   H     0.69324   0.19331   0.39218   0.00000  Uiso   1.00
H169   H     0.99798   0.20078   0.47409   0.00000  Uiso   1.00
H170   H     0.66869   0.13255   0.02591   0.00000  Uiso   1.00
H171   H     0.92974   0.29359   0.29549   0.00000  Uiso   1.00
H172   H     0.73693   0.03975   0.20451   0.00000  Uiso   1.00
H173   H     0.86195   0.12137   0.30140   0.00000  Uiso   1.00
H174   H     0.80472   0.21196   0.19860   0.00000  Uiso   1.00
H175   H     0.77505   0.12150   0.30146   0.00000  Uiso   1.00
H176   H     0.89162   0.21184   0.19854   0.00000  Uiso   1.00
N177   N     0.78403   0.16668   0.24999   0.00000  Uiso   1.00
N178   N     0.88264   0.16666   0.25001   0.00000  Uiso   1.00
O179   O     0.70625   0.10655   0.25000   0.00000  Uiso   1.00
O180   O     0.96042   0.22678   0.25000   0.00000  Uiso   1.00
O181   O     0.96039   0.10654   0.25000   0.00000  Uiso   1.00
O182   O     0.70628   0.22679   0.24999   0.00000  Uiso   1.00
O183   O     0.68519   0.16668   0.31491   0.00000  Uiso   1.00
O184   O     0.98148   0.16666   0.18508   0.00000  Uiso   1.00
O185   O     0.93933   0.16667   0.31492   0.00000  Uiso   1.00
O186   O     0.72733   0.16667   0.18508   0.00000  Uiso   1.00
Br187  Br    0.85793   0.14684   0.10659   0.00000  Uiso   1.00
Br188  Br    0.80873   0.18649   0.39341   0.00000  Uiso   1.00
O189   O     0.92019   0.03829   0.30854   0.00000  Uiso   1.00
H190   H     0.92988   0.06545   0.31785   0.00000  Uiso   1.00
O191   O     0.74648   0.29505   0.19146   0.00000  Uiso   1.00
H192   H     0.73679   0.26788   0.18215   0.00000  Uiso   1.00
C193   C     0.33299   0.42078   0.25134   0.00000  Uiso   1.00
C194   C     0.00034   0.57922   0.24866   0.00000  Uiso   1.00
C195   C     0.19627   0.50244   0.04742   0.00000  Uiso   1.00
C196   C     0.13706   0.49756   0.45258   0.00000  Uiso   1.00
C197   C     0.24289   0.51497   0.02473   0.00000  Uiso   1.00
C198   C     0.09044   0.48503   0.47527   0.00000  Uiso   1.00
C199   C     0.29292   0.35363   0.27853   0.00000  Uiso   1.00
C200   C     0.04041   0.64637   0.22147   0.00000  Uiso   1.00
C201   C     0.29347   0.64431   0.27506   0.00000  Uiso   1.00
C202   C     0.03986   0.35569   0.22494   0.00000  Uiso   1.00
C203   C     0.00036   0.62385   0.24757   0.00000  Uiso   1.00
C204   C     0.33298   0.37615   0.25243   0.00000  Uiso   1.00
C205   C     0.18323   0.47486   0.27852   0.00000  Uiso   1.00
C206   C     0.15010   0.52514   0.22148   0.00000  Uiso   1.00
C207   C     0.13364   0.47491   0.27855   0.00000  Uiso   1.00
C208   C     0.19969   0.52509   0.22145   0.00000  Uiso   1.00
C209   C     0.30609   0.50053   0.33612   0.00000  Uiso   1.00
C210   C     0.02724   0.49947   0.16388   0.00000  Uiso   1.00
C211   C     0.29099   0.50426   0.38521   0.00000  Uiso   1.00
C212   C     0.04234   0.49574   0.11479   0.00000  Uiso   1.00
C213   C     0.30600   0.52428   0.45561   0.00000  Uiso   1.00
C214   C     0.02734   0.47572   0.04439   0.00000  Uiso   1.00
C215   C     0.32254   0.51930   0.40917   0.00000  Uiso   1.00
C216   C     0.01080   0.48070   0.09083   0.00000  Uiso   1.00
C217   C     0.24289   0.49530   0.40793   0.00000  Uiso   1.00
C218   C     0.09044   0.50469   0.09207   0.00000  Uiso   1.00
C219   C     0.22399   0.50490   0.45350   0.00000  Uiso   1.00
C220   C     0.10934   0.49510   0.04650   0.00000  Uiso   1.00
C221   C     0.25731   0.51604   0.47804   0.00000  Uiso   1.00
C222   C     0.07602   0.48396   0.02196   0.00000  Uiso   1.00
C223   C     0.17378   0.50058   0.47597   0.00000  Uiso   1.00
C224   C     0.15955   0.49942   0.02403   0.00000  Uiso   1.00
Cu225  Cu    0.04689   0.50001   0.25000   0.00000  Uiso   1.00
Cu226  Cu    0.28645   0.49999   0.25000   0.00000  Uiso   1.00
H227   H     0.26947   0.51963   0.04352   0.00000  Uiso   1.00
H228   H     0.06386   0.48037   0.45648   0.00000  Uiso   1.00
H229   H     0.11219   0.52096   0.11006   0.00000  Uiso   1.00
H230   H     0.22114   0.47904   0.38993   0.00000  Uiso   1.00
H231   H     0.30676   0.47336   0.10782   0.00000  Uiso   1.00
H232   H     0.02657   0.52664   0.39218   0.00000  Uiso   1.00
H233   H     0.33131   0.53411   0.47409   0.00000  Uiso   1.00
H234   H     0.00202   0.46589   0.02591   0.00000  Uiso   1.00
H235   H     0.26307   0.62692   0.29549   0.00000  Uiso   1.00
H236   H     0.07026   0.37308   0.20451   0.00000  Uiso   1.00
H237   H     0.19528   0.45471   0.30140   0.00000  Uiso   1.00
H238   H     0.13805   0.54529   0.19860   0.00000  Uiso   1.00
H239   H     0.10838   0.45483   0.30146   0.00000  Uiso   1.00
H240   H     0.22495   0.54517   0.19854   0.00000  Uiso   1.00
N241   N     0.11736   0.50001   0.24999   0.00000  Uiso   1.00
N242   N     0.21597   0.49999   0.25001   0.00000  Uiso   1.00
O243   O     0.03958   0.43989   0.25000   0.00000  Uiso   1.00
O244   O     0.29375   0.56011   0.25000   0.00000  Uiso   1.00
O245   O     0.29372   0.43988   0.25000   0.00000  Uiso   1.00
O246   O     0.03961   0.56012   0.24999   0.00000  Uiso   1.00
O247   O     0.01852   0.50001   0.31491   0.00000  Uiso   1.00
O248   O     0.31481   0.49999   0.18508   0.00000  Uiso   1.00
O249   O     0.27267   0.50000   0.31492   0.00000  Uiso   1.00
O250   O     0.06067   0.50000   0.18508   0.00000  Uiso   1.00
Br251  Br    0.19127   0.48018   0.10659   0.00000  Uiso   1.00
Br252  Br    0.14207   0.51982   0.39341   0.00000  Uiso   1.00
O253   O     0.25352   0.37162   0.30854   0.00000  Uiso   1.00
H254   H     0.26321   0.39879   0.31785   0.00000  Uiso   1.00
O255   O     0.07981   0.62838   0.19146   0.00000  Uiso   1.00
H256   H     0.07012   0.60121   0.18215   0.00000  Uiso   1.00
C257   C     0.66632   0.42078   0.25134   0.00000  Uiso   1.00
C258   C     0.33368   0.57922   0.24866   0.00000  Uiso   1.00
C259   C     0.52961   0.50244   0.04742   0.00000  Uiso   1.00
C260   C     0.47039   0.49756   0.45258   0.00000  Uiso   1.00
C261   C     0.57623   0.51497   0.02473   0.00000  Uiso   1.00
C262   C     0.42377   0.48503   0.47527   0.00000  Uiso   1.00
C263   C     0.62625   0.35363   0.27853   0.00000  Uiso   1.00
C264   C     0.37375   0.64637   0.22147   0.00000  Uiso   1.00
C265   C     0.62681   0.64431   0.27506   0.00000  Uiso   1.00
C266   C     0.37319   0.35569   0.22494   0.00000  Uiso   1.00
C267   C     0.33369   0.62385   0.24757   0.00000  Uiso   1.00
C268   C     0.66631   0.37615   0.25243   0.00000  Uiso   1.00
C269   C     0.51657   0.47486   0.27852   0.00000  Uiso   1.00
C270   C     0.48343   0.52514   0.22148   0.00000  Uiso   1.00
C271   C     0.46698   0.47491   0.27855   0.00000  Uiso   1.00
C272   C     0.53302   0.52509   0.22145   0.00000  Uiso   1.00
C273   C     0.63943   0.50053   0.33612   0.00000  Uiso   1.00
C274   C     0.36057   0.49947   0.16388   0.00000  Uiso   1.00
C275   C     0.62433   0.50426   0.38521   0.00000  Uiso   1.00
C276   C     0.37567   0.49574   0.11479   0.00000  Uiso   1.00
C277   C     0.63933   0.52428   0.45561   0.00000  Uiso   1.00
C278   C     0.36067   0.47572   0.04439   0.00000  Uiso   1.00
C279   C     0.65587   0.51930   0.40917   0.00000  Uiso   1.00
C280   C     0.34413   0.48070   0.09083   0.00000  Uiso   1.00
C281   C     0.57623   0.49530   0.40793   0.00000  Uiso   1.00
C282   C     0.42378   0.50469   0.09207   0.00000  Uiso   1.00
C283   C     0.55732   0.50490   0.45350   0.00000  Uiso   1.00
C284   C     0.44268   0.49510   0.04650   0.00000  Uiso   1.00
C285   C     0.59064   0.51604   0.47804   0.00000  Uiso   1.00
C286   C     0.40936   0.48396   0.02196   0.00000  Uiso   1.00
C287   C     0.50711   0.50058   0.47597   0.00000  Uiso   1.00
C288   C     0.49289   0.49942   0.02403   0.00000  Uiso   1.00
Cu289  Cu    0.38022   0.50001   0.25000   0.00000  Uiso   1.00
Cu290  Cu    0.61978   0.49999   0.25000   0.00000  Uiso   1.00
H291   H     0.60281   0.51963   0.04352   0.00000  Uiso   1.00
H292   H     0.39719   0.48037   0.45648   0.00000  Uiso   1.00
H293   H     0.44552   0.52096   0.11006   0.00000  Uiso   1.00
H294   H     0.55448   0.47904   0.38993   0.00000  Uiso   1.00
H295   H     0.64010   0.47336   0.10782   0.00000  Uiso   1.00
H296   H     0.35990   0.52664   0.39218   0.00000  Uiso   1.00
H297   H     0.66464   0.53411   0.47409   0.00000  Uiso   1.00
H298   H     0.33536   0.46589   0.02591   0.00000  Uiso   1.00
H299   H     0.59641   0.62692   0.29549   0.00000  Uiso   1.00
H300   H     0.40359   0.37308   0.20451   0.00000  Uiso   1.00
H301   H     0.52861   0.45471   0.30140   0.00000  Uiso   1.00
H302   H     0.47139   0.54529   0.19860   0.00000  Uiso   1.00
H303   H     0.44171   0.45483   0.30146   0.00000  Uiso   1.00
H304   H     0.55829   0.54517   0.19854   0.00000  Uiso   1.00
N305   N     0.45069   0.50001   0.24999   0.00000  Uiso   1.00
N306   N     0.54931   0.49999   0.25001   0.00000  Uiso   1.00
O307   O     0.37291   0.43989   0.25000   0.00000  Uiso   1.00
O308   O     0.62709   0.56011   0.25000   0.00000  Uiso   1.00
O309   O     0.62706   0.43988   0.25000   0.00000  Uiso   1.00
O310   O     0.37294   0.56012   0.24999   0.00000  Uiso   1.00
O311   O     0.35186   0.50001   0.31491   0.00000  Uiso   1.00
O312   O     0.64814   0.49999   0.18508   0.00000  Uiso   1.00
O313   O     0.60600   0.50000   0.31492   0.00000  Uiso   1.00
O314   O     0.39400   0.50000   0.18508   0.00000  Uiso   1.00
Br315  Br    0.52460   0.48018   0.10659   0.00000  Uiso   1.00
Br316  Br    0.47540   0.51982   0.39341   0.00000  Uiso   1.00
O317   O     0.58685   0.37162   0.30854   0.00000  Uiso   1.00
H318   H     0.59655   0.39879   0.31785   0.00000  Uiso   1.00
O319   O     0.41315   0.62838   0.19146   0.00000  Uiso   1.00
H320   H     0.40345   0.60121   0.18215   0.00000  Uiso   1.00
C321   C     0.99966   0.42078   0.25134   0.00000  Uiso   1.00
C322   C     0.66701   0.57922   0.24866   0.00000  Uiso   1.00
C323   C     0.86294   0.50244   0.04742   0.00000  Uiso   1.00
C324   C     0.80373   0.49756   0.45258   0.00000  Uiso   1.00
C325   C     0.90956   0.51497   0.02473   0.00000  Uiso   1.00
C326   C     0.75711   0.48503   0.47527   0.00000  Uiso   1.00
C327   C     0.95959   0.35363   0.27853   0.00000  Uiso   1.00
C328   C     0.70708   0.64637   0.22147   0.00000  Uiso   1.00
C329   C     0.96014   0.64431   0.27506   0.00000  Uiso   1.00
C330   C     0.70653   0.35569   0.22494   0.00000  Uiso   1.00
C331   C     0.66702   0.62385   0.24757   0.00000  Uiso   1.00
C332   C     0.99964   0.37615   0.25243   0.00000  Uiso   1.00
C333   C     0.84990   0.47486   0.27852   0.00000  Uiso   1.00
C334   C     0.81677   0.52514   0.22148   0.00000  Uiso   1.00
C335   C     0.80031   0.47491   0.27855   0.00000  Uiso   1.00
C336   C     0.86636   0.52509   0.22145   0.00000  Uiso   1.00
C337   C     0.97276   0.50053   0.33612   0.00000  Uiso   1.00
C338   C     0.69391   0.49947   0.16388   0.00000  Uiso   1.00
C339   C     0.95766   0.50426   0.38521   0.00000  Uiso   1.00
C340   C     0.70901   0.49574   0.11479   0.00000  Uiso   1.00
C341   C     0.97266   0.52428   0.45561   0.00000  Uiso   1.00
C342   C     0.69400   0.47572   0.04439   0.00000  Uiso   1.00
C343   C     0.98920   0.51930   0.40917   0.00000  Uiso   1.00
C344   C     0.67747   0.48070   0.09083   0.00000  Uiso   1.00
C345   C     0.90956   0.49530   0.40793   0.00000  Uiso   1.00
C346   C     0.75711   0.50469   0.09207   0.00000  Uiso   1.00
C347   C     0.89066   0.50490   0.45350   0.00000  Uiso   1.00
C348   C     0.77601   0.49510   0.04650   0.00000  Uiso   1.00
C349   C     0.92398   0.51604   0.47804   0.00000  Uiso   1.00
C350   C     0.74269   0.48396   0.02196   0.00000  Uiso   1.00
C351   C     0.84045   0.50058   0.47597   0.00000  Uiso   1.00
C352   C     0.82622   0.49942   0.02403   0.00000  Uiso   1.00
Cu353  Cu    0.71355   0.50001   0.25000   0.00000  Uiso   1.00
Cu354  Cu    0.95311   0.49999   0.25000   0.00000  Uiso   1.00
H355   H     0.93614   0.51963   0.04352   0.00000  Uiso   1.00
H356   H     0.73053   0.48037   0.45648   0.00000  Uiso   1.00
H357   H     0.77886   0.52096   0.11006   0.00000  Uiso   1.00
H358   H     0.88781   0.47904   0.38993   0.00000  Uiso   1.00
H359   H     0.97343   0.47336   0.10782   0.00000  Uiso   1.00
H360   H     0.69324   0.52664   0.39218   0.00000  Uiso   1.00
H361   H     0.99798   0.53411   0.47409   0.00000  Uiso   1.00
H362   H     0.66869   0.46589   0.02591   0.00000  Uiso   1.00
H363   H     0.92974   0.62692   0.29549   0.00000  Uiso   1.00
H364   H     0.73693   0.37308   0.20451   0.00000  Uiso   1.00
H365   H     0.86195   0.45471   0.30140   0.00000  Uiso   1.00
H366   H     0.80472   0.54529   0.19860   0.00000  Uiso   1.00
H367   H     0.77505   0.45483   0.30146   0.00000  Uiso   1.00
H368   H     0.89162   0.54517   0.19854   0.00000  Uiso   1.00
N369   N     0.78403   0.50001   0.24999   0.00000  Uiso   1.00
N370   N     0.88264   0.49999   0.25001   0.00000  Uiso   1.00
O371   O     0.70625   0.43989   0.25000   0.00000  Uiso   1.00
O372   O     0.96042   0.56011   0.25000   0.00000  Uiso   1.00
O373   O     0.96039   0.43988   0.25000   0.00000  Uiso   1.00
O374   O     0.70628   0.56012   0.24999   0.00000  Uiso   1.00
O375   O     0.68519   0.50001   0.31491   0.00000  Uiso   1.00
O376   O     0.98148   0.49999   0.18508   0.00000  Uiso   1.00
O377   O     0.93933   0.50000   0.31492   0.00000  Uiso   1.00
O378   O     0.72733   0.50000   0.18508   0.00000  Uiso   1.00
Br379  Br    0.85793   0.48018   0.10659   0.00000  Uiso   1.00
Br380  Br    0.80873   0.51982   0.39341   0.00000  Uiso   1.00
O381   O     0.92019   0.37162   0.30854   0.00000  Uiso   1.00
H382   H     0.92988   0.39879   0.31785   0.00000  Uiso   1.00
O383   O     0.74648   0.62838   0.19146   0.00000  Uiso   1.00
H384   H     0.73679   0.60121   0.18215   0.00000  Uiso   1.00
C385   C     0.33299   0.75412   0.25134   0.00000  Uiso   1.00
C386   C     0.00034   0.91255   0.24866   0.00000  Uiso   1.00
C387   C     0.19627   0.83577   0.04742   0.00000  Uiso   1.00
C388   C     0.13706   0.83090   0.45258   0.00000  Uiso   1.00
C389   C     0.24289   0.84831   0.02473   0.00000  Uiso   1.00
C390   C     0.09044   0.81836   0.47527   0.00000  Uiso   1.00
C391   C     0.29292   0.68696   0.27853   0.00000  Uiso   1.00
C392   C     0.04041   0.97971   0.22147   0.00000  Uiso   1.00
C393   C     0.29347   0.97764   0.27506   0.00000  Uiso   1.00
C394   C     0.03986   0.68903   0.22494   0.00000  Uiso   1.00
C395   C     0.00036   0.95718   0.24757   0.00000  Uiso   1.00
C396   C     0.33298   0.70948   0.25243   0.00000  Uiso   1.00
C397   C     0.18323   0.80819   0.27852   0.00000  Uiso   1.00
C398   C     0.15010   0.85848   0.22148   0.00000  Uiso   1.00
C399   C     0.13364   0.80824   0.27855   0.00000  Uiso   1.00
C400   C     0.19969   0.85842   0.22145   0.00000  Uiso   1.00
C401   C     0.30609   0.83386   0.33612   0.00000  Uiso   1.00
C402   C     0.02724   0.83281   0.16388   0.00000  Uiso   1.00
C403   C     0.29099   0.83760   0.38521   0.00000  Uiso   1.00
C404   C     0.04234   0.82907   0.11479   0.00000  Uiso   1.00
C405   C     0.30600   0.85762   0.45561   0.00000  Uiso   1.00
C406   C     0.02734   0.80905   0.04439   0.00000  Uiso   1.00
C407   C     0.32254   0.85263   0.40917   0.00000  Uiso   1.00
C408   C     0.01080   0.81403   0.09083   0.00000  Uiso   1.00
C409   C     0.24289   0.82864   0.40793   0.00000  Uiso   1.00
C410   C     0.09044   0.83803   0.09207   0.00000  Uiso   1.00
C411   C     0.22399   0.83823   0.45350   0.00000  Uiso   1.00
C412   C     0.10934   0.82843   0.04650   0.00000  Uiso   1.00
C413   C     0.25731   0.84938   0.47804   0.00000  Uiso   1.00
C414   C     0.07602   0.81729   0.02196   0.00000  Uiso   1.00
C415   C     0.17378   0.83392   0.47597   0.00000  Uiso   1.00
C416   C     0.15955   0.83275   0.02403   0.00000  Uiso   1.00
Cu417  Cu    0.04689   0.83334   0.25000   0.00000  Uiso   1.00
Cu418  Cu    0.28645   0.83333   0.25000   0.00000  Uiso   1.00
H419   H     0.26947   0.85296   0.04352   0.00000  Uiso   1.00
H420   H     0.06386   0.81370   0.45648   0.00000  Uiso   1.00
H421   H     0.11219   0.85429   0.11006   0.00000  Uiso   1.00
H422   H     0.22114   0.81237   0.38993   0.00000  Uiso   1.00
H423   H     0.30676   0.80669   0.10782   0.00000  Uiso   1.00
H424   H     0.02657   0.85997   0.39218   0.00000  Uiso   1.00
H425   H     0.33131   0.86745   0.47409   0.00000  Uiso   1.00
H426   H     0.00202   0.79922   0.02591   0.00000  Uiso   1.00
H427   H     0.26307   0.96025   0.29549   0.00000  Uiso   1.00
H428   H     0.07026   0.70641   0.20451   0.00000  Uiso   1.00
H429   H     0.19528   0.78804   0.30140   0.00000  Uiso   1.00
H430   H     0.13805   0.87863   0.19860   0.00000  Uiso   1.00
H431   H     0.10838   0.78816   0.30146   0.00000  Uiso   1.00
H432   H     0.22495   0.87850   0.19854   0.00000  Uiso   1.00
N433   N     0.11736   0.83334   0.24999   0.00000  Uiso   1.00
N434   N     0.21597   0.83332   0.25001   0.00000  Uiso   1.00
O435   O     0.03958   0.77322   0.25000   0.00000  Uiso   1.00
O436   O     0.29375   0.89345   0.25000   0.00000  Uiso   1.00
O437   O     0.29372   0.77321   0.25000   0.00000  Uiso   1.00
O438   O     0.03961   0.89346   0.24999   0.00000  Uiso   1.00
O439   O     0.01852   0.83334   0.31491   0.00000  Uiso   1.00
O440   O     0.31481   0.83332   0.18508   0.00000  Uiso   1.00
O441   O     0.27267   0.83333   0.31492   0.00000  Uiso   1.00
O442   O     0.06067   0.83333   0.18508   0.00000  Uiso   1.00
Br443  Br    0.19127   0.81351   0.10659   0.00000  Uiso   1.00
Br444  Br    0.14207   0.85316   0.39341   0.00000  Uiso   1.00
O445   O     0.25352   0.70495   0.30854   0.00000  Uiso   1.00
H446   H     0.26321   0.73212   0.31785   0.00000  Uiso   1.00
O447   O     0.07981   0.96171   0.19146   0.00000  Uiso   1.00
H448   H     0.07012   0.93454   0.18215   0.00000  Uiso   1.00
C449   C     0.66632   0.75412   0.25134   0.00000  Uiso   1.00
C450   C     0.33368   0.91255   0.24866   0.00000  Uiso   1.00
C451   C     0.52961   0.83577   0.04742   0.00000  Uiso   1.00
C452   C     0.47039   0.83090   0.45258   0.00000  Uiso   1.00
C453   C     0.57623   0.84831   0.02473   0.00000  Uiso   1.00
C454   C     0.42377   0.81836   0.47527   0.00000  Uiso   1.00
C455   C     0.62625   0.68696   0.27853   0.00000  Uiso   1.00
C456   C     0.37375   0.97971   0.22147   0.00000  Uiso   1.00
C457   C     0.62681   0.97764   0.27506   0.00000  Uiso   1.00
C458   C     0.37319   0.68903   0.22494   0.00000  Uiso   1.00
C459   C     0.33369   0.95718   0.24757   0.00000  Uiso   1.00
C460   C     0.66631   0.70948   0.25243   0.00000  Uiso   1.00
C461   C     0.51657   0.80819   0.27852   0.00000  Uiso   1.00
C462   C     0.48343   0.85848   0.22148   0.00000  Uiso   1.00
C463   C     0.46698   0.80824   0.27855   0.00000  Uiso   1.00
C464   C     0.53302   0.85842   0.22145   0.00000  Uiso   1.00
C465   C     0.63943   0.83386   0.33612   0.00000  Uiso   1.00
C466   C     0.36057   0.83281   0.16388   0.00000  Uiso   1.00
C467   C     0.62433   0.83760   0.38521   0.00000  Uiso   1.00
C468   C     0.37567   0.82907   0.11479   0.00000  Uiso   1.00
C469   C     0.63933   0.85762   0.45561   0.00000  Uiso   1.00
C470   C     0.36067   0.80905   0.04439   0.00000  Uiso   1.00
C471   C     0.65587   0.85263   0.40917   0.00000  Uiso   1.00
C472   C     0.34413   0.81403   0.09083   0.00000  Uiso   1.00
C473   C     0.57623   0.82864   0.40793   0.00000  Uiso   1.00
C474   C     0.42378   0.83803   0.09207   0.00000  Uiso   1.00
C475   C     0.55732   0.83823   0.45350   0.00000  Uiso   1.00
C476   C     0.44268   0.82843   0.04650   0.00000  Uiso   1.00
C477   C     0.59064   0.84938   0.47804   0.00000  Uiso   1.00
C478   C     0.40936   0.81729   0.02196   0.00000  Uiso   1.00
C479   C     0.50711   0.83392   0.47597   0.00000  Uiso   1.00
C480   C     0.49289   0.83275   0.02403   0.00000  Uiso   1.00
Cu481  Cu    0.38022   0.83334   0.25000   0.00000  Uiso   1.00
Cu482  Cu    0.61978   0.83333   0.25000   0.00000  Uiso   1.00
H483   H     0.60281   0.85296   0.04352   0.00000  Uiso   1.00
H484   H     0.39719   0.81370   0.45648   0.00000  Uiso   1.00
H485   H     0.44552   0.85429   0.11006   0.00000  Uiso   1.00
H486   H     0.55448   0.81237   0.38993   0.00000  Uiso   1.00
H487   H     0.64010   0.80669   0.10782   0.00000  Uiso   1.00
H488   H     0.35990   0.85997   0.39218   0.00000  Uiso   1.00
H489   H     0.66464   0.86745   0.47409   0.00000  Uiso   1.00
H490   H     0.33536   0.79922   0.02591   0.00000  Uiso   1.00
H491   H     0.59641   0.96025   0.29549   0.00000  Uiso   1.00
H492   H     0.40359   0.70641   0.20451   0.00000  Uiso   1.00
H493   H     0.52861   0.78804   0.30140   0.00000  Uiso   1.00
H494   H     0.47139   0.87863   0.19860   0.00000  Uiso   1.00
H495   H     0.44171   0.78816   0.30146   0.00000  Uiso   1.00
H496   H     0.55829   0.87850   0.19854   0.00000  Uiso   1.00
N497   N     0.45069   0.83334   0.24999   0.00000  Uiso   1.00
N498   N     0.54931   0.83332   0.25001   0.00000  Uiso   1.00
O499   O     0.37291   0.77322   0.25000   0.00000  Uiso   1.00
O500   O     0.62709   0.89345   0.25000   0.00000  Uiso   1.00
O501   O     0.62706   0.77321   0.25000   0.00000  Uiso   1.00
O502   O     0.37294   0.89346   0.24999   0.00000  Uiso   1.00
O503   O     0.35186   0.83334   0.31491   0.00000  Uiso   1.00
O504   O     0.64814   0.83332   0.18508   0.00000  Uiso   1.00
O505   O     0.60600   0.83333   0.31492   0.00000  Uiso   1.00
O506   O     0.39400   0.83333   0.18508   0.00000  Uiso   1.00
Br507  Br    0.52460   0.81351   0.10659   0.00000  Uiso   1.00
Br508  Br    0.47540   0.85316   0.39341   0.00000  Uiso   1.00
O509   O     0.58685   0.70495   0.30854   0.00000  Uiso   1.00
H510   H     0.59655   0.73212   0.31785   0.00000  Uiso   1.00
O511   O     0.41315   0.96171   0.19146   0.00000  Uiso   1.00
H512   H     0.40345   0.93454   0.18215   0.00000  Uiso   1.00
C513   C     0.99966   0.75412   0.25134   0.00000  Uiso   1.00
C514   C     0.66701   0.91255   0.24866   0.00000  Uiso   1.00
C515   C     0.86294   0.83577   0.04742   0.00000  Uiso   1.00
C516   C     0.80373   0.83090   0.45258   0.00000  Uiso   1.00
C517   C     0.90956   0.84831   0.02473   0.00000  Uiso   1.00
C518   C     0.75711   0.81836   0.47527   0.00000  Uiso   1.00
C519   C     0.95959   0.68696   0.27853   0.00000  Uiso   1.00
C520   C     0.70708   0.97971   0.22147   0.00000  Uiso   1.00
C521   C     0.96014   0.97764   0.27506   0.00000  Uiso   1.00
C522   C     0.70653   0.68903   0.22494   0.00000  Uiso   1.00
C523   C     0.66702   0.95718   0.24757   0.00000  Uiso   1.00
C524   C     0.99964   0.70948   0.25243   0.00000  Uiso   1.00
C525   C     0.84990   0.80819   0.27852   0.00000  Uiso   1.00
C526   C     0.81677   0.85848   0.22148   0.00000  Uiso   1.00
C527   C     0.80031   0.80824   0.27855   0.00000  Uiso   1.00
C528   C     0.86636   0.85842   0.22145   0.00000  Uiso   1.00
C529   C     0.97276   0.83386   0.33612   0.00000  Uiso   1.00
C530   C     0.69391   0.83281   0.16388   0.00000  Uiso   1.00
C531   C     0.95766   0.83760   0.38521   0.00000  Uiso   1.00
C532   C     0.70901   0.82907   0.11479   0.00000  Uiso   1.00
C533   C     0.97266   0.85762   0.45561   0.00000  Uiso   1.00
C534   C     0.69400   0.80905   0.04439   0.00000  Uiso   1.00
C535   C     0.98920   0.85263   0.40917   0.00000  Uiso   1.00
C536   C     0.67747   0.81403   0.09083   0.00000  Uiso   1.00
C537   C     0.90956   0.82864   0.40793   0.00000  Uiso   1.00
C538   C     0.75711   0.83803   0.09207   0.00000  Uiso   1.00
C539   C     0.89066   0.83823   0.45350   0.00000  Uiso   1.00
C540   C     0.77601   0.82843   0.04650   0.00000  Uiso   1.00
C541   C     0.92398   0.84938   0.47804   0.00000  Uiso   1.00
C542   C     0.74269   0.81729   0.02196   0.00000  Uiso   1.00
C543   C     0.84045   0.83392   0.47597   0.00000  Uiso   1.00
C544   C     0.82622   0.83275   0.02403   0.00000  Uiso   1.00
Cu545  Cu    0.71355   0.83334   0.25000   0.00000  Uiso   1.00
Cu546  Cu    0.95311   0.83333   0.25000   0.00000  Uiso   1.00
H547   H     0.93614   0.85296   0.04352   0.00000  Uiso   1.00
H548   H     0.73053   0.81370   0.45648   0.00000  Uiso   1.00
H549   H     0.77886   0.85429   0.11006   0.00000  Uiso   1.00
H550   H     0.88781   0.81237   0.38993   0.00000  Uiso   1.00
H551   H     0.97343   0.80669   0.10782   0.00000  Uiso   1.00
H552   H     0.69324   0.85997   0.39218   0.00000  Uiso   1.00
H553   H     0.99798   0.86745   0.47409   0.00000  Uiso   1.00
H554   H     0.66869   0.79922   0.02591   0.00000  Uiso   1.00
H555   H     0.92974   0.96025   0.29549   0.00000  Uiso   1.00
H556   H     0.73693   0.70641   0.20451   0.00000  Uiso   1.00
H557   H     0.86195   0.78804   0.30140   0.00000  Uiso   1.00
H558   H     0.80472   0.87863   0.19860   0.00000  Uiso   1.00
H559   H     0.77505   0.78816   0.30146   0.00000  Uiso   1.00
H560   H     0.89162   0.87850   0.19854   0.00000  Uiso   1.00
N561   N     0.78403   0.83334   0.24999   0.00000  Uiso   1.00
N562   N     0.88264   0.83332   0.25001   0.00000  Uiso   1.00
O563   O     0.70625   0.77322   0.25000   0.00000  Uiso   1.00
O564   O     0.96042   0.89345   0.25000   0.00000  Uiso   1.00
O565   O     0.96039   0.77321   0.25000   0.00000  Uiso   1.00
O566   O     0.70628   0.89346   0.24999   0.00000  Uiso   1.00
O567   O     0.68519   0.83334   0.31491   0.00000  Uiso   1.00
O568   O     0.98148   0.83332   0.18508   0.00000  Uiso   1.00
O569   O     0.93933   0.83333   0.31492   0.00000  Uiso   1.00
O570   O     0.72733   0.83333   0.18508   0.00000  Uiso   1.00
Br571  Br    0.85793   0.81351   0.10659   0.00000  Uiso   1.00
Br572  Br    0.80873   0.85316   0.39341   0.00000  Uiso   1.00
O573   O     0.92019   0.70495   0.30854   0.00000  Uiso   1.00
H574   H     0.92988   0.73212   0.31785   0.00000  Uiso   1.00
O575   O     0.74648   0.96171   0.19146   0.00000  Uiso   1.00
H576   H     0.73679   0.93454   0.18215   0.00000  Uiso   1.00
C577   C     0.33299   0.08745   0.75134   0.00000  Uiso   1.00
C578   C     0.00034   0.24588   0.74866   0.00000  Uiso   1.00
C579   C     0.19627   0.16910   0.54742   0.00000  Uiso   1.00
C580   C     0.13706   0.16423   0.95258   0.00000  Uiso   1.00
C581   C     0.24289   0.18164   0.52473   0.00000  Uiso   1.00
C582   C     0.09044   0.15169   0.97527   0.00000  Uiso   1.00
C583   C     0.29292   0.02029   0.77853   0.00000  Uiso   1.00
C584   C     0.04041   0.31304   0.72147   0.00000  Uiso   1.00
C585   C     0.29347   0.31097   0.77506   0.00000  Uiso   1.00
C586   C     0.03986   0.02236   0.72494   0.00000  Uiso   1.00
C587   C     0.00036   0.29052   0.74757   0.00000  Uiso   1.00
C588   C     0.33298   0.04282   0.75243   0.00000  Uiso   1.00
C589   C     0.18323   0.14152   0.77852   0.00000  Uiso   1.00
C590   C     0.15010   0.19181   0.72148   0.00000  Uiso   1.00
C591   C     0.13364   0.14158   0.77855   0.00000  Uiso   1.00
C592   C     0.19969   0.19176   0.72145   0.00000  Uiso   1.00
C593   C     0.30609   0.16719   0.83612   0.00000  Uiso   1.00
C594   C     0.02724   0.16614   0.66388   0.00000  Uiso   1.00
C595   C     0.29099   0.17093   0.88521   0.00000  Uiso   1.00
C596   C     0.04234   0.16240   0.61479   0.00000  Uiso   1.00
C597   C     0.30600   0.19095   0.95561   0.00000  Uiso   1.00
C598   C     0.02734   0.14238   0.54439   0.00000  Uiso   1.00
C599   C     0.32254   0.18597   0.90917   0.00000  Uiso   1.00
C600   C     0.01080   0.14737   0.59083   0.00000  Uiso   1.00
C601   C     0.24289   0.16197   0.90793   0.00000  Uiso   1.00
C602   C     0.09044   0.17136   0.59207   0.00000  Uiso   1.00
C603   C     0.22399   0.17157   0.95350   0.00000  Uiso   1.00
C604   C     0.10934   0.16177   0.54650   0.00000  Uiso   1.00
C605   C     0.25731   0.18271   0.97804   0.00000  Uiso   1.00
C606   C     0.07602   0.15062   0.52196   0.00000  Uiso   1.00
C607   C     0.17378   0.16725   0.97597   0.00000  Uiso   1.00
C608   C     0.15955   0.16608   0.52403   0.00000  Uiso   1.00
Cu609  Cu    0.04689   0.16667   0.75000   0.00000  Uiso   1.00
Cu610  Cu    0.28645   0.16666   0.75000   0.00000  Uiso   1.00
H611   H     0.26947   0.18630   0.54352   0.00000  Uiso   1.00
H612   H     0.06386   0.14704   0.95648   0.00000  Uiso   1.00
H613   H     0.11219   0.18763   0.61006   0.00000  Uiso   1.00
H614   H     0.22114   0.14571   0.88993   0.00000  Uiso   1.00
H615   H     0.30676   0.14003   0.60782   0.00000  Uiso   1.00
H616   H     0.02657   0.19331   0.89218   0.00000  Uiso   1.00
H617   H     0.33131   0.20078   0.97409   0.00000  Uiso   1.00
H618   H     0.00202   0.13255   0.52591   0.00000  Uiso   1.00
H619   H     0.26307   0.29359   0.79549   0.00000  Uiso   1.00
H620   H     0.07026   0.03975   0.70451   0.00000  Uiso   1.00
H621   H     0.19528   0.12137   0.80140   0.00000  Uiso   1.00
H622   H     0.13805   0.21196   0.69860   0.00000  Uiso   1.00
H623   H     0.10838   0.12150   0.80146   0.00000  Uiso   1.00
H624   H     0.22495   0.21184   0.69854   0.00000  Uiso   1.00
N625   N     0.11736   0.16668   0.74999   0.00000  Uiso   1.00
N626   N     0.21597   0.16666   0.75001   0.00000  Uiso   1.00
O627   O     0.03958   0.10655   0.75000   0.00000  Uiso   1.00
O628   O     0.29375   0.22678   0.75000   0.00000  Uiso   1.00
O629   O     0.29372   0.10654   0.75000   0.00000  Uiso   1.00
O630   O     0.03961   0.22679   0.74999   0.00000  Uiso   1.00
O631   O     0.01852   0.16668   0.81491   0.00000  Uiso   1.00
O632   O     0.31481   0.16666   0.68508   0.00000  Uiso   1.00
O633   O     0.27267   0.16667   0.81492   0.00000  Uiso   1.00
O634   O     0.06067   0.16667   0.68508   0.00000  Uiso   1.00
Br635  Br    0.19127   0.14684   0.60659   0.00000  Uiso   1.00
Br636  Br    0.14207   0.18649   0.89341   0.00000  Uiso   1.00
O637   O     0.25352   0.03829   0.80854   0.00000  Uiso   1.00
H638   H     0.26321   0.06545   0.81785   0.00000  Uiso   1.00
O639   O     0.07981   0.29505   0.69146   0.00000  Uiso   1.00
H640   H     0.07012   0.26788   0.68215   0.00000  Uiso   1.00
C641   C     0.66632   0.08745   0.75134   0.00000  Uiso   1.00
C642   C     0.33368   0.24588   0.74866   0.00000  Uiso   1.00
C643   C     0.52961   0.16910   0.54742   0.00000  Uiso   1.00
C644   C     0.47039   0.16423   0.95258   0.00000  Uiso   1.00
C645   C     0.57623   0.18164   0.52473   0.00000  Uiso   1.00
C646   C     0.42377   0.15169   0.97527   0.00000  Uiso   1.00
C647   C     0.62625   0.02029   0.77853   0.00000  Uiso   1.00
C648   C     0.37375   0.31304   0.72147   0.00000  Uiso   1.00
C649   C     0.62681   0.31097   0.77506   0.00000  Uiso   1.00
C650   C     0.37319   0.02236   0.72494   0.00000  Uiso   1.00
C651   C     0.33369   0.29052   0.74757   0.00000  Uiso   1.00
C652   C     0.66631   0.04282   0.75243   0.00000  Uiso   1.00
C653   C     0.51657   0.14152   0.77852   0.00000  Uiso   1.00
C654   C     0.48343   0.19181   0.72148   0.00000  Uiso   1.00
C655   C     0.46698   0.14158   0.77855   0.00000  Uiso   1.00
C656   C     0.53302   0.19176   0.72145   0.00000  Uiso   1.00
C657   C     0.63943   0.16719   0.83612   0.00000  Uiso   1.00
C658   C     0.36057   0.16614   0.66388   0.00000  Uiso   1.00
C659   C     0.62433   0.17093   0.88521   0.00000  Uiso   1.00
C660   C     0.37567   0.16240   0.61479   0.00000  Uiso   1.00
C661   C     0.63933   0.19095   0.95561   0.00000  Uiso   1.00
C662   C     0.36067   0.14238   0.54439   0.00000  Uiso   1.00
C663   C     0.65587   0.18597   0.90917   0.00000  Uiso   1.00
C664   C     0.34413   0.14737   0.59083   0.00000  Uiso   1.00
C665   C     0.57623   0.16197   0.90793   0.00000  Uiso   1.00
C666   C     0.42378   0.17136   0.59207   0.00000  Uiso   1.00
C667   C     0.55732   0.17157   0.95350   0.00000  Uiso   1.00
C668   C     0.44268   0.16177   0.54650   0.00000  Uiso   1.00
C669   C     0.59064   0.18271   0.97804   0.00000  Uiso   1.00
C670   C     0.40936   0.15062   0.52196   0.00000  Uiso   1.00
C671   C     0.50711   0.16725   0.97597   0.00000  Uiso   1.00
C672   C     0.49289   0.16608   0.52403   0.00000  Uiso   1.00
Cu673  Cu    0.38022   0.16667   0.75000   0.00000  Uiso   1.00
Cu674  Cu    0.61978   0.16666   0.75000   0.00000  Uiso   1.00
H675   H     0.60281   0.18630   0.54352   0.00000  Uiso   1.00
H676   H     0.39719   0.14704   0.95648   0.00000  Uiso   1.00
H677   H     0.44552   0.18763   0.61006   0.00000  Uiso   1.00
H678   H     0.55448   0.14571   0.88993   0.00000  Uiso   1.00
H679   H     0.64010   0.14003   0.60782   0.00000  Uiso   1.00
H680   H     0.35990   0.19331   0.89218   0.00000  Uiso   1.00
H681   H     0.66464   0.20078   0.97409   0.00000  Uiso   1.00
H682   H     0.33536   0.13255   0.52591   0.00000  Uiso   1.00
H683   H     0.59641   0.29359   0.79549   0.00000  Uiso   1.00
H684   H     0.40359   0.03975   0.70451   0.00000  Uiso   1.00
H685   H     0.52861   0.12137   0.80140   0.00000  Uiso   1.00
H686   H     0.47139   0.21196   0.69860   0.00000  Uiso   1.00
H687   H     0.44171   0.12150   0.80146   0.00000  Uiso   1.00
H688   H     0.55829   0.21184   0.69854   0.00000  Uiso   1.00
N689   N     0.45069   0.16668   0.74999   0.00000  Uiso   1.00
N690   N     0.54931   0.16666   0.75001   0.00000  Uiso   1.00
O691   O     0.37291   0.10655   0.75000   0.00000  Uiso   1.00
O692   O     0.62709   0.22678   0.75000   0.00000  Uiso   1.00
O693   O     0.62706   0.10654   0.75000   0.00000  Uiso   1.00
O694   O     0.37294   0.22679   0.74999   0.00000  Uiso   1.00
O695   O     0.35186   0.16668   0.81491   0.00000  Uiso   1.00
O696   O     0.64814   0.16666   0.68508   0.00000  Uiso   1.00
O697   O     0.60600   0.16667   0.81492   0.00000  Uiso   1.00
O698   O     0.39400   0.16667   0.68508   0.00000  Uiso   1.00
Br699  Br    0.52460   0.14684   0.60659   0.00000  Uiso   1.00
Br700  Br    0.47540   0.18649   0.89341   0.00000  Uiso   1.00
O701   O     0.58685   0.03829   0.80854   0.00000  Uiso   1.00
H702   H     0.59655   0.06545   0.81785   0.00000  Uiso   1.00
O703   O     0.41315   0.29505   0.69146   0.00000  Uiso   1.00
H704   H     0.40345   0.26788   0.68215   0.00000  Uiso   1.00
C705   C     0.99966   0.08745   0.75134   0.00000  Uiso   1.00
C706   C     0.66701   0.24588   0.74866   0.00000  Uiso   1.00
C707   C     0.86294   0.16910   0.54742   0.00000  Uiso   1.00
C708   C     0.80373   0.16423   0.95258   0.00000  Uiso   1.00
C709   C     0.90956   0.18164   0.52473   0.00000  Uiso   1.00
C710   C     0.75711   0.15169   0.97527   0.00000  Uiso   1.00
C711   C     0.95959   0.02029   0.77853   0.00000  Uiso   1.00
C712   C     0.70708   0.31304   0.72147   0.00000  Uiso   1.00
C713   C     0.96014   0.31097   0.77506   0.00000  Uiso   1.00
C714   C     0.70653   0.02236   0.72494   0.00000  Uiso   1.00
C715   C     0.66702   0.29052   0.74757   0.00000  Uiso   1.00
C716   C     0.99964   0.04282   0.75243   0.00000  Uiso   1.00
C717   C     0.84990   0.14152   0.77852   0.00000  Uiso   1.00
C718   C     0.81677   0.19181   0.72148   0.00000  Uiso   1.00
C719   C     0.80031   0.14158   0.77855   0.00000  Uiso   1.00
C720   C     0.86636   0.19176   0.72145   0.00000  Uiso   1.00
C721   C     0.97276   0.16719   0.83612   0.00000  Uiso   1.00
C722   C     0.69391   0.16614   0.66388   0.00000  Uiso   1.00
C723   C     0.95766   0.17093   0.88521   0.00000  Uiso   1.00
C724   C     0.70901   0.16240   0.61479   0.00000  Uiso   1.00
C725   C     0.97266   0.19095   0.95561   0.00000  Uiso   1.00
C726   C     0.69400   0.14238   0.54439   0.00000  Uiso   1.00
C727   C     0.98920   0.18597   0.90917   0.00000  Uiso   1.00
C728   C     0.67747   0.14737   0.59083   0.00000  Uiso   1.00
C729   C     0.90956   0.16197   0.90793   0.00000  Uiso   1.00
C730   C     0.75711   0.17136   0.59207   0.00000  Uiso   1.00
C731   C     0.89066   0.17157   0.95350   0.00000  Uiso   1.00
C732   C     0.77601   0.16177   0.54650   0.00000  Uiso   1.00
C733   C     0.92398   0.18271   0.97804   0.00000  Uiso   1.00
C734   C     0.74269   0.15062   0.52196   0.00000  Uiso   1.00
C735   C     0.84045   0.16725   0.97597   0.00000  Uiso   1.00
C736   C     0.82622   0.16608   0.52403   0.00000  Uiso   1.00
Cu737  Cu    0.71355   0.16667   0.75000   0.00000  Uiso   1.00
Cu738  Cu    0.95311   0.16666   0.75000   0.00000  Uiso   1.00
H739   H     0.93614   0.18630   0.54352   0.00000  Uiso   1.00
H740   H     0.73053   0.14704   0.95648   0.00000  Uiso   1.00
H741   H     0.77886   0.18763   0.61006   0.00000  Uiso   1.00
H742   H     0.88781   0.14571   0.88993   0.00000  Uiso   1.00
H743   H     0.97343   0.14003   0.60782   0.00000  Uiso   1.00
H744   H     0.69324   0.19331   0.89218   0.00000  Uiso   1.00
H745   H     0.99798   0.20078   0.97409   0.00000  Uiso   1.00
H746   H     0.66869   0.13255   0.52591   0.00000  Uiso   1.00
H747   H     0.92974   0.29359   0.79549   0.00000  Uiso   1.00
H748   H     0.73693   0.03975   0.70451   0.00000  Uiso   1.00
H749   H     0.86195   0.12137   0.80140   0.00000  Uiso   1.00
H750   H     0.80472   0.21196   0.69860   0.00000  Uiso   1.00
H751   H     0.77505   0.12150   0.80146   0.00000  Uiso   1.00
H752   H     0.89162   0.21184   0.69854   0.00000  Uiso   1.00
N753   N     0.78403   0.16668   0.74999   0.00000  Uiso   1.00
N754   N     0.88264   0.16666   0.75001   0.00000  Uiso   1.00
O755   O     0.70625   0.10655   0.75000   0.00000  Uiso   1.00
O756   O     0.96042   0.22678   0.75000   0.00000  Uiso   1.00
O757   O     0.96039   0.10654   0.75000   0.00000  Uiso   1.00
O758   O     0.70628   0.22679   0.74999   0.00000  Uiso   1.00
O759   O     0.68519   0.16668   0.81491   0.00000  Uiso   1.00
O760   O     0.98148   0.16666   0.68508   0.00000  Uiso   1.00
O761   O     0.93933   0.16667   0.81492   0.00000  Uiso   1.00
O762   O     0.72733   0.16667   0.68508   0.00000  Uiso   1.00
Br763  Br    0.85793   0.14684   0.60659   0.00000  Uiso   1.00
Br764  Br    0.80873   0.18649   0.89341   0.00000  Uiso   1.00
O765   O     0.92019   0.03829   0.80854   0.00000  Uiso   1.00
H766   H     0.92988   0.06545   0.81785   0.00000  Uiso   1.00
O767   O     0.74648   0.29505   0.69146   0.00000  Uiso   1.00
H768   H     0.73679   0.26788   0.68215   0.00000  Uiso   1.00
C769   C     0.33299   0.42078   0.75134   0.00000  Uiso   1.00
C770   C     0.00034   0.57922   0.74866   0.00000  Uiso   1.00
C771   C     0.19627   0.50244   0.54742   0.00000  Uiso   1.00
C772   C     0.13706   0.49756   0.95258   0.00000  Uiso   1.00
C773   C     0.24289   0.51497   0.52473   0.00000  Uiso   1.00
C774   C     0.09044   0.48503   0.97527   0.00000  Uiso   1.00
C775   C     0.29292   0.35363   0.77853   0.00000  Uiso   1.00
C776   C     0.04041   0.64637   0.72147   0.00000  Uiso   1.00
C777   C     0.29347   0.64431   0.77506   0.00000  Uiso   1.00
C778   C     0.03986   0.35569   0.72494   0.00000  Uiso   1.00
C779   C     0.00036   0.62385   0.74757   0.00000  Uiso   1.00
C780   C     0.33298   0.37615   0.75243   0.00000  Uiso   1.00
C781   C     0.18323   0.47486   0.77852   0.00000  Uiso   1.00
C782   C     0.15010   0.52514   0.72148   0.00000  Uiso   1.00
C783   C     0.13364   0.47491   0.77855   0.00000  Uiso   1.00
C784   C     0.19969   0.52509   0.72145   0.00000  Uiso   1.00
C785   C     0.30609   0.50053   0.83612   0.00000  Uiso   1.00
C786   C     0.02724   0.49947   0.66388   0.00000  Uiso   1.00
C787   C     0.29099   0.50426   0.88521   0.00000  Uiso   1.00
C788   C     0.04234   0.49574   0.61479   0.00000  Uiso   1.00
C789   C     0.30600   0.52428   0.95561   0.00000  Uiso   1.00
C790   C     0.02734   0.47572   0.54439   0.00000  Uiso   1.00
C791   C     0.32254   0.51930   0.90917   0.00000  Uiso   1.00
C792   C     0.01080   0.48070   0.59083   0.00000  Uiso   1.00
C793   C     0.24289   0.49530   0.90793   0.00000  Uiso   1.00
C794   C     0.09044   0.50469   0.59207   0.00000  Uiso   1.00
C795   C     0.22399   0.50490   0.95350   0.00000  Uiso   1.00
C796   C     0.10934   0.49510   0.54650   0.00000  Uiso   1.00
C797   C     0.25731   0.51604   0.97804   0.00000  Uiso   1.00
C798   C     0.07602   0.48396   0.52196   0.00000  Uiso   1.00
C799   C     0.17378   0.50058   0.97597   0.00000  Uiso   1.00
C800   C     0.15955   0.49942   0.52403   0.00000  Uiso   1.00
Cu801  Cu    0.04689   0.50001   0.75000   0.00000  Uiso   1.00
Cu802  Cu    0.28645   0.49999   0.75000   0.00000  Uiso   1.00
H803   H     0.26947   0.51963   0.54352   0.00000  Uiso   1.00
H804   H     0.06386   0.48037   0.95648   0.00000  Uiso   1.00
H805   H     0.11219   0.52096   0.61006   0.00000  Uiso   1.00
H806   H     0.22114   0.47904   0.88993   0.00000  Uiso   1.00
H807   H     0.30676   0.47336   0.60782   0.00000  Uiso   1.00
H808   H     0.02657   0.52664   0.89218   0.00000  Uiso   1.00
H809   H     0.33131   0.53411   0.97409   0.00000  Uiso   1.00
H810   H     0.00202   0.46589   0.52591   0.00000  Uiso   1.00
H811   H     0.26307   0.62692   0.79549   0.00000  Uiso   1.00
H812   H     0.07026   0.37308   0.70451   0.00000  Uiso   1.00
H813   H     0.19528   0.45471   0.80140   0.00000  Uiso   1.00
H814   H     0.13805   0.54529   0.69860   0.00000  Uiso   1.00
H815   H     0.10838   0.45483   0.80146   0.00000  Uiso   1.00
H816   H     0.22495   0.54517   0.69854   0.00000  Uiso   1.00
N817   N     0.11736   0.50001   0.74999   0.00000  Uiso   1.00
N818   N     0.21597   0.49999   0.75001   0.00000  Uiso   1.00
O819   O     0.03958   0.43989   0.75000   0.00000  Uiso   1.00
O820   O     0.29375   0.56011   0.75000   0.00000  Uiso   1.00
O821   O     0.29372   0.43988   0.75000   0.00000  Uiso   1.00
O822   O     0.03961   0.56012   0.74999   0.00000  Uiso   1.00
O823   O     0.01852   0.50001   0.81491   0.00000  Uiso   1.00
O824   O     0.31481   0.49999   0.68508   0.00000  Uiso   1.00
O825   O     0.27267   0.50000   0.81492   0.00000  Uiso   1.00
O826   O     0.06067   0.50000   0.68508   0.00000  Uiso   1.00
Br827  Br    0.19127   0.48018   0.60659   0.00000  Uiso   1.00
Br828  Br    0.14207   0.51982   0.89341   0.00000  Uiso   1.00
O829   O     0.25352   0.37162   0.80854   0.00000  Uiso   1.00
H830   H     0.26321   0.39879   0.81785   0.00000  Uiso   1.00
O831   O     0.07981   0.62838   0.69146   0.00000  Uiso   1.00
H832   H     0.07012   0.60121   0.68215   0.00000  Uiso   1.00
C833   C     0.66632   0.42078   0.75134   0.00000  Uiso   1.00
C834   C     0.33368   0.57922   0.74866   0.00000  Uiso   1.00
C835   C     0.52961   0.50244   0.54742   0.00000  Uiso   1.00
C836   C     0.47039   0.49756   0.95258   0.00000  Uiso   1.00
C837   C     0.57623   0.51497   0.52473   0.00000  Uiso   1.00
C838   C     0.42377   0.48503   0.97527   0.00000  Uiso   1.00
C839   C     0.62625   0.35363   0.77853   0.00000  Uiso   1.00
C840   C     0.37375   0.64637   0.72147   0.00000  Uiso   1.00
C841   C     0.62681   0.64431   0.77506   0.00000  Uiso   1.00
C842   C     0.37319   0.35569   0.72494   0.00000  Uiso   1.00
C843   C     0.33369   0.62385   0.74757   0.00000  Uiso   1.00
C844   C     0.66631   0.37615   0.75243   0.00000  Uiso   1.00
C845   C     0.51657   0.47486   0.77852   0.00000  Uiso   1.00
C846   C     0.48343   0.52514   0.72148   0.00000  Uiso   1.00
C847   C     0.46698   0.47491   0.77855   0.00000  Uiso   1.00
C848   C     0.53302   0.52509   0.72145   0.00000  Uiso   1.00
C849   C     0.63943   0.50053   0.83612   0.00000  Uiso   1.00
C850   C     0.36057   0.49947   0.66388   0.00000  Uiso   1.00
C851   C     0.62433   0.50426   0.88521   0.00000  Uiso   1.00
C852   C     0.37567   0.49574   0.61479   0.00000  Uiso   1.00
C853   C     0.63933   0.52428   0.95561   0.00000  Uiso   1.00
C854   C     0.36067   0.47572   0.54439   0.00000  Uiso   1.00
C855   C     0.65587   0.51930   0.90917   0.00000  Uiso   1.00
C856   C     0.34413   0.48070   0.59083   0.00000  Uiso   1.00
C857   C     0.57623   0.49530   0.90793   0.00000  Uiso   1.00
C858   C     0.42378   0.50469   0.59207   0.00000  Uiso   1.00
C859   C     0.55732   0.50490   0.95350   0.00000  Uiso   1.00
C860   C     0.44268   0.49510   0.54650   0.00000  Uiso   1.00
C861   C     0.59064   0.51604   0.97804   0.00000  Uiso   1.00
C862   C     0.40936   0.48396   0.52196   0.00000  Uiso   1.00
C863   C     0.50711   0.50058   0.97597   0.00000  Uiso   1.00
C864   C     0.49289   0.49942   0.52403   0.00000  Uiso   1.00
Cu865  Cu    0.38022   0.50001   0.75000   0.00000  Uiso   1.00
Cu866  Cu    0.61978   0.49999   0.75000   0.00000  Uiso   1.00
H867   H     0.60281   0.51963   0.54352   0.00000  Uiso   1.00
H868   H     0.39719   0.48037   0.95648   0.00000  Uiso   1.00
H869   H     0.44552   0.52096   0.61006   0.00000  Uiso   1.00
H870   H     0.55448   0.47904   0.88993   0.00000  Uiso   1.00
H871   H     0.64010   0.47336   0.60782   0.00000  Uiso   1.00
H872   H     0.35990   0.52664   0.89218   0.00000  Uiso   1.00
H873   H     0.66464   0.53411   0.97409   0.00000  Uiso   1.00
H874   H     0.33536   0.46589   0.52591   0.00000  Uiso   1.00
H875   H     0.59641   0.62692   0.79549   0.00000  Uiso   1.00
H876   H     0.40359   0.37308   0.70451   0.00000  Uiso   1.00
H877   H     0.52861   0.45471   0.80140   0.00000  Uiso   1.00
H878   H     0.47139   0.54529   0.69860   0.00000  Uiso   1.00
H879   H     0.44171   0.45483   0.80146   0.00000  Uiso   1.00
H880   H     0.55829   0.54517   0.69854   0.00000  Uiso   1.00
N881   N     0.45069   0.50001   0.74999   0.00000  Uiso   1.00
N882   N     0.54931   0.49999   0.75001   0.00000  Uiso   1.00
O883   O     0.37291   0.43989   0.75000   0.00000  Uiso   1.00
O884   O     0.62709   0.56011   0.75000   0.00000  Uiso   1.00
O885   O     0.62706   0.43988   0.75000   0.00000  Uiso   1.00
O886   O     0.37294   0.56012   0.74999   0.00000  Uiso   1.00
O887   O     0.35186   0.50001   0.81491   0.00000  Uiso   1.00
O888   O     0.64814   0.49999   0.68508   0.00000  Uiso   1.00
O889   O     0.60600   0.50000   0.81492   0.00000  Uiso   1.00
O890   O     0.39400   0.50000   0.68508   0.00000  Uiso   1.00
Br891  Br    0.52460   0.48018   0.60659   0.00000  Uiso   1.00
Br892  Br    0.47540   0.51982   0.89341   0.00000  Uiso   1.00
O893   O     0.58685   0.37162   0.80854   0.00000  Uiso   1.00
H894   H     0.59655   0.39879   0.81785   0.00000  Uiso   1.00
O895   O     0.41315   0.62838   0.69146   0.00000  Uiso   1.00
H896   H     0.40345   0.60121   0.68215   0.00000  Uiso   1.00
C897   C     0.99966   0.42078   0.75134   0.00000  Uiso   1.00
C898   C     0.66701   0.57922   0.74866   0.00000  Uiso   1.00
C899   C     0.86294   0.50244   0.54742   0.00000  Uiso   1.00
C900   C     0.80373   0.49756   0.95258   0.00000  Uiso   1.00
C901   C     0.90956   0.51497   0.52473   0.00000  Uiso   1.00
C902   C     0.75711   0.48503   0.97527   0.00000  Uiso   1.00
C903   C     0.95959   0.35363   0.77853   0.00000  Uiso   1.00
C904   C     0.70708   0.64637   0.72147   0.00000  Uiso   1.00
C905   C     0.96014   0.64431   0.77506   0.00000  Uiso   1.00
C906   C     0.70653   0.35569   0.72494   0.00000  Uiso   1.00
C907   C     0.66702   0.62385   0.74757   0.00000  Uiso   1.00
C908   C     0.99964   0.37615   0.75243   0.00000  Uiso   1.00
C909   C     0.84990   0.47486   0.77852   0.00000  Uiso   1.00
C910   C     0.81677   0.52514   0.72148   0.00000  Uiso   1.00
C911   C     0.80031   0.47491   0.77855   0.00000  Uiso   1.00
C912   C     0.86636   0.52509   0.72145   0.00000  Uiso   1.00
C913   C     0.97276   0.50053   0.83612   0.00000  Uiso   1.00
C914   C     0.69391   0.49947   0.66388   0.00000  Uiso   1.00
C915   C     0.95766   0.50426   0.88521   0.00000  Uiso   1.00
C916   C     0.70901   0.49574   0.61479   0.00000  Uiso   1.00
C917   C     0.97266   0.52428   0.95561   0.00000  Uiso   1.00
C918   C     0.69400   0.47572   0.54439   0.00000  Uiso   1.00
C919   C     0.98920   0.51930   0.90917   0.00000  Uiso   1.00
C920   C     0.67747   0.48070   0.59083   0.00000  Uiso   1.00
C921   C     0.90956   0.49530   0.90793   0.00000  Uiso   1.00
C922   C     0.75711   0.50469   0.59207   0.00000  Uiso   1.00
C923   C     0.89066   0.50490   0.95350   0.00000  Uiso   1.00
C924   C     0.77601   0.49510   0.54650   0.00000  Uiso   1.00
C925   C     0.92398   0.51604   0.97804   0.00000  Uiso   1.00
C926   C     0.74269   0.48396   0.52196   0.00000  Uiso   1.00
C927   C     0.84045   0.50058   0.97597   0.00000  Uiso   1.00
C928   C     0.82622   0.49942   0.52403   0.00000  Uiso   1.00
Cu929  Cu    0.71355   0.50001   0.75000   0.00000  Uiso   1.00
Cu930  Cu    0.95311   0.49999   0.75000   0.00000  Uiso   1.00
H931   H     0.93614   0.51963   0.54352   0.00000  Uiso   1.00
H932   H     0.73053   0.48037   0.95648   0.00000  Uiso   1.00
H933   H     0.77886   0.52096   0.61006   0.00000  Uiso   1.00
H934   H     0.88781   0.47904   0.88993   0.00000  Uiso   1.00
H935   H     0.97343   0.47336   0.60782   0.00000  Uiso   1.00
H936   H     0.69324   0.52664   0.89218   0.00000  Uiso   1.00
H937   H     0.99798   0.53411   0.97409   0.00000  Uiso   1.00
H938   H     0.66869   0.46589   0.52591   0.00000  Uiso   1.00
H939   H     0.92974   0.62692   0.79549   0.00000  Uiso   1.00
H940   H     0.73693   0.37308   0.70451   0.00000  Uiso   1.00
H941   H     0.86195   0.45471   0.80140   0.00000  Uiso   1.00
H942   H     0.80472   0.54529   0.69860   0.00000  Uiso   1.00
H943   H     0.77505   0.45483   0.80146   0.00000  Uiso   1.00
H944   H     0.89162   0.54517   0.69854   0.00000  Uiso   1.00
N945   N     0.78403   0.50001   0.74999   0.00000  Uiso   1.00
N946   N     0.88264   0.49999   0.75001   0.00000  Uiso   1.00
O947   O     0.70625   0.43989   0.75000   0.00000  Uiso   1.00
O948   O     0.96042   0.56011   0.75000   0.00000  Uiso   1.00
O949   O     0.96039   0.43988   0.75000   0.00000  Uiso   1.00
O950   O     0.70628   0.56012   0.74999   0.00000  Uiso   1.00
O951   O     0.68519   0.50001   0.81491   0.00000  Uiso   1.00
O952   O     0.98148   0.49999   0.68508   0.00000  Uiso   1.00
O953   O     0.93933   0.50000   0.81492   0.00000  Uiso   1.00
O954   O     0.72733   0.50000   0.68508   0.00000  Uiso   1.00
Br955  Br    0.85793   0.48018   0.60659   0.00000  Uiso   1.00
Br956  Br    0.80873   0.51982   0.89341   0.00000  Uiso   1.00
O957   O     0.92019   0.37162   0.80854   0.00000  Uiso   1.00
H958   H     0.92988   0.39879   0.81785   0.00000  Uiso   1.00
O959   O     0.74648   0.62838   0.69146   0.00000  Uiso   1.00
H960   H     0.73679   0.60121   0.68215   0.00000  Uiso   1.00
C961   C     0.33299   0.75412   0.75134   0.00000  Uiso   1.00
C962   C     0.00034   0.91255   0.74866   0.00000  Uiso   1.00
C963   C     0.19627   0.83577   0.54742   0.00000  Uiso   1.00
C964   C     0.13706   0.83090   0.95258   0.00000  Uiso   1.00
C965   C     0.24289   0.84831   0.52473   0.00000  Uiso   1.00
C966   C     0.09044   0.81836   0.97527   0.00000  Uiso   1.00
C967   C     0.29292   0.68696   0.77853   0.00000  Uiso   1.00
C968   C     0.04041   0.97971   0.72147   0.00000  Uiso   1.00
C969   C     0.29347   0.97764   0.77506   0.00000  Uiso   1.00
C970   C     0.03986   0.68903   0.72494   0.00000  Uiso   1.00
C971   C     0.00036   0.95718   0.74757   0.00000  Uiso   1.00
C972   C     0.33298   0.70948   0.75243   0.00000  Uiso   1.00
C973   C     0.18323   0.80819   0.77852   0.00000  Uiso   1.00
C974   C     0.15010   0.85848   0.72148   0.00000  Uiso   1.00
C975   C     0.13364   0.80824   0.77855   0.00000  Uiso   1.00
C976   C     0.19969   0.85842   0.72145   0.00000  Uiso   1.00
C977   C     0.30609   0.83386   0.83612   0.00000  Uiso   1.00
C978   C     0.02724   0.83281   0.66388   0.00000  Uiso   1.00
C979   C     0.29099   0.83760   0.88521   0.00000  Uiso   1.00
C980   C     0.04234   0.82907   0.61479   0.00000  Uiso   1.00
C981   C     0.30600   0.85762   0.95561   0.00000  Uiso   1.00
C982   C     0.02734   0.80905   0.54439   0.00000  Uiso   1.00
C983   C     0.32254   0.85263   0.90917   0.00000  Uiso   1.00
C984   C     0.01080   0.81403   0.59083   0.00000  Uiso   1.00
C985   C     0.24289   0.82864   0.90793   0.00000  Uiso   1.00
C986   C     0.09044   0.83803   0.59207   0.00000  Uiso   1.00
C987   C     0.22399   0.83823   0.95350   0.00000  Uiso   1.00
C988   C     0.10934   0.82843   0.54650   0.00000  Uiso   1.00
C989   C     0.25731   0.84938   0.97804   0.00000  Uiso   1.00
C990   C     0.07602   0.81729   0.52196   0.00000  Uiso   1.00
C991   C     0.17378   0.83392   0.97597   0.00000  Uiso   1.00
C992   C     0.15955   0.83275   0.52403   0.00000  Uiso   1.00
Cu993  Cu    0.04689   0.83334   0.75000   0.00000  Uiso   1.00
Cu994  Cu    0.28645   0.83333   0.75000   0.00000  Uiso   1.00
H995   H     0.26947   0.85296   0.54352   0.00000  Uiso   1.00
H996   H     0.06386   0.81370   0.95648   0.00000  Uiso   1.00
H997   H     0.11219   0.85429   0.61006   0.00000  Uiso   1.00
H998   H     0.22114   0.81237   0.88993   0.00000  Uiso   1.00
H999   H     0.30676   0.80669   0.60782   0.00000  Uiso   1.00
H1000  H     0.02657   0.85997   0.89218   0.00000  Uiso   1.00
H1001  H     0.33131   0.86745   0.97409   0.00000  Uiso   1.00
H1002  H     0.00202   0.79922   0.52591   0.00000  Uiso   1.00
H1003  H     0.26307   0.96025   0.79549   0.00000  Uiso   1.00
H1004  H     0.07026   0.70641   0.70451   0.00000  Uiso   1.00
H1005  H     0.19528   0.78804   0.80140   0.00000  Uiso   1.00
H1006  H     0.13805   0.87863   0.69860   0.00000  Uiso   1.00
H1007  H     0.10838   0.78816   0.80146   0.00000  Uiso   1.00
H1008  H     0.22495   0.87850   0.69854   0.00000  Uiso   1.00
N1009  N     0.11736   0.83334   0.74999   0.00000  Uiso   1.00
N1010  N     0.21597   0.83332   0.75001   0.00000  Uiso   1.00
O1011  O     0.03958   0.77322   0.75000   0.00000  Uiso   1.00
O1012  O     0.29375   0.89345   0.75000   0.00000  Uiso   1.00
O1013  O     0.29372   0.77321   0.75000   0.00000  Uiso   1.00
O1014  O     0.03961   0.89346   0.74999   0.00000  Uiso   1.00
O1015  O     0.01852   0.83334   0.81491   0.00000  Uiso   1.00
O1016  O     0.31481   0.83332   0.68508   0.00000  Uiso   1.00
O1017  O     0.27267   0.83333   0.81492   0.00000  Uiso   1.00
O1018  O     0.06067   0.83333   0.68508   0.00000  Uiso   1.00
Br1019 Br    0.19127   0.81351   0.60659   0.00000  Uiso   1.00
Br1020 Br    0.14207   0.85316   0.89341   0.00000  Uiso   1.00
O1021  O     0.25352   0.70495   0.80854   0.00000  Uiso   1.00
H1022  H     0.26321   0.73212   0.81785   0.00000  Uiso   1.00
O1023  O     0.07981   0.96171   0.69146   0.00000  Uiso   1.00
H1024  H     0.07012   0.93454   0.68215   0.00000  Uiso   1.00
C1025  C     0.66632   0.75412   0.75134   0.00000  Uiso   1.00
C1026  C     0.33368   0.91255   0.74866   0.00000  Uiso   1.00
C1027  C     0.52961   0.83577   0.54742   0.00000  Uiso   1.00
C1028  C     0.47039   0.83090   0.95258   0.00000  Uiso   1.00
C1029  C     0.57623   0.84831   0.52473   0.00000  Uiso   1.00
C1030  C     0.42377   0.81836   0.97527   0.00000  Uiso   1.00
C1031  C     0.62625   0.68696   0.77853   0.00000  Uiso   1.00
C1032  C     0.37375   0.97971   0.72147   0.00000  Uiso   1.00
C1033  C     0.62681   0.97764   0.77506   0.00000  Uiso   1.00
C1034  C     0.37319   0.68903   0.72494   0.00000  Uiso   1.00
C1035  C     0.33369   0.95718   0.74757   0.00000  Uiso   1.00
C1036  C     0.66631   0.70948   0.75243   0.00000  Uiso   1.00
C1037  C     0.51657   0.80819   0.77852   0.00000  Uiso   1.00
C1038  C     0.48343   0.85848   0.72148   0.00000  Uiso   1.00
C1039  C     0.46698   0.80824   0.77855   0.00000  Uiso   1.00
C1040  C     0.53302   0.85842   0.72145   0.00000  Uiso   1.00
C1041  C     0.63943   0.83386   0.83612   0.00000  Uiso   1.00
C1042  C     0.36057   0.83281   0.66388   0.00000  Uiso   1.00
C1043  C     0.62433   0.83760   0.88521   0.00000  Uiso   1.00
C1044  C     0.37567   0.82907   0.61479   0.00000  Uiso   1.00
C1045  C     0.63933   0.85762   0.95561   0.00000  Uiso   1.00
C1046  C     0.36067   0.80905   0.54439   0.00000  Uiso   1.00
C1047  C     0.65587   0.85263   0.90917   0.00000  Uiso   1.00
C1048  C     0.34413   0.81403   0.59083   0.00000  Uiso   1.00
C1049  C     0.57623   0.82864   0.90793   0.00000  Uiso   1.00
C1050  C     0.42378   0.83803   0.59207   0.00000  Uiso   1.00
C1051  C     0.55732   0.83823   0.95350   0.00000  Uiso   1.00
C1052  C     0.44268   0.82843   0.54650   0.00000  Uiso   1.00
C1053  C     0.59064   0.84938   0.97804   0.00000  Uiso   1.00
C1054  C     0.40936   0.81729   0.52196   0.00000  Uiso   1.00
C1055  C     0.50711   0.83392   0.97597   0.00000  Uiso   1.00
C1056  C     0.49289   0.83275   0.52403   0.00000  Uiso   1.00
Cu1057 Cu    0.38022   0.83334   0.75000   0.00000  Uiso   1.00
Cu1058 Cu    0.61978   0.83333   0.75000   0.00000  Uiso   1.00
H1059  H     0.60281   0.85296   0.54352   0.00000  Uiso   1.00
H1060  H     0.39719   0.81370   0.95648   0.00000  Uiso   1.00
H1061  H     0.44552   0.85429   0.61006   0.00000  Uiso   1.00
H1062  H     0.55448   0.81237   0.88993   0.00000  Uiso   1.00
H1063  H     0.64010   0.80669   0.60782   0.00000  Uiso   1.00
H1064  H     0.35990   0.85997   0.89218   0.00000  Uiso   1.00
H1065  H     0.66464   0.86745   0.97409   0.00000  Uiso   1.00
H1066  H     0.33536   0.79922   0.52591   0.00000  Uiso   1.00
H1067  H     0.59641   0.96025   0.79549   0.00000  Uiso   1.00
H1068  H     0.40359   0.70641   0.70451   0.00000  Uiso   1.00
H1069  H     0.52861   0.78804   0.80140   0.00000  Uiso   1.00
H1070  H     0.47139   0.87863   0.69860   0.00000  Uiso   1.00
H1071  H     0.44171   0.78816   0.80146   0.00000  Uiso   1.00
H1072  H     0.55829   0.87850   0.69854   0.00000  Uiso   1.00
N1073  N     0.45069   0.83334   0.74999   0.00000  Uiso   1.00
N1074  N     0.54931   0.83332   0.75001   0.00000  Uiso   1.00
O1075  O     0.37291   0.77322   0.75000   0.00000  Uiso   1.00
O1076  O     0.62709   0.89345   0.75000   0.00000  Uiso   1.00
O1077  O     0.62706   0.77321   0.75000   0.00000  Uiso   1.00
O1078  O     0.37294   0.89346   0.74999   0.00000  Uiso   1.00
O1079  O     0.35186   0.83334   0.81491   0.00000  Uiso   1.00
O1080  O     0.64814   0.83332   0.68508   0.00000  Uiso   1.00
O1081  O     0.60600   0.83333   0.81492   0.00000  Uiso   1.00
O1082  O     0.39400   0.83333   0.68508   0.00000  Uiso   1.00
Br1083 Br    0.52460   0.81351   0.60659   0.00000  Uiso   1.00
Br1084 Br    0.47540   0.85316   0.89341   0.00000  Uiso   1.00
O1085  O     0.58685   0.70495   0.80854   0.00000  Uiso   1.00
H1086  H     0.59655   0.73212   0.81785   0.00000  Uiso   1.00
O1087  O     0.41315   0.96171   0.69146   0.00000  Uiso   1.00
H1088  H     0.40345   0.93454   0.68215   0.00000  Uiso   1.00
C1089  C     0.99966   0.75412   0.75134   0.00000  Uiso   1.00
C1090  C     0.66701   0.91255   0.74866   0.00000  Uiso   1.00
C1091  C     0.86294   0.83577   0.54742   0.00000  Uiso   1.00
C1092  C     0.80373   0.83090   0.95258   0.00000  Uiso   1.00
C1093  C     0.90956   0.84831   0.52473   0.00000  Uiso   1.00
C1094  C     0.75711   0.81836   0.97527   0.00000  Uiso   1.00
C1095  C     0.95959   0.68696   0.77853   0.00000  Uiso   1.00
C1096  C     0.70708   0.97971   0.72147   0.00000  Uiso   1.00
C1097  C     0.96014   0.97764   0.77506   0.00000  Uiso   1.00
C1098  C     0.70653   0.68903   0.72494   0.00000  Uiso   1.00
C1099  C     0.66702   0.95718   0.74757   0.00000  Uiso   1.00
C1100  C     0.99964   0.70948   0.75243   0.00000  Uiso   1.00
C1101  C     0.84990   0.80819   0.77852   0.00000  Uiso   1.00
C1102  C     0.81677   0.85848   0.72148   0.00000  Uiso   1.00
C1103  C     0.80031   0.80824   0.77855   0.00000  Uiso   1.00
C1104  C     0.86636   0.85842   0.72145   0.00000  Uiso   1.00
C1105  C     0.97276   0.83386   0.83612   0.00000  Uiso   1.00
C1106  C     0.69391   0.83281   0.66388   0.00000  Uiso   1.00
C1107  C     0.95766   0.83760   0.88521   0.00000  Uiso   1.00
C1108  C     0.70901   0.82907   0.61479   0.00000  Uiso   1.00
C1109  C     0.97266   0.85762   0.95561   0.00000  Uiso   1.00
C1110  C     0.69400   0.80905   0.54439   0.00000  Uiso   1.00
C1111  C     0.98920   0.85263   0.90917   0.00000  Uiso   1.00
C1112  C     0.67747   0.81403   0.59083   0.00000  Uiso   1.00
C1113  C     0.90956   0.82864   0.90793   0.00000  Uiso   1.00
C1114  C     0.75711   0.83803   0.59207   0.00000  Uiso   1.00
C1115  C     0.89066   0.83823   0.95350   0.00000  Uiso   1.00
C1116  C     0.77601   0.82843   0.54650   0.00000  Uiso   1.00
C1117  C     0.92398   0.84938   0.97804   0.00000  Uiso   1.00
C1118  C     0.74269   0.81729   0.52196   0.00000  Uiso   1.00
C1119  C     0.84045   0.83392   0.97597   0.00000  Uiso   1.00
C1120  C     0.82622   0.83275   0.52403   0.00000  Uiso   1.00
Cu1121 Cu    0.71355   0.83334   0.75000   0.00000  Uiso   1.00
Cu1122 Cu    0.95311   0.83333   0.75000   0.00000  Uiso   1.00
H1123  H     0.93614   0.85296   0.54352   0.00000  Uiso   1.00
H1124  H     0.73053   0.81370   0.95648   0.00000  Uiso   1.00
H1125  H     0.77886   0.85429   0.61006   0.00000  Uiso   1.00
H1126  H     0.88781   0.81237   0.88993   0.00000  Uiso   1.00
H1127  H     0.97343   0.80669   0.60782   0.00000  Uiso   1.00
H1128  H     0.69324   0.85997   0.89218   0.00000  Uiso   1.00
H1129  H     0.99798   0.86745   0.97409   0.00000  Uiso   1.00
H1130  H     0.66869   0.79922   0.52591   0.00000  Uiso   1.00
H1131  H     0.92974   0.96025   0.79549   0.00000  Uiso   1.00
H1132  H     0.73693   0.70641   0.70451   0.00000  Uiso   1.00
H1133  H     0.86195   0.78804   0.80140   0.00000  Uiso   1.00
H1134  H     0.80472   0.87863   0.69860   0.00000  Uiso   1.00
H1135  H     0.77505   0.78816   0.80146   0.00000  Uiso   1.00
H1136  H     0.89162   0.87850   0.69854   0.00000  Uiso   1.00
N1137  N     0.78403   0.83334   0.74999   0.00000  Uiso   1.00
N1138  N     0.88264   0.83332   0.75001   0.00000  Uiso   1.00
O1139  O     0.70625   0.77322   0.75000   0.00000  Uiso   1.00
O1140  O     0.96042   0.89345   0.75000   0.00000  Uiso   1.00
O1141  O     0.96039   0.77321   0.75000   0.00000  Uiso   1.00
O1142  O     0.70628   0.89346   0.74999   0.00000  Uiso   1.00
O1143  O     0.68519   0.83334   0.81491   0.00000  Uiso   1.00
O1144  O     0.98148   0.83332   0.68508   0.00000  Uiso   1.00
O1145  O     0.93933   0.83333   0.81492   0.00000  Uiso   1.00
O1146  O     0.72733   0.83333   0.68508   0.00000  Uiso   1.00
Br1147 Br    0.85793   0.81351   0.60659   0.00000  Uiso   1.00
Br1148 Br    0.80873   0.85316   0.89341   0.00000  Uiso   1.00
O1149  O     0.92019   0.70495   0.80854   0.00000  Uiso   1.00
H1150  H     0.92988   0.73212   0.81785   0.00000  Uiso   1.00
O1151  O     0.74648   0.96171   0.69146   0.00000  Uiso   1.00
H1152  H     0.73679   0.93454   0.68215   0.00000  Uiso   1.00
loop_
_geom_bond_atom_site_label_1
_geom_bond_atom_site_label_2
_geom_bond_distance
_geom_bond_site_symmetry_2
_ccdc_geom_bond_type
C1     C12     1.446   .     S
C1     O53     1.291   .     A
C1     O115    1.290   .     S
C2     C11     1.446   .     S
C2     O54     1.291   .     A
C2     O180    1.290   1_455 S
C3     C5      1.390   .     A
C3     C32     1.428   .     A
C3     Br59    1.931   .     S
C4     Br60    1.931   .     S
C4     C6      1.390   .     A
C4     C31     1.428   .     A
C5     H35     1.084   .     S
C5     C605    1.389   1_554 S
C6     H36     1.084   .     S
C6     C606    1.389   .     S
C7     C12     1.414   .     A
C7     O61     1.381   .     S
C7     C393    1.386   1_545 S
C8     C11     1.414   .     A
C8     O63     1.381   .     S
C8     C202    1.386   .     S
C9     H43     1.085   .     S
C9     C199    1.386   .     S
C9     C75     1.399   .     S
C10    H44     1.085   .     S
C10    C392    1.386   1_545 S
C10    C140    1.399   1_455 S
C11    C137    1.399   1_455 S
C12    C74     1.399   .     S
C13    H45     1.082   .     S
C13    C15     1.417   .     A
C13    N50     1.368   .     A
C14    H46     1.082   .     S
C14    C16     1.417   .     A
C14    N49     1.368   .     A
C15    H47     1.082   .     S
C15    N49     1.367   .     A
C16    H48     1.082   .     S
C16    N50     1.367   .     A
C17    C19     1.465   .     S
C17    O57     1.295   .     A
C17    O119    1.297   .     S
C18    C20     1.465   .     S
C18    O58     1.295   .     A
C18    O184    1.297   1_455 S
C19    C23     1.400   .     A
C19    C25     1.397   .     A
C20    C24     1.400   .     A
C20    C26     1.397   .     A
C21    H41     1.083   .     S
C21    C23     1.394   .     A
C21    C29     1.404   .     A
C22    H42     1.083   .     S
C22    C24     1.394   .     A
C22    C30     1.404   .     A
C23    H104    1.083   .     S
C24    H167    1.083   1_455 S
C25    H38     1.078   .     S
C25    C27     1.401   .     A
C26    H37     1.078   .     S
C26    C28     1.401   .     A
C27    C29     1.415   .     A
C27    C31     1.424   .     A
C28    C30     1.415   .     A
C28    C32     1.424   .     A
C29    C581    1.389   .     S
C30    C582    1.389   1_554 S
C31    C608    1.430   .     S
C32    C607    1.430   1_554 S
Cu33   O55     1.950   .     S
Cu33   O58     1.936   .     S
Cu33   N49     2.015   .     S
Cu33   O54     1.958   .     S
Cu33   O51     1.959   .     S
Cu33   Cu162   2.681   1_455 S
Cu34   O57     1.936   .     S
Cu34   O56     1.950   .     S
Cu34   O53     1.958   .     S
Cu34   N50     2.015   .     S
Cu34   O52     1.959   .     S
Cu34   Cu97    2.681   .     S
H39    C88     1.083   .     S
H40    C151    1.083   1_455 S
O51    C129    1.290   1_455 S
O52    C66     1.290   .     S
O55    C145    1.297   1_455 S
O56    C82     1.297   .     S
O61    H62     0.990   .     S
O63    H64     0.990   .     S
C65    C76     1.446   .     S
C65    O117    1.291   .     A
C65    O179    1.290   .     S
C66    C75     1.446   .     S
C66    O118    1.291   .     A
C67    C69     1.390   .     A
C67    C96     1.428   .     A
C67    Br123   1.931   .     S
C68    Br124   1.931   .     S
C68    C70     1.390   .     A
C68    C95     1.428   .     A
C69    H99     1.084   .     S
C69    C669    1.389   1_554 S
C70    H100    1.084   .     S
C70    C670    1.389   .     S
C71    C76     1.414   .     A
C71    O125    1.381   .     S
C71    C457    1.386   1_545 S
C72    C75     1.414   .     A
C72    O127    1.381   .     S
C72    C266    1.386   .     S
C73    H107    1.085   .     S
C73    C263    1.386   .     S
C73    C139    1.399   .     S
C74    H108    1.085   .     S
C74    C456    1.386   1_545 S
C76    C138    1.399   .     S
C77    H109    1.082   .     S
C77    C79     1.417   .     A
C77    N114    1.368   .     A
C78    H110    1.082   .     S
C78    C80     1.417   .     A
C78    N113    1.368   .     A
C79    H111    1.082   .     S
C79    N113    1.367   .     A
C80    H112    1.082   .     S
C80    N114    1.367   .     A
C81    C83     1.465   .     S
C81    O121    1.295   .     A
C81    O183    1.297   .     S
C82    C84     1.465   .     S
C82    O122    1.295   .     A
C83    C87     1.400   .     A
C83    C89     1.397   .     A
C84    C88     1.400   .     A
C84    C90     1.397   .     A
C85    H105    1.083   .     S
C85    C87     1.394   .     A
C85    C93     1.404   .     A
C86    H106    1.083   .     S
C86    C88     1.394   .     A
C86    C94     1.404   .     A
C87    H168    1.083   .     S
C89    H102    1.078   .     S
C89    C91     1.401   .     A
C90    H101    1.078   .     S
C90    C92     1.401   .     A
C91    C93     1.415   .     A
C91    C95     1.424   .     A
C92    C94     1.415   .     A
C92    C96     1.424   .     A
C93    C645    1.389   .     S
C94    C646    1.389   1_554 S
C95    C672    1.430   .     S
C96    C671    1.430   1_554 S
Cu97   O119    1.950   .     S
Cu97   O122    1.936   .     S
Cu97   N113    2.015   .     S
Cu97   O118    1.958   .     S
Cu97   O115    1.959   .     S
Cu98   O121    1.936   .     S
Cu98   O120    1.950   .     S
Cu98   O117    1.958   .     S
Cu98   N114    2.015   .     S
Cu98   O116    1.959   .     S
Cu98   Cu161   2.681   .     S
H103   C152    1.083   .     S
O116   C130    1.290   .     S
O120   C146    1.297   .     S
O125   H126    0.990   .     S
O127   H128    0.990   .     S
C129   C140    1.446   .     S
C129   O181    1.291   .     A
C129   O51     1.290   1_655 S
C130   C139    1.446   .     S
C130   O182    1.291   .     A
C131   C133    1.390   .     A
C131   C160    1.428   .     A
C131   Br187   1.931   .     S
C132   Br188   1.931   .     S
C132   C134    1.390   .     A
C132   C159    1.428   .     A
C133   H163    1.084   .     S
C133   C733    1.389   1_554 S
C134   H164    1.084   .     S
C134   C734    1.389   .     S
C135   C140    1.414   .     A
C135   O189    1.381   .     S
C135   C521    1.386   1_545 S
C136   C139    1.414   .     A
C136   O191    1.381   .     S
C136   C330    1.386   .     S
C137   H171    1.085   .     S
C137   C327    1.386   .     S
C137   C11     1.399   1_655 S
C138   H172    1.085   .     S
C138   C520    1.386   1_545 S
C140   C10     1.399   1_655 S
C141   H173    1.082   .     S
C141   C143    1.417   .     A
C141   N178    1.368   .     A
C142   H174    1.082   .     S
C142   C144    1.417   .     A
C142   N177    1.368   .     A
C143   H175    1.082   .     S
C143   N177    1.367   .     A
C144   H176    1.082   .     S
C144   N178    1.367   .     A
C145   C147    1.465   .     S
C145   O185    1.295   .     A
C145   O55     1.297   1_655 S
C146   C148    1.465   .     S
C146   O186    1.295   .     A
C147   C151    1.400   .     A
C147   C153    1.397   .     A
C148   C152    1.400   .     A
C148   C154    1.397   .     A
C149   H169    1.083   .     S
C149   C151    1.394   .     A
C149   C157    1.404   .     A
C150   H170    1.083   .     S
C150   C152    1.394   .     A
C150   C158    1.404   .     A
C151   H40     1.083   1_655 S
C153   H166    1.078   .     S
C153   C155    1.401   .     A
C154   H165    1.078   .     S
C154   C156    1.401   .     A
C155   C157    1.415   .     A
C155   C159    1.424   .     A
C156   C158    1.415   .     A
C156   C160    1.424   .     A
C157   C709    1.389   .     S
C158   C710    1.389   1_554 S
C159   C736    1.430   .     S
C160   C735    1.430   1_554 S
Cu161  O183    1.950   .     S
Cu161  O186    1.936   .     S
Cu161  N177    2.015   .     S
Cu161  O182    1.958   .     S
Cu161  O179    1.959   .     S
Cu162  O185    1.936   .     S
Cu162  O184    1.950   .     S
Cu162  O181    1.958   .     S
Cu162  N178    2.015   .     S
Cu162  O180    1.959   .     S
Cu162  Cu33    2.681   1_655 S
H167   C24     1.083   1_655 S
O180   C2      1.290   1_655 S
O184   C18     1.297   1_655 S
O189   H190    0.990   .     S
O191   H192    0.990   .     S
C193   C204    1.446   .     S
C193   O245    1.291   .     A
C193   O307    1.290   .     S
C194   C203    1.446   .     S
C194   O246    1.291   .     A
C194   O372    1.290   1_455 S
C195   C197    1.390   .     A
C195   C224    1.428   .     A
C195   Br251   1.931   .     S
C196   Br252   1.931   .     S
C196   C198    1.390   .     A
C196   C223    1.428   .     A
C197   H227    1.084   .     S
C197   C797    1.389   1_554 S
C198   H228    1.084   .     S
C198   C798    1.389   .     S
C199   C204    1.414   .     A
C199   O253    1.381   .     S
C200   C203    1.414   .     A
C200   O255    1.381   .     S
C200   C394    1.386   .     S
C201   H235    1.085   .     S
C201   C391    1.386   .     S
C201   C267    1.399   .     S
C202   H236    1.085   .     S
C202   C332    1.399   1_455 S
C203   C329    1.399   1_455 S
C204   C266    1.399   .     S
C205   H237    1.082   .     S
C205   C207    1.417   .     A
C205   N242    1.368   .     A
C206   H238    1.082   .     S
C206   C208    1.417   .     A
C206   N241    1.368   .     A
C207   H239    1.082   .     S
C207   N241    1.367   .     A
C208   H240    1.082   .     S
C208   N242    1.367   .     A
C209   C211    1.465   .     S
C209   O249    1.295   .     A
C209   O311    1.297   .     S
C210   C212    1.465   .     S
C210   O250    1.295   .     A
C210   O376    1.297   1_455 S
C211   C215    1.400   .     A
C211   C217    1.397   .     A
C212   C216    1.400   .     A
C212   C218    1.397   .     A
C213   H233    1.083   .     S
C213   C215    1.394   .     A
C213   C221    1.404   .     A
C214   H234    1.083   .     S
C214   C216    1.394   .     A
C214   C222    1.404   .     A
C215   H296    1.083   .     S
C216   H359    1.083   1_455 S
C217   H230    1.078   .     S
C217   C219    1.401   .     A
C218   H229    1.078   .     S
C218   C220    1.401   .     A
C219   C221    1.415   .     A
C219   C223    1.424   .     A
C220   C222    1.415   .     A
C220   C224    1.424   .     A
C221   C773    1.389   .     S
C222   C774    1.389   1_554 S
C223   C800    1.430   .     S
C224   C799    1.430   1_554 S
Cu225  O247    1.950   .     S
Cu225  O250    1.936   .     S
Cu225  N241    2.015   .     S
Cu225  O246    1.958   .     S
Cu225  O243    1.959   .     S
Cu225  Cu354   2.681   1_455 S
Cu226  O249    1.936   .     S
Cu226  O248    1.950   .     S
Cu226  O245    1.958   .     S
Cu226  N242    2.015   .     S
Cu226  O244    1.959   .     S
Cu226  Cu289   2.681   .     S
H231   C280    1.083   .     S
H232   C343    1.083   1_455 S
O243   C321    1.290   1_455 S
O244   C258    1.290   .     S
O247   C337    1.297   1_455 S
O248   C274    1.297   .     S
O253   H254    0.990   .     S
O255   H256    0.990   .     S
C257   C268    1.446   .     S
C257   O309    1.291   .     A
C257   O371    1.290   .     S
C258   C267    1.446   .     S
C258   O310    1.291   .     A
C259   C261    1.390   .     A
C259   C288    1.428   .     A
C259   Br315   1.931   .     S
C260   Br316   1.931   .     S
C260   C262    1.390   .     A
C260   C287    1.428   .     A
C261   H291    1.084   .     S
C261   C861    1.389   1_554 S
C262   H292    1.084   .     S
C262   C862    1.389   .     S
C263   C268    1.414   .     A
C263   O317    1.381   .     S
C264   C267    1.414   .     A
C264   O319    1.381   .     S
C264   C458    1.386   .     S
C265   H299    1.085   .     S
C265   C455    1.386   .     S
C265   C331    1.399   .     S
C266   H300    1.085   .     S
C268   C330    1.399   .     S
C269   H301    1.082   .     S
C269   C271    1.417   .     A
C269   N306    1.368   .     A
C270   H302    1.082   .     S
C270   C272    1.417   .     A
C270   N305    1.368   .     A
C271   H303    1.082   .     S
C271   N305    1.367   .     A
C272   H304    1.082   .     S
C272   N306    1.367   .     A
C273   C275    1.465   .     S
C273   O313    1.295   .     A
C273   O375    1.297   .     S
C274   C276    1.465   .     S
C274   O314    1.295   .     A
C275   C279    1.400   .     A
C275   C281    1.397   .     A
C276   C280    1.400   .     A
C276   C282    1.397   .     A
C277   H297    1.083   .     S
C277   C279    1.394   .     A
C277   C285    1.404   .     A
C278   H298    1.083   .     S
C278   C280    1.394   .     A
C278   C286    1.404   .     A
C279   H360    1.083   .     S
C281   H294    1.078   .     S
C281   C283    1.401   .     A
C282   H293    1.078   .     S
C282   C284    1.401   .     A
C283   C285    1.415   .     A
C283   C287    1.424   .     A
C284   C286    1.415   .     A
C284   C288    1.424   .     A
C285   C837    1.389   .     S
C286   C838    1.389   1_554 S
C287   C864    1.430   .     S
C288   C863    1.430   1_554 S
Cu289  O311    1.950   .     S
Cu289  O314    1.936   .     S
Cu289  N305    2.015   .     S
Cu289  O310    1.958   .     S
Cu289  O307    1.959   .     S
Cu290  O313    1.936   .     S
Cu290  O312    1.950   .     S
Cu290  O309    1.958   .     S
Cu290  N306    2.015   .     S
Cu290  O308    1.959   .     S
Cu290  Cu353   2.681   .     S
H295   C344    1.083   .     S
O308   C322    1.290   .     S
O312   C338    1.297   .     S
O317   H318    0.990   .     S
O319   H320    0.990   .     S
C321   C332    1.446   .     S
C321   O373    1.291   .     A
C321   O243    1.290   1_655 S
C322   C331    1.446   .     S
C322   O374    1.291   .     A
C323   C325    1.390   .     A
C323   C352    1.428   .     A
C323   Br379   1.931   .     S
C324   Br380   1.931   .     S
C324   C326    1.390   .     A
C324   C351    1.428   .     A
C325   H355    1.084   .     S
C325   C925    1.389   1_554 S
C326   H356    1.084   .     S
C326   C926    1.389   .     S
C327   C332    1.414   .     A
C327   O381    1.381   .     S
C328   C331    1.414   .     A
C328   O383    1.381   .     S
C328   C522    1.386   .     S
C329   H363    1.085   .     S
C329   C519    1.386   .     S
C329   C203    1.399   1_655 S
C330   H364    1.085   .     S
C332   C202    1.399   1_655 S
C333   H365    1.082   .     S
C333   C335    1.417   .     A
C333   N370    1.368   .     A
C334   H366    1.082   .     S
C334   C336    1.417   .     A
C334   N369    1.368   .     A
C335   H367    1.082   .     S
C335   N369    1.367   .     A
C336   H368    1.082   .     S
C336   N370    1.367   .     A
C337   C339    1.465   .     S
C337   O377    1.295   .     A
C337   O247    1.297   1_655 S
C338   C340    1.465   .     S
C338   O378    1.295   .     A
C339   C343    1.400   .     A
C339   C345    1.397   .     A
C340   C344    1.400   .     A
C340   C346    1.397   .     A
C341   H361    1.083   .     S
C341   C343    1.394   .     A
C341   C349    1.404   .     A
C342   H362    1.083   .     S
C342   C344    1.394   .     A
C342   C350    1.404   .     A
C343   H232    1.083   1_655 S
C345   H358    1.078   .     S
C345   C347    1.401   .     A
C346   H357    1.078   .     S
C346   C348    1.401   .     A
C347   C349    1.415   .     A
C347   C351    1.424   .     A
C348   C350    1.415   .     A
C348   C352    1.424   .     A
C349   C901    1.389   .     S
C350   C902    1.389   1_554 S
C351   C928    1.430   .     S
C352   C927    1.430   1_554 S
Cu353  O375    1.950   .     S
Cu353  O378    1.936   .     S
Cu353  N369    2.015   .     S
Cu353  O374    1.958   .     S
Cu353  O371    1.959   .     S
Cu354  O377    1.936   .     S
Cu354  O376    1.950   .     S
Cu354  O373    1.958   .     S
Cu354  N370    2.015   .     S
Cu354  O372    1.959   .     S
Cu354  Cu225   2.681   1_655 S
H359   C216    1.083   1_655 S
O372   C194    1.290   1_655 S
O376   C210    1.297   1_655 S
O381   H382    0.990   .     S
O383   H384    0.990   .     S
C385   C396    1.446   .     S
C385   O437    1.291   .     A
C385   O499    1.290   .     S
C386   C395    1.446   .     S
C386   O438    1.291   .     A
C386   O564    1.290   1_455 S
C387   C389    1.390   .     A
C387   C416    1.428   .     A
C387   Br443   1.931   .     S
C388   Br444   1.931   .     S
C388   C390    1.390   .     A
C388   C415    1.428   .     A
C389   H419    1.084   .     S
C389   C989    1.389   1_554 S
C390   H420    1.084   .     S
C390   C990    1.389   .     S
C391   C396    1.414   .     A
C391   O445    1.381   .     S
C392   C395    1.414   .     A
C392   O447    1.381   .     S
C392   C10     1.386   1_565 S
C393   H427    1.085   .     S
C393   C7      1.386   1_565 S
C393   C459    1.399   .     S
C394   H428    1.085   .     S
C394   C524    1.399   1_455 S
C395   C521    1.399   1_455 S
C396   C458    1.399   .     S
C397   H429    1.082   .     S
C397   C399    1.417   .     A
C397   N434    1.368   .     A
C398   H430    1.082   .     S
C398   C400    1.417   .     A
C398   N433    1.368   .     A
C399   H431    1.082   .     S
C399   N433    1.367   .     A
C400   H432    1.082   .     S
C400   N434    1.367   .     A
C401   C403    1.465   .     S
C401   O441    1.295   .     A
C401   O503    1.297   .     S
C402   C404    1.465   .     S
C402   O442    1.295   .     A
C402   O568    1.297   1_455 S
C403   C407    1.400   .     A
C403   C409    1.397   .     A
C404   C408    1.400   .     A
C404   C410    1.397   .     A
C405   H425    1.083   .     S
C405   C407    1.394   .     A
C405   C413    1.404   .     A
C406   H426    1.083   .     S
C406   C408    1.394   .     A
C406   C414    1.404   .     A
C407   H488    1.083   .     S
C408   H551    1.083   1_455 S
C409   H422    1.078   .     S
C409   C411    1.401   .     A
C410   H421    1.078   .     S
C410   C412    1.401   .     A
C411   C413    1.415   .     A
C411   C415    1.424   .     A
C412   C414    1.415   .     A
C412   C416    1.424   .     A
C413   C965    1.389   .     S
C414   C966    1.389   1_554 S
C415   C992    1.430   .     S
C416   C991    1.430   1_554 S
Cu417  O439    1.950   .     S
Cu417  O442    1.936   .     S
Cu417  N433    2.015   .     S
Cu417  O438    1.958   .     S
Cu417  O435    1.959   .     S
Cu417  Cu546   2.681   1_455 S
Cu418  O441    1.936   .     S
Cu418  O440    1.950   .     S
Cu418  O437    1.958   .     S
Cu418  N434    2.015   .     S
Cu418  O436    1.959   .     S
Cu418  Cu481   2.681   .     S
H423   C472    1.083   .     S
H424   C535    1.083   1_455 S
O435   C513    1.290   1_455 S
O436   C450    1.290   .     S
O439   C529    1.297   1_455 S
O440   C466    1.297   .     S
O445   H446    0.990   .     S
O447   H448    0.990   .     S
C449   C460    1.446   .     S
C449   O501    1.291   .     A
C449   O563    1.290   .     S
C450   C459    1.446   .     S
C450   O502    1.291   .     A
C451   C453    1.390   .     A
C451   C480    1.428   .     A
C451   Br507   1.931   .     S
C452   Br508   1.931   .     S
C452   C454    1.390   .     A
C452   C479    1.428   .     A
C453   H483    1.084   .     S
C453   C1053   1.389   1_554 S
C454   H484    1.084   .     S
C454   C1054   1.389   .     S
C455   C460    1.414   .     A
C455   O509    1.381   .     S
C456   C459    1.414   .     A
C456   O511    1.381   .     S
C456   C74     1.386   1_565 S
C457   H491    1.085   .     S
C457   C71     1.386   1_565 S
C457   C523    1.399   .     S
C458   H492    1.085   .     S
C460   C522    1.399   .     S
C461   H493    1.082   .     S
C461   C463    1.417   .     A
C461   N498    1.368   .     A
C462   H494    1.082   .     S
C462   C464    1.417   .     A
C462   N497    1.368   .     A
C463   H495    1.082   .     S
C463   N497    1.367   .     A
C464   H496    1.082   .     S
C464   N498    1.367   .     A
C465   C467    1.465   .     S
C465   O505    1.295   .     A
C465   O567    1.297   .     S
C466   C468    1.465   .     S
C466   O506    1.295   .     A
C467   C471    1.400   .     A
C467   C473    1.397   .     A
C468   C472    1.400   .     A
C468   C474    1.397   .     A
C469   H489    1.083   .     S
C469   C471    1.394   .     A
C469   C477    1.404   .     A
C470   H490    1.083   .     S
C470   C472    1.394   .     A
C470   C478    1.404   .     A
C471   H552    1.083   .     S
C473   H486    1.078   .     S
C473   C475    1.401   .     A
C474   H485    1.078   .     S
C474   C476    1.401   .     A
C475   C477    1.415   .     A
C475   C479    1.424   .     A
C476   C478    1.415   .     A
C476   C480    1.424   .     A
C477   C1029   1.389   .     S
C478   C1030   1.389   1_554 S
C479   C1056   1.430   .     S
C480   C1055   1.430   1_554 S
Cu481  O503    1.950   .     S
Cu481  O506    1.936   .     S
Cu481  N497    2.015   .     S
Cu481  O502    1.958   .     S
Cu481  O499    1.959   .     S
Cu482  O505    1.936   .     S
Cu482  O504    1.950   .     S
Cu482  O501    1.958   .     S
Cu482  N498    2.015   .     S
Cu482  O500    1.959   .     S
Cu482  Cu545   2.681   .     S
H487   C536    1.083   .     S
O500   C514    1.290   .     S
O504   C530    1.297   .     S
O509   H510    0.990   .     S
O511   H512    0.990   .     S
C513   C524    1.446   .     S
C513   O565    1.291   .     A
C513   O435    1.290   1_655 S
C514   C523    1.446   .     S
C514   O566    1.291   .     A
C515   C517    1.390   .     A
C515   C544    1.428   .     A
C515   Br571   1.931   .     S
C516   Br572   1.931   .     S
C516   C518    1.390   .     A
C516   C543    1.428   .     A
C517   H547    1.084   .     S
C517   C1117   1.389   1_554 S
C518   H548    1.084   .     S
C518   C1118   1.389   .     S
C519   C524    1.414   .     A
C519   O573    1.381   .     S
C520   C523    1.414   .     A
C520   O575    1.381   .     S
C520   C138    1.386   1_565 S
C521   H555    1.085   .     S
C521   C135    1.386   1_565 S
C521   C395    1.399   1_655 S
C522   H556    1.085   .     S
C524   C394    1.399   1_655 S
C525   H557    1.082   .     S
C525   C527    1.417   .     A
C525   N562    1.368   .     A
C526   H558    1.082   .     S
C526   C528    1.417   .     A
C526   N561    1.368   .     A
C527   H559    1.082   .     S
C527   N561    1.367   .     A
C528   H560    1.082   .     S
C528   N562    1.367   .     A
C529   C531    1.465   .     S
C529   O569    1.295   .     A
C529   O439    1.297   1_655 S
C530   C532    1.465   .     S
C530   O570    1.295   .     A
C531   C535    1.400   .     A
C531   C537    1.397   .     A
C532   C536    1.400   .     A
C532   C538    1.397   .     A
C533   H553    1.083   .     S
C533   C535    1.394   .     A
C533   C541    1.404   .     A
C534   H554    1.083   .     S
C534   C536    1.394   .     A
C534   C542    1.404   .     A
C535   H424    1.083   1_655 S
C537   H550    1.078   .     S
C537   C539    1.401   .     A
C538   H549    1.078   .     S
C538   C540    1.401   .     A
C539   C541    1.415   .     A
C539   C543    1.424   .     A
C540   C542    1.415   .     A
C540   C544    1.424   .     A
C541   C1093   1.389   .     S
C542   C1094   1.389   1_554 S
C543   C1120   1.430   .     S
C544   C1119   1.430   1_554 S
Cu545  O567    1.950   .     S
Cu545  O570    1.936   .     S
Cu545  N561    2.015   .     S
Cu545  O566    1.958   .     S
Cu545  O563    1.959   .     S
Cu546  O569    1.936   .     S
Cu546  O568    1.950   .     S
Cu546  O565    1.958   .     S
Cu546  N562    2.015   .     S
Cu546  O564    1.959   .     S
Cu546  Cu417   2.681   1_655 S
H551   C408    1.083   1_655 S
O564   C386    1.290   1_655 S
O568   C402    1.297   1_655 S
O573   H574    0.990   .     S
O575   H576    0.990   .     S
C577   C588    1.446   .     S
C577   O629    1.291   .     A
C577   O691    1.290   .     S
C578   C587    1.446   .     S
C578   O630    1.291   .     A
C578   O756    1.290   1_455 S
C579   C581    1.390   .     A
C579   C608    1.428   .     A
C579   Br635   1.931   .     S
C580   Br636   1.931   .     S
C580   C582    1.390   .     A
C580   C607    1.428   .     A
C581   H611    1.084   .     S
C582   H612    1.084   .     S
C582   C30     1.389   1_556 S
C583   C588    1.414   .     A
C583   O637    1.381   .     S
C583   C969    1.386   1_545 S
C584   C587    1.414   .     A
C584   O639    1.381   .     S
C584   C778    1.386   .     S
C585   H619    1.085   .     S
C585   C775    1.386   .     S
C585   C651    1.399   .     S
C586   H620    1.085   .     S
C586   C968    1.386   1_545 S
C586   C716    1.399   1_455 S
C587   C713    1.399   1_455 S
C588   C650    1.399   .     S
C589   H621    1.082   .     S
C589   C591    1.417   .     A
C589   N626    1.368   .     A
C590   H622    1.082   .     S
C590   C592    1.417   .     A
C590   N625    1.368   .     A
C591   H623    1.082   .     S
C591   N625    1.367   .     A
C592   H624    1.082   .     S
C592   N626    1.367   .     A
C593   C595    1.465   .     S
C593   O633    1.295   .     A
C593   O695    1.297   .     S
C594   C596    1.465   .     S
C594   O634    1.295   .     A
C594   O760    1.297   1_455 S
C595   C599    1.400   .     A
C595   C601    1.397   .     A
C596   C600    1.400   .     A
C596   C602    1.397   .     A
C597   H617    1.083   .     S
C597   C599    1.394   .     A
C597   C605    1.404   .     A
C598   H618    1.083   .     S
C598   C600    1.394   .     A
C598   C606    1.404   .     A
C599   H680    1.083   .     S
C600   H743    1.083   1_455 S
C601   H614    1.078   .     S
C601   C603    1.401   .     A
C602   H613    1.078   .     S
C602   C604    1.401   .     A
C603   C605    1.415   .     A
C603   C607    1.424   .     A
C604   C606    1.415   .     A
C604   C608    1.424   .     A
C605   C5      1.389   1_556 S
C607   C32     1.430   1_556 S
Cu609  O631    1.950   .     S
Cu609  O634    1.936   .     S
Cu609  N625    2.015   .     S
Cu609  O630    1.958   .     S
Cu609  O627    1.959   .     S
Cu609  Cu738   2.681   1_455 S
Cu610  O633    1.936   .     S
Cu610  O632    1.950   .     S
Cu610  O629    1.958   .     S
Cu610  N626    2.015   .     S
Cu610  O628    1.959   .     S
Cu610  Cu673   2.681   .     S
H615   C664    1.083   .     S
H616   C727    1.083   1_455 S
O627   C705    1.290   1_455 S
O628   C642    1.290   .     S
O631   C721    1.297   1_455 S
O632   C658    1.297   .     S
O637   H638    0.990   .     S
O639   H640    0.990   .     S
C641   C652    1.446   .     S
C641   O693    1.291   .     A
C641   O755    1.290   .     S
C642   C651    1.446   .     S
C642   O694    1.291   .     A
C643   C645    1.390   .     A
C643   C672    1.428   .     A
C643   Br699   1.931   .     S
C644   Br700   1.931   .     S
C644   C646    1.390   .     A
C644   C671    1.428   .     A
C645   H675    1.084   .     S
C646   H676    1.084   .     S
C646   C94     1.389   1_556 S
C647   C652    1.414   .     A
C647   O701    1.381   .     S
C647   C1033   1.386   1_545 S
C648   C651    1.414   .     A
C648   O703    1.381   .     S
C648   C842    1.386   .     S
C649   H683    1.085   .     S
C649   C839    1.386   .     S
C649   C715    1.399   .     S
C650   H684    1.085   .     S
C650   C1032   1.386   1_545 S
C652   C714    1.399   .     S
C653   H685    1.082   .     S
C653   C655    1.417   .     A
C653   N690    1.368   .     A
C654   H686    1.082   .     S
C654   C656    1.417   .     A
C654   N689    1.368   .     A
C655   H687    1.082   .     S
C655   N689    1.367   .     A
C656   H688    1.082   .     S
C656   N690    1.367   .     A
C657   C659    1.465   .     S
C657   O697    1.295   .     A
C657   O759    1.297   .     S
C658   C660    1.465   .     S
C658   O698    1.295   .     A
C659   C663    1.400   .     A
C659   C665    1.397   .     A
C660   C664    1.400   .     A
C660   C666    1.397   .     A
C661   H681    1.083   .     S
C661   C663    1.394   .     A
C661   C669    1.404   .     A
C662   H682    1.083   .     S
C662   C664    1.394   .     A
C662   C670    1.404   .     A
C663   H744    1.083   .     S
C665   H678    1.078   .     S
C665   C667    1.401   .     A
C666   H677    1.078   .     S
C666   C668    1.401   .     A
C667   C669    1.415   .     A
C667   C671    1.424   .     A
C668   C670    1.415   .     A
C668   C672    1.424   .     A
C669   C69     1.389   1_556 S
C671   C96     1.430   1_556 S
Cu673  O695    1.950   .     S
Cu673  O698    1.936   .     S
Cu673  N689    2.015   .     S
Cu673  O694    1.958   .     S
Cu673  O691    1.959   .     S
Cu674  O697    1.936   .     S
Cu674  O696    1.950   .     S
Cu674  O693    1.958   .     S
Cu674  N690    2.015   .     S
Cu674  O692    1.959   .     S
Cu674  Cu737   2.681   .     S
H679   C728    1.083   .     S
O692   C706    1.290   .     S
O696   C722    1.297   .     S
O701   H702    0.990   .     S
O703   H704    0.990   .     S
C705   C716    1.446   .     S
C705   O757    1.291   .     A
C705   O627    1.290   1_655 S
C706   C715    1.446   .     S
C706   O758    1.291   .     A
C707   C709    1.390   .     A
C707   C736    1.428   .     A
C707   Br763   1.931   .     S
C708   Br764   1.931   .     S
C708   C710    1.390   .     A
C708   C735    1.428   .     A
C709   H739    1.084   .     S
C710   H740    1.084   .     S
C710   C158    1.389   1_556 S
C711   C716    1.414   .     A
C711   O765    1.381   .     S
C711   C1097   1.386   1_545 S
C712   C715    1.414   .     A
C712   O767    1.381   .     S
C712   C906    1.386   .     S
C713   H747    1.085   .     S
C713   C903    1.386   .     S
C713   C587    1.399   1_655 S
C714   H748    1.085   .     S
C714   C1096   1.386   1_545 S
C716   C586    1.399   1_655 S
C717   H749    1.082   .     S
C717   C719    1.417   .     A
C717   N754    1.368   .     A
C718   H750    1.082   .     S
C718   C720    1.417   .     A
C718   N753    1.368   .     A
C719   H751    1.082   .     S
C719   N753    1.367   .     A
C720   H752    1.082   .     S
C720   N754    1.367   .     A
C721   C723    1.465   .     S
C721   O761    1.295   .     A
C721   O631    1.297   1_655 S
C722   C724    1.465   .     S
C722   O762    1.295   .     A
C723   C727    1.400   .     A
C723   C729    1.397   .     A
C724   C728    1.400   .     A
C724   C730    1.397   .     A
C725   H745    1.083   .     S
C725   C727    1.394   .     A
C725   C733    1.404   .     A
C726   H746    1.083   .     S
C726   C728    1.394   .     A
C726   C734    1.404   .     A
C727   H616    1.083   1_655 S
C729   H742    1.078   .     S
C729   C731    1.401   .     A
C730   H741    1.078   .     S
C730   C732    1.401   .     A
C731   C733    1.415   .     A
C731   C735    1.424   .     A
C732   C734    1.415   .     A
C732   C736    1.424   .     A
C733   C133    1.389   1_556 S
C735   C160    1.430   1_556 S
Cu737  O759    1.950   .     S
Cu737  O762    1.936   .     S
Cu737  N753    2.015   .     S
Cu737  O758    1.958   .     S
Cu737  O755    1.959   .     S
Cu738  O761    1.936   .     S
Cu738  O760    1.950   .     S
Cu738  O757    1.958   .     S
Cu738  N754    2.015   .     S
Cu738  O756    1.959   .     S
Cu738  Cu609   2.681   1_655 S
H743   C600    1.083   1_655 S
O756   C578    1.290   1_655 S
O760   C594    1.297   1_655 S
O765   H766    0.990   .     S
O767   H768    0.990   .     S
C769   C780    1.446   .     S
C769   O821    1.291   .     A
C769   O883    1.290   .     S
C770   C779    1.446   .     S
C770   O822    1.291   .     A
C770   O948    1.290   1_455 S
C771   C773    1.390   .     A
C771   C800    1.428   .     A
C771   Br827   1.931   .     S
C772   Br828   1.931   .     S
C772   C774    1.390   .     A
C772   C799    1.428   .     A
C773   H803    1.084   .     S
C774   H804    1.084   .     S
C774   C222    1.389   1_556 S
C775   C780    1.414   .     A
C775   O829    1.381   .     S
C776   C779    1.414   .     A
C776   O831    1.381   .     S
C776   C970    1.386   .     S
C777   H811    1.085   .     S
C777   C967    1.386   .     S
C777   C843    1.399   .     S
C778   H812    1.085   .     S
C778   C908    1.399   1_455 S
C779   C905    1.399   1_455 S
C780   C842    1.399   .     S
C781   H813    1.082   .     S
C781   C783    1.417   .     A
C781   N818    1.368   .     A
C782   H814    1.082   .     S
C782   C784    1.417   .     A
C782   N817    1.368   .     A
C783   H815    1.082   .     S
C783   N817    1.367   .     A
C784   H816    1.082   .     S
C784   N818    1.367   .     A
C785   C787    1.465   .     S
C785   O825    1.295   .     A
C785   O887    1.297   .     S
C786   C788    1.465   .     S
C786   O826    1.295   .     A
C786   O952    1.297   1_455 S
C787   C791    1.400   .     A
C787   C793    1.397   .     A
C788   C792    1.400   .     A
C788   C794    1.397   .     A
C789   H809    1.083   .     S
C789   C791    1.394   .     A
C789   C797    1.404   .     A
C790   H810    1.083   .     S
C790   C792    1.394   .     A
C790   C798    1.404   .     A
C791   H872    1.083   .     S
C792   H935    1.083   1_455 S
C793   H806    1.078   .     S
C793   C795    1.401   .     A
C794   H805    1.078   .     S
C794   C796    1.401   .     A
C795   C797    1.415   .     A
C795   C799    1.424   .     A
C796   C798    1.415   .     A
C796   C800    1.424   .     A
C797   C197    1.389   1_556 S
C799   C224    1.430   1_556 S
Cu801  O823    1.950   .     S
Cu801  O826    1.936   .     S
Cu801  N817    2.015   .     S
Cu801  O822    1.958   .     S
Cu801  O819    1.959   .     S
Cu801  Cu930   2.681   1_455 S
Cu802  O825    1.936   .     S
Cu802  O824    1.950   .     S
Cu802  O821    1.958   .     S
Cu802  N818    2.015   .     S
Cu802  O820    1.959   .     S
Cu802  Cu865   2.681   .     S
H807   C856    1.083   .     S
H808   C919    1.083   1_455 S
O819   C897    1.290   1_455 S
O820   C834    1.290   .     S
O823   C913    1.297   1_455 S
O824   C850    1.297   .     S
O829   H830    0.990   .     S
O831   H832    0.990   .     S
C833   C844    1.446   .     S
C833   O885    1.291   .     A
C833   O947    1.290   .     S
C834   C843    1.446   .     S
C834   O886    1.291   .     A
C835   C837    1.390   .     A
C835   C864    1.428   .     A
C835   Br891   1.931   .     S
C836   Br892   1.931   .     S
C836   C838    1.390   .     A
C836   C863    1.428   .     A
C837   H867    1.084   .     S
C838   H868    1.084   .     S
C838   C286    1.389   1_556 S
C839   C844    1.414   .     A
C839   O893    1.381   .     S
C840   C843    1.414   .     A
C840   O895    1.381   .     S
C840   C1034   1.386   .     S
C841   H875    1.085   .     S
C841   C1031   1.386   .     S
C841   C907    1.399   .     S
C842   H876    1.085   .     S
C844   C906    1.399   .     S
C845   H877    1.082   .     S
C845   C847    1.417   .     A
C845   N882    1.368   .     A
C846   H878    1.082   .     S
C846   C848    1.417   .     A
C846   N881    1.368   .     A
C847   H879    1.082   .     S
C847   N881    1.367   .     A
C848   H880    1.082   .     S
C848   N882    1.367   .     A
C849   C851    1.465   .     S
C849   O889    1.295   .     A
C849   O951    1.297   .     S
C850   C852    1.465   .     S
C850   O890    1.295   .     A
C851   C855    1.400   .     A
C851   C857    1.397   .     A
C852   C856    1.400   .     A
C852   C858    1.397   .     A
C853   H873    1.083   .     S
C853   C855    1.394   .     A
C853   C861    1.404   .     A
C854   H874    1.083   .     S
C854   C856    1.394   .     A
C854   C862    1.404   .     A
C855   H936    1.083   .     S
C857   H870    1.078   .     S
C857   C859    1.401   .     A
C858   H869    1.078   .     S
C858   C860    1.401   .     A
C859   C861    1.415   .     A
C859   C863    1.424   .     A
C860   C862    1.415   .     A
C860   C864    1.424   .     A
C861   C261    1.389   1_556 S
C863   C288    1.430   1_556 S
Cu865  O887    1.950   .     S
Cu865  O890    1.936   .     S
Cu865  N881    2.015   .     S
Cu865  O886    1.958   .     S
Cu865  O883    1.959   .     S
Cu866  O889    1.936   .     S
Cu866  O888    1.950   .     S
Cu866  O885    1.958   .     S
Cu866  N882    2.015   .     S
Cu866  O884    1.959   .     S
Cu866  Cu929   2.681   .     S
H871   C920    1.083   .     S
O884   C898    1.290   .     S
O888   C914    1.297   .     S
O893   H894    0.990   .     S
O895   H896    0.990   .     S
C897   C908    1.446   .     S
C897   O949    1.291   .     A
C897   O819    1.290   1_655 S
C898   C907    1.446   .     S
C898   O950    1.291   .     A
C899   C901    1.390   .     A
C899   C928    1.428   .     A
C899   Br955   1.931   .     S
C900   Br956   1.931   .     S
C900   C902    1.390   .     A
C900   C927    1.428   .     A
C901   H931    1.084   .     S
C902   H932    1.084   .     S
C902   C350    1.389   1_556 S
C903   C908    1.414   .     A
C903   O957    1.381   .     S
C904   C907    1.414   .     A
C904   O959    1.381   .     S
C904   C1098   1.386   .     S
C905   H939    1.085   .     S
C905   C1095   1.386   .     S
C905   C779    1.399   1_655 S
C906   H940    1.085   .     S
C908   C778    1.399   1_655 S
C909   H941    1.082   .     S
C909   C911    1.417   .     A
C909   N946    1.368   .     A
C910   H942    1.082   .     S
C910   C912    1.417   .     A
C910   N945    1.368   .     A
C911   H943    1.082   .     S
C911   N945    1.367   .     A
C912   H944    1.082   .     S
C912   N946    1.367   .     A
C913   C915    1.465   .     S
C913   O953    1.295   .     A
C913   O823    1.297   1_655 S
C914   C916    1.465   .     S
C914   O954    1.295   .     A
C915   C919    1.400   .     A
C915   C921    1.397   .     A
C916   C920    1.400   .     A
C916   C922    1.397   .     A
C917   H937    1.083   .     S
C917   C919    1.394   .     A
C917   C925    1.404   .     A
C918   H938    1.083   .     S
C918   C920    1.394   .     A
C918   C926    1.404   .     A
C919   H808    1.083   1_655 S
C921   H934    1.078   .     S
C921   C923    1.401   .     A
C922   H933    1.078   .     S
C922   C924    1.401   .     A
C923   C925    1.415   .     A
C923   C927    1.424   .     A
C924   C926    1.415   .     A
C924   C928    1.424   .     A
C925   C325    1.389   1_556 S
C927   C352    1.430   1_556 S
Cu929  O951    1.950   .     S
Cu929  O954    1.936   .     S
Cu929  N945    2.015   .     S
Cu929  O950    1.958   .     S
Cu929  O947    1.959   .     S
Cu930  O953    1.936   .     S
Cu930  O952    1.950   .     S
Cu930  O949    1.958   .     S
Cu930  N946    2.015   .     S
Cu930  O948    1.959   .     S
Cu930  Cu801   2.681   1_655 S
H935   C792    1.083   1_655 S
O948   C770    1.290   1_655 S
O952   C786    1.297   1_655 S
O957   H958    0.990   .     S
O959   H960    0.990   .     S
C961   C972    1.446   .     S
C961   O1013   1.291   .     A
C961   O1075   1.290   .     S
C962   C971    1.446   .     S
C962   O1014   1.291   .     A
C962   O1140   1.290   1_455 S
C963   C965    1.390   .     A
C963   C992    1.428   .     A
C963   Br1019  1.931   .     S
C964   Br1020  1.931   .     S
C964   C966    1.390   .     A
C964   C991    1.428   .     A
C965   H995    1.084   .     S
C966   H996    1.084   .     S
C966   C414    1.389   1_556 S
C967   C972    1.414   .     A
C967   O1021   1.381   .     S
C968   C971    1.414   .     A
C968   O1023   1.381   .     S
C968   C586    1.386   1_565 S
C969   H1003   1.085   .     S
C969   C583    1.386   1_565 S
C969   C1035   1.399   .     S
C970   H1004   1.085   .     S
C970   C1100   1.399   1_455 S
C971   C1097   1.399   1_455 S
C972   C1034   1.399   .     S
C973   H1005   1.082   .     S
C973   C975    1.417   .     A
C973   N1010   1.368   .     A
C974   H1006   1.082   .     S
C974   C976    1.417   .     A
C974   N1009   1.368   .     A
C975   H1007   1.082   .     S
C975   N1009   1.367   .     A
C976   H1008   1.082   .     S
C976   N1010   1.367   .     A
C977   C979    1.465   .     S
C977   O1017   1.295   .     A
C977   O1079   1.297   .     S
C978   C980    1.465   .     S
C978   O1018   1.295   .     A
C978   O1144   1.297   1_455 S
C979   C983    1.400   .     A
C979   C985    1.397   .     A
C980   C984    1.400   .     A
C980   C986    1.397   .     A
C981   H1001   1.083   .     S
C981   C983    1.394   .     A
C981   C989    1.404   .     A
C982   H1002   1.083   .     S
C982   C984    1.394   .     A
C982   C990    1.404   .     A
C983   H1064   1.083   .     S
C984   H1127   1.083   1_455 S
C985   H998    1.078   .     S
C985   C987    1.401   .     A
C986   H997    1.078   .     S
C986   C988    1.401   .     A
C987   C989    1.415   .     A
C987   C991    1.424   .     A
C988   C990    1.415   .     A
C988   C992    1.424   .     A
C989   C389    1.389   1_556 S
C991   C416    1.430   1_556 S
Cu993  O1015   1.950   .     S
Cu993  O1018   1.936   .     S
Cu993  N1009   2.015   .     S
Cu993  O1014   1.958   .     S
Cu993  O1011   1.959   .     S
Cu993  Cu1122  2.681   1_455 S
Cu994  O1017   1.936   .     S
Cu994  O1016   1.950   .     S
Cu994  O1013   1.958   .     S
Cu994  N1010   2.015   .     S
Cu994  O1012   1.959   .     S
Cu994  Cu1057  2.681   .     S
H999   C1048   1.083   .     S
H1000  C1111   1.083   1_455 S
O1011  C1089   1.290   1_455 S
O1012  C1026   1.290   .     S
O1015  C1105   1.297   1_455 S
O1016  C1042   1.297   .     S
O1021  H1022   0.990   .     S
O1023  H1024   0.990   .     S
C1025  C1036   1.446   .     S
C1025  O1077   1.291   .     A
C1025  O1139   1.290   .     S
C1026  C1035   1.446   .     S
C1026  O1078   1.291   .     A
C1027  C1029   1.390   .     A
C1027  C1056   1.428   .     A
C1027  Br1083  1.931   .     S
C1028  Br1084  1.931   .     S
C1028  C1030   1.390   .     A
C1028  C1055   1.428   .     A
C1029  H1059   1.084   .     S
C1030  H1060   1.084   .     S
C1030  C478    1.389   1_556 S
C1031  C1036   1.414   .     A
C1031  O1085   1.381   .     S
C1032  C1035   1.414   .     A
C1032  O1087   1.381   .     S
C1032  C650    1.386   1_565 S
C1033  H1067   1.085   .     S
C1033  C647    1.386   1_565 S
C1033  C1099   1.399   .     S
C1034  H1068   1.085   .     S
C1036  C1098   1.399   .     S
C1037  H1069   1.082   .     S
C1037  C1039   1.417   .     A
C1037  N1074   1.368   .     A
C1038  H1070   1.082   .     S
C1038  C1040   1.417   .     A
C1038  N1073   1.368   .     A
C1039  H1071   1.082   .     S
C1039  N1073   1.367   .     A
C1040  H1072   1.082   .     S
C1040  N1074   1.367   .     A
C1041  C1043   1.465   .     S
C1041  O1081   1.295   .     A
C1041  O1143   1.297   .     S
C1042  C1044   1.465   .     S
C1042  O1082   1.295   .     A
C1043  C1047   1.400   .     A
C1043  C1049   1.397   .     A
C1044  C1048   1.400   .     A
C1044  C1050   1.397   .     A
C1045  H1065   1.083   .     S
C1045  C1047   1.394   .     A
C1045  C1053   1.404   .     A
C1046  H1066   1.083   .     S
C1046  C1048   1.394   .     A
C1046  C1054   1.404   .     A
C1047  H1128   1.083   .     S
C1049  H1062   1.078   .     S
C1049  C1051   1.401   .     A
C1050  H1061   1.078   .     S
C1050  C1052   1.401   .     A
C1051  C1053   1.415   .     A
C1051  C1055   1.424   .     A
C1052  C1054   1.415   .     A
C1052  C1056   1.424   .     A
C1053  C453    1.389   1_556 S
C1055  C480    1.430   1_556 S
Cu1057 O1079   1.950   .     S
Cu1057 O1082   1.936   .     S
Cu1057 N1073   2.015   .     S
Cu1057 O1078   1.958   .     S
Cu1057 O1075   1.959   .     S
Cu1058 O1081   1.936   .     S
Cu1058 O1080   1.950   .     S
Cu1058 O1077   1.958   .     S
Cu1058 N1074   2.015   .     S
Cu1058 O1076   1.959   .     S
Cu1058 Cu1121  2.681   .     S
H1063  C1112   1.083   .     S
O1076  C1090   1.290   .     S
O1080  C1106   1.297   .     S
O1085  H1086   0.990   .     S
O1087  H1088   0.990   .     S
C1089  C1100   1.446   .     S
C1089  O1141   1.291   .     A
C1089  O1011   1.290   1_655 S
C1090  C1099   1.446   .     S
C1090  O1142   1.291   .     A
C1091  C1093   1.390   .     A
C1091  C1120   1.428   .     A
C1091  Br1147  1.931   .     S
C1092  Br1148  1.931   .     S
C1092  C1094   1.390   .     A
C1092  C1119   1.428   .     A
C1093  H1123   1.084   .     S
C1094  H1124   1.084   .     S
C1094  C542    1.389   1_556 S
C1095  C1100   1.414   .     A
C1095  O1149   1.381   .     S
C1096  C1099   1.414   .     A
C1096  O1151   1.381   .     S
C1096  C714    1.386   1_565 S
C1097  H1131   1.085   .     S
C1097  C711    1.386   1_565 S
C1097  C971    1.399   1_655 S
C1098  H1132   1.085   .     S
C1100  C970    1.399   1_655 S
C1101  H1133   1.082   .     S
C1101  C1103   1.417   .     A
C1101  N1138   1.368   .     A
C1102  H1134   1.082   .     S
C1102  C1104   1.417   .     A
C1102  N1137   1.368   .     A
C1103  H1135   1.082   .     S
C1103  N1137   1.367   .     A
C1104  H1136   1.082   .     S
C1104  N1138   1.367   .     A
C1105  C1107   1.465   .     S
C1105  O1145   1.295   .     A
C1105  O1015   1.297   1_655 S
C1106  C1108   1.465   .     S
C1106  O1146   1.295   .     A
C1107  C1111   1.400   .     A
C1107  C1113   1.397   .     A
C1108  C1112   1.400   .     A
C1108  C1114   1.397   .     A
C1109  H1129   1.083   .     S
C1109  C1111   1.394   .     A
C1109  C1117   1.404   .     A
C1110  H1130   1.083   .     S
C1110  C1112   1.394   .     A
C1110  C1118   1.404   .     A
C1111  H1000   1.083   1_655 S
C1113  H1126   1.078   .     S
C1113  C1115   1.401   .     A
C1114  H1125   1.078   .     S
C1114  C1116   1.401   .     A
C1115  C1117   1.415   .     A
C1115  C1119   1.424   .     A
C1116  C1118   1.415   .     A
C1116  C1120   1.424   .     A
C1117  C517    1.389   1_556 S
C1119  C544    1.430   1_556 S
Cu1121 O1143   1.950   .     S
Cu1121 O1146   1.936   .     S
Cu1121 N1137   2.015   .     S
Cu1121 O1142   1.958   .     S
Cu1121 O1139   1.959   .     S
Cu1122 O1145   1.936   .     S
Cu1122 O1144   1.950   .     S
Cu1122 O1141   1.958   .     S
Cu1122 N1138   2.015   .     S
Cu1122 O1140   1.959   .     S
Cu1122 Cu993   2.681   1_655 S
H1127  C984    1.083   1_655 S
O1140  C962    1.290   1_655 S
O1144  C978    1.297   1_655 S
O1149  H1150   0.990   .     S
O1151  H1152   0.990   .     S
