data_str_m2_o1_o2_pcu_sym.8
_audit_creation_date              2020-01-03
_audit_creation_method            'Materials Studio'
_symmetry_space_group_name_H-M    'P1'
_symmetry_Int_Tables_number       1
_symmetry_cell_setting            triclinic
loop_
_symmetry_equiv_pos_as_xyz
  x,y,z
_cell_length_a                    32.0305
_cell_length_b                    29.0985
_cell_length_c                    29.9812
_cell_angle_alpha                 91.1601
_cell_angle_beta                  92.9768
_cell_angle_gamma                 89.6927
loop_
_atom_site_label
_atom_site_type_symbol
_atom_site_fract_x
_atom_site_fract_y
_atom_site_fract_z
_atom_site_U_iso_or_equiv
_atom_site_adp_type
_atom_site_occupancy
C1     C     0.08762   0.16672   0.24979   0.00000  Uiso   1.00
C2     C     0.31366   0.17331   0.28997   0.00000  Uiso   1.00
C3     C     0.30977   0.15820   0.20980   0.00000  Uiso   1.00
C4     C     0.02357   0.17401   0.28997   0.00000  Uiso   1.00
C5     C     0.18310   0.19954   0.04749   0.00000  Uiso   1.00
C6     C     0.15756   0.13066   0.45417   0.00000  Uiso   1.00
C7     C     0.14227   0.21272   0.45029   0.00000  Uiso   1.00
C8     C     0.12132   0.15012   0.04831   0.00000  Uiso   1.00
C9     C     0.18865   0.19552   0.09380   0.00000  Uiso   1.00
C10    C     0.15940   0.12852   0.40792   0.00000  Uiso   1.00
C11    C     0.14656   0.21021   0.40412   0.00000  Uiso   1.00
C12    C     0.24570   0.16653   0.24997   0.00000  Uiso   1.00
C13    C     0.12770   0.14706   0.09444   0.00000  Uiso   1.00
C14    C     0.16212   0.16761   0.11680   0.00000  Uiso   1.00
C15    C     0.15707   0.16862   0.38296   0.00000  Uiso   1.00
C16    C     0.15022   0.17559   0.02447   0.00000  Uiso   1.00
C17    C     0.14990   0.17311   0.47560   0.00000  Uiso   1.00
C18    C     0.29035   0.16617   0.24985   0.00000  Uiso   1.00
C19    C     0.04299   0.16664   0.24984   0.00000  Uiso   1.00
C20    C     0.11195   0.04581   0.18744   0.00000  Uiso   1.00
C21    C     0.06965   0.05497   0.19436   0.00000  Uiso   1.00
C22    C     0.04065   0.05869   0.15805   0.00000  Uiso   1.00
C23    C     0.16608   0.16655   0.16517   0.00000  Uiso   1.00
C24    C     0.05343   0.05251   0.11450   0.00000  Uiso   1.00
C25    C     0.09537   0.04321   0.10716   0.00000  Uiso   1.00
C26    C     0.12467   0.04099   0.14334   0.00000  Uiso   1.00
C27    C     0.22350   0.28665   0.31006   0.00000  Uiso   1.00
C28    C     0.21089   0.28609   0.35420   0.00000  Uiso   1.00
C29    C     0.23916   0.27456   0.38933   0.00000  Uiso   1.00
C30    C     0.28104   0.26621   0.38105   0.00000  Uiso   1.00
C31    C     0.29448   0.26911   0.33762   0.00000  Uiso   1.00
C32    C     0.26580   0.27848   0.30212   0.00000  Uiso   1.00
C33    C     0.23405   0.04777   0.29546   0.00000  Uiso   1.00
C34    C     0.16405   0.16714   0.33485   0.00000  Uiso   1.00
C35    C     0.27149   0.04801   0.27285   0.00000  Uiso   1.00
C36    C     0.30889   0.06173   0.29521   0.00000  Uiso   1.00
C37    C     0.30925   0.07550   0.34013   0.00000  Uiso   1.00
C38    C     0.27230   0.07501   0.36282   0.00000  Uiso   1.00
C39    C     0.23518   0.06004   0.34085   0.00000  Uiso   1.00
C40    C     0.10228   0.28436   0.20013   0.00000  Uiso   1.00
C41    C     0.10549   0.26897   0.15572   0.00000  Uiso   1.00
C42    C     0.07057   0.25101   0.13162   0.00000  Uiso   1.00
C43    C     0.03189   0.25001   0.15109   0.00000  Uiso   1.00
C44    C     0.02797   0.26720   0.19450   0.00000  Uiso   1.00
C45    C     0.13849   0.02419   0.22324   0.00000  Uiso   1.00
C46    C     0.06298   0.28424   0.21901   0.00000  Uiso   1.00
C47    C     0.24959   0.21904   0.02724   0.00000  Uiso   1.00
C48    C     0.27395   0.25719   0.05297   0.00000  Uiso   1.00
C49    C     0.31957   0.25858   0.04070   0.00000  Uiso   1.00
C50    C     0.20565   0.08500   0.49141   0.00000  Uiso   1.00
C51    C     0.22033   0.03757   0.47571   0.00000  Uiso   1.00
C52    C     0.26704   0.03072   0.48642   0.00000  Uiso   1.00
C53    C     0.09385   0.27071   0.45981   0.00000  Uiso   1.00
C54    C     0.09575   0.32208   0.45032   0.00000  Uiso   1.00
C55    C     0.05227   0.00867   0.43951   0.00000  Uiso   1.00
C56    C     0.19556   0.30900   0.27584   0.00000  Uiso   1.00
C57    C     0.06209   0.15219   0.00034   0.00000  Uiso   1.00
C58    C     0.01792   0.13257   0.49857   0.00000  Uiso   1.00
C59    C     0.32450   0.15343   0.46039   0.00000  Uiso   1.00
C60    C     0.19676   0.02482   0.27417   0.00000  Uiso   1.00
C61    C     0.13756   0.30826   0.22451   0.00000  Uiso   1.00
C62    C     0.01971   0.15826   0.20987   0.00000  Uiso   1.00
Cu63   Cu    0.16667   0.21355   0.25000   0.00000  Uiso   1.00
Cu64   Cu    0.16667   0.11978   0.25000   0.00000  Uiso   1.00
H65    H     0.21308   0.21469   0.11204   0.00000  Uiso   1.00
H66    H     0.00798   0.06478   0.16379   0.00000  Uiso   1.00
H67    H     0.03082   0.05451   0.08648   0.00000  Uiso   1.00
H68    H     0.10523   0.03777   0.07345   0.00000  Uiso   1.00
H69    H     0.15668   0.03166   0.13716   0.00000  Uiso   1.00
H70    H     0.17968   0.29722   0.36152   0.00000  Uiso   1.00
H71    H     0.22894   0.27386   0.42316   0.00000  Uiso   1.00
H72    H     0.30323   0.25858   0.40839   0.00000  Uiso   1.00
H73    H     0.32721   0.26421   0.33144   0.00000  Uiso   1.00
H74    H     0.27688   0.28163   0.26882   0.00000  Uiso   1.00
H75    H     0.27178   0.03651   0.23827   0.00000  Uiso   1.00
H76    H     0.16299   0.09545   0.39202   0.00000  Uiso   1.00
H77    H     0.00421   0.06173   0.27775   0.00000  Uiso   1.00
H78    H     0.00485   0.08631   0.35736   0.00000  Uiso   1.00
H79    H     0.27258   0.08506   0.39769   0.00000  Uiso   1.00
H80    H     0.20789   0.05524   0.35951   0.00000  Uiso   1.00
H81    H     0.13479   0.27167   0.13953   0.00000  Uiso   1.00
H82    H     0.07339   0.23849   0.09766   0.00000  Uiso   1.00
H83    H     0.00492   0.23577   0.13273   0.00000  Uiso   1.00
H84    H     0.33121   0.26686   0.20932   0.00000  Uiso   1.00
H85    H     0.05948   0.29779   0.25254   0.00000  Uiso   1.00
H86    H     0.25962   0.21726   0.49236   0.00000  Uiso   1.00
H87    H     0.14106   0.24078   0.38494   0.00000  Uiso   1.00
H88    H     0.25724   0.18496   0.04216   0.00000  Uiso   1.00
H89    H     0.25920   0.29093   0.04558   0.00000  Uiso   1.00
H90    H     0.27265   0.25188   0.08941   0.00000  Uiso   1.00
H91    H     0.00192   0.22552   0.04891   0.00000  Uiso   1.00
H92    H     0.00265   0.28677   0.05986   0.00000  Uiso   1.00
H93    H     0.32178   0.26512   0.00455   0.00000  Uiso   1.00
H94    H     0.20889   0.08711   0.02848   0.00000  Uiso   1.00
H95    H     0.22674   0.11163   0.47860   0.00000  Uiso   1.00
H96    H     0.20260   0.01054   0.49224   0.00000  Uiso   1.00
H97    H     0.21400   0.03380   0.43906   0.00000  Uiso   1.00
H98    H     0.10461   0.13049   0.11342   0.00000  Uiso   1.00
H99    H     0.28545   0.05638   0.46914   0.00000  Uiso   1.00
H100   H     0.27660   0.32932   0.47480   0.00000  Uiso   1.00
H101   H     0.27428   0.03430   0.02295   0.00000  Uiso   1.00
H102   H     0.07424   0.26577   0.48882   0.00000  Uiso   1.00
H103   H     0.07803   0.25264   0.43039   0.00000  Uiso   1.00
H104   H     0.11011   0.00731   0.48002   0.00000  Uiso   1.00
H105   H     0.11566   0.32748   0.42161   0.00000  Uiso   1.00
H106   H     0.03743   0.32441   0.40955   0.00000  Uiso   1.00
H107   H     0.05488   0.04586   0.43254   0.00000  Uiso   1.00
H108   H     0.03214   0.00463   0.46825   0.00000  Uiso   1.00
H109   H     0.03507   0.15282   0.17884   0.00000  Uiso   1.00
H110   H     0.07295   0.15100   0.46581   0.00000  Uiso   1.00
H111   H     0.06065   0.18861   0.01247   0.00000  Uiso   1.00
H112   H     0.01924   0.09469   0.49336   0.00000  Uiso   1.00
H113   H     0.00337   0.13988   0.03083   0.00000  Uiso   1.00
H114   H     0.32556   0.19150   0.46251   0.00000  Uiso   1.00
H115   H     0.29163   0.14229   0.46214   0.00000  Uiso   1.00
H116   H     0.00274   0.14190   0.42770   0.00000  Uiso   1.00
H117   H     0.29833   0.17755   0.32115   0.00000  Uiso   1.00
H118   H     0.29151   0.15235   0.17877   0.00000  Uiso   1.00
H119   H     0.04182   0.17970   0.32103   0.00000  Uiso   1.00
H120   H     0.05867   0.05589   0.22786   0.00000  Uiso   1.00
N121   N     0.16667   0.28402   0.25000   0.00000  Uiso   1.00
N122   N     0.16667   0.04931   0.25000   0.00000  Uiso   1.00
O123   O     0.10655   0.20625   0.25000   0.00000  Uiso   1.00
O124   O     0.16286   0.09081   0.47823   0.00000  Uiso   1.00
O125   O     0.13472   0.25455   0.47137   0.00000  Uiso   1.00
O126   O     0.08875   0.12466   0.02793   0.00000  Uiso   1.00
O127   O     0.22679   0.12709   0.25001   0.00000  Uiso   1.00
O128   O     0.22679   0.20625   0.25001   0.00000  Uiso   1.00
O129   O     0.10655   0.12709   0.25000   0.00000  Uiso   1.00
O130   O     0.16666   0.20626   0.18573   0.00000  Uiso   1.00
O131   O     0.16667   0.12707   0.31427   0.00000  Uiso   1.00
O132   O     0.16667   0.20626   0.31427   0.00000  Uiso   1.00
O133   O     0.16666   0.12707   0.18573   0.00000  Uiso   1.00
O134   O     0.20656   0.23033   0.02469   0.00000  Uiso   1.00
C135   C     0.42096   0.16672   0.24979   0.00000  Uiso   1.00
C136   C     0.64699   0.17331   0.28997   0.00000  Uiso   1.00
C137   C     0.64310   0.15820   0.20980   0.00000  Uiso   1.00
C138   C     0.35691   0.17401   0.28997   0.00000  Uiso   1.00
C139   C     0.51643   0.19954   0.04749   0.00000  Uiso   1.00
C140   C     0.49089   0.13066   0.45417   0.00000  Uiso   1.00
C141   C     0.47560   0.21272   0.45029   0.00000  Uiso   1.00
C142   C     0.45465   0.15012   0.04831   0.00000  Uiso   1.00
C143   C     0.52199   0.19552   0.09380   0.00000  Uiso   1.00
C144   C     0.49273   0.12852   0.40792   0.00000  Uiso   1.00
C145   C     0.47990   0.21021   0.40412   0.00000  Uiso   1.00
C146   C     0.57904   0.16653   0.24997   0.00000  Uiso   1.00
C147   C     0.46103   0.14706   0.09444   0.00000  Uiso   1.00
C148   C     0.49546   0.16761   0.11680   0.00000  Uiso   1.00
C149   C     0.49041   0.16862   0.38296   0.00000  Uiso   1.00
C150   C     0.48355   0.17559   0.02447   0.00000  Uiso   1.00
C151   C     0.48324   0.17311   0.47560   0.00000  Uiso   1.00
C152   C     0.62368   0.16617   0.24985   0.00000  Uiso   1.00
C153   C     0.37632   0.16664   0.24984   0.00000  Uiso   1.00
C154   C     0.44529   0.04581   0.18744   0.00000  Uiso   1.00
C155   C     0.40298   0.05497   0.19436   0.00000  Uiso   1.00
C156   C     0.37399   0.05869   0.15805   0.00000  Uiso   1.00
C157   C     0.49941   0.16655   0.16517   0.00000  Uiso   1.00
C158   C     0.38677   0.05251   0.11450   0.00000  Uiso   1.00
C159   C     0.42870   0.04321   0.10716   0.00000  Uiso   1.00
C160   C     0.45800   0.04099   0.14334   0.00000  Uiso   1.00
C161   C     0.55683   0.28665   0.31006   0.00000  Uiso   1.00
C162   C     0.54422   0.28609   0.35420   0.00000  Uiso   1.00
C163   C     0.57250   0.27456   0.38933   0.00000  Uiso   1.00
C164   C     0.61437   0.26621   0.38105   0.00000  Uiso   1.00
C165   C     0.62781   0.26911   0.33762   0.00000  Uiso   1.00
C166   C     0.59913   0.27848   0.30212   0.00000  Uiso   1.00
C167   C     0.56739   0.04777   0.29546   0.00000  Uiso   1.00
C168   C     0.49739   0.16714   0.33485   0.00000  Uiso   1.00
C169   C     0.60482   0.04801   0.27285   0.00000  Uiso   1.00
C170   C     0.64222   0.06173   0.29521   0.00000  Uiso   1.00
C171   C     0.64259   0.07550   0.34013   0.00000  Uiso   1.00
C172   C     0.60563   0.07501   0.36282   0.00000  Uiso   1.00
C173   C     0.56851   0.06004   0.34085   0.00000  Uiso   1.00
C174   C     0.43561   0.28436   0.20013   0.00000  Uiso   1.00
C175   C     0.43882   0.26897   0.15572   0.00000  Uiso   1.00
C176   C     0.40390   0.25101   0.13162   0.00000  Uiso   1.00
C177   C     0.36522   0.25001   0.15109   0.00000  Uiso   1.00
C178   C     0.36130   0.26720   0.19450   0.00000  Uiso   1.00
C179   C     0.47182   0.02419   0.22324   0.00000  Uiso   1.00
C180   C     0.39631   0.28424   0.21901   0.00000  Uiso   1.00
C181   C     0.58292   0.21904   0.02724   0.00000  Uiso   1.00
C182   C     0.60728   0.25719   0.05297   0.00000  Uiso   1.00
C183   C     0.65291   0.25858   0.04070   0.00000  Uiso   1.00
C184   C     0.53899   0.08500   0.49141   0.00000  Uiso   1.00
C185   C     0.55366   0.03757   0.47571   0.00000  Uiso   1.00
C186   C     0.60037   0.03072   0.48642   0.00000  Uiso   1.00
C187   C     0.42718   0.27071   0.45981   0.00000  Uiso   1.00
C188   C     0.42908   0.32208   0.45032   0.00000  Uiso   1.00
C189   C     0.38560   0.00867   0.43951   0.00000  Uiso   1.00
C190   C     0.52890   0.30900   0.27584   0.00000  Uiso   1.00
C191   C     0.39543   0.15219   0.00034   0.00000  Uiso   1.00
C192   C     0.35125   0.13257   0.49857   0.00000  Uiso   1.00
C193   C     0.65783   0.15343   0.46039   0.00000  Uiso   1.00
C194   C     0.53009   0.02482   0.27417   0.00000  Uiso   1.00
C195   C     0.47089   0.30826   0.22451   0.00000  Uiso   1.00
C196   C     0.35304   0.15826   0.20987   0.00000  Uiso   1.00
Cu197  Cu    0.50000   0.21355   0.25000   0.00000  Uiso   1.00
Cu198  Cu    0.50000   0.11978   0.25000   0.00000  Uiso   1.00
H199   H     0.54642   0.21469   0.11204   0.00000  Uiso   1.00
H200   H     0.34132   0.06478   0.16379   0.00000  Uiso   1.00
H201   H     0.36416   0.05451   0.08648   0.00000  Uiso   1.00
H202   H     0.43856   0.03777   0.07345   0.00000  Uiso   1.00
H203   H     0.49001   0.03166   0.13716   0.00000  Uiso   1.00
H204   H     0.51302   0.29722   0.36152   0.00000  Uiso   1.00
H205   H     0.56227   0.27386   0.42316   0.00000  Uiso   1.00
H206   H     0.63656   0.25858   0.40839   0.00000  Uiso   1.00
H207   H     0.66055   0.26421   0.33144   0.00000  Uiso   1.00
H208   H     0.61021   0.28163   0.26882   0.00000  Uiso   1.00
H209   H     0.60511   0.03651   0.23827   0.00000  Uiso   1.00
H210   H     0.49632   0.09545   0.39202   0.00000  Uiso   1.00
H211   H     0.33755   0.06173   0.27775   0.00000  Uiso   1.00
H212   H     0.33819   0.08631   0.35736   0.00000  Uiso   1.00
H213   H     0.60591   0.08506   0.39769   0.00000  Uiso   1.00
H214   H     0.54122   0.05524   0.35951   0.00000  Uiso   1.00
H215   H     0.46812   0.27167   0.13953   0.00000  Uiso   1.00
H216   H     0.40672   0.23849   0.09766   0.00000  Uiso   1.00
H217   H     0.33825   0.23577   0.13273   0.00000  Uiso   1.00
H218   H     0.66454   0.26686   0.20932   0.00000  Uiso   1.00
H219   H     0.39282   0.29779   0.25254   0.00000  Uiso   1.00
H220   H     0.59295   0.21726   0.49236   0.00000  Uiso   1.00
H221   H     0.47440   0.24078   0.38494   0.00000  Uiso   1.00
H222   H     0.59058   0.18496   0.04216   0.00000  Uiso   1.00
H223   H     0.59253   0.29093   0.04558   0.00000  Uiso   1.00
H224   H     0.60598   0.25188   0.08941   0.00000  Uiso   1.00
H225   H     0.33525   0.22552   0.04891   0.00000  Uiso   1.00
H226   H     0.33599   0.28677   0.05986   0.00000  Uiso   1.00
H227   H     0.65511   0.26512   0.00455   0.00000  Uiso   1.00
H228   H     0.54223   0.08711   0.02848   0.00000  Uiso   1.00
H229   H     0.56008   0.11163   0.47860   0.00000  Uiso   1.00
H230   H     0.53593   0.01054   0.49224   0.00000  Uiso   1.00
H231   H     0.54733   0.03380   0.43906   0.00000  Uiso   1.00
H232   H     0.43794   0.13049   0.11342   0.00000  Uiso   1.00
H233   H     0.61879   0.05638   0.46914   0.00000  Uiso   1.00
H234   H     0.60993   0.32932   0.47480   0.00000  Uiso   1.00
H235   H     0.60761   0.03430   0.02295   0.00000  Uiso   1.00
H236   H     0.40757   0.26577   0.48882   0.00000  Uiso   1.00
H237   H     0.41137   0.25264   0.43039   0.00000  Uiso   1.00
H238   H     0.44345   0.00731   0.48002   0.00000  Uiso   1.00
H239   H     0.44899   0.32748   0.42161   0.00000  Uiso   1.00
H240   H     0.37076   0.32441   0.40955   0.00000  Uiso   1.00
H241   H     0.38821   0.04586   0.43254   0.00000  Uiso   1.00
H242   H     0.36548   0.00463   0.46825   0.00000  Uiso   1.00
H243   H     0.36840   0.15282   0.17884   0.00000  Uiso   1.00
H244   H     0.40629   0.15100   0.46581   0.00000  Uiso   1.00
H245   H     0.39398   0.18861   0.01247   0.00000  Uiso   1.00
H246   H     0.35257   0.09469   0.49336   0.00000  Uiso   1.00
H247   H     0.33670   0.13988   0.03083   0.00000  Uiso   1.00
H248   H     0.65889   0.19150   0.46251   0.00000  Uiso   1.00
H249   H     0.62497   0.14229   0.46214   0.00000  Uiso   1.00
H250   H     0.33607   0.14190   0.42770   0.00000  Uiso   1.00
H251   H     0.63166   0.17755   0.32115   0.00000  Uiso   1.00
H252   H     0.62485   0.15235   0.17877   0.00000  Uiso   1.00
H253   H     0.37515   0.17970   0.32103   0.00000  Uiso   1.00
H254   H     0.39200   0.05589   0.22786   0.00000  Uiso   1.00
N255   N     0.50000   0.28402   0.25000   0.00000  Uiso   1.00
N256   N     0.50000   0.04931   0.25000   0.00000  Uiso   1.00
O257   O     0.43988   0.20625   0.25000   0.00000  Uiso   1.00
O258   O     0.49619   0.09081   0.47823   0.00000  Uiso   1.00
O259   O     0.46805   0.25455   0.47137   0.00000  Uiso   1.00
O260   O     0.42208   0.12466   0.02793   0.00000  Uiso   1.00
O261   O     0.56012   0.12709   0.25001   0.00000  Uiso   1.00
O262   O     0.56012   0.20625   0.25001   0.00000  Uiso   1.00
O263   O     0.43988   0.12709   0.25000   0.00000  Uiso   1.00
O264   O     0.50000   0.20626   0.18573   0.00000  Uiso   1.00
O265   O     0.50000   0.12707   0.31427   0.00000  Uiso   1.00
O266   O     0.50000   0.20626   0.31427   0.00000  Uiso   1.00
O267   O     0.50000   0.12707   0.18573   0.00000  Uiso   1.00
O268   O     0.53989   0.23033   0.02469   0.00000  Uiso   1.00
C269   C     0.75429   0.16672   0.24979   0.00000  Uiso   1.00
C270   C     0.98033   0.17331   0.28997   0.00000  Uiso   1.00
C271   C     0.97643   0.15820   0.20980   0.00000  Uiso   1.00
C272   C     0.69024   0.17401   0.28997   0.00000  Uiso   1.00
C273   C     0.84977   0.19954   0.04749   0.00000  Uiso   1.00
C274   C     0.82423   0.13066   0.45417   0.00000  Uiso   1.00
C275   C     0.80893   0.21272   0.45029   0.00000  Uiso   1.00
C276   C     0.78799   0.15012   0.04831   0.00000  Uiso   1.00
C277   C     0.85532   0.19552   0.09380   0.00000  Uiso   1.00
C278   C     0.82606   0.12852   0.40792   0.00000  Uiso   1.00
C279   C     0.81323   0.21021   0.40412   0.00000  Uiso   1.00
C280   C     0.91237   0.16653   0.24997   0.00000  Uiso   1.00
C281   C     0.79437   0.14706   0.09444   0.00000  Uiso   1.00
C282   C     0.82879   0.16761   0.11680   0.00000  Uiso   1.00
C283   C     0.82374   0.16862   0.38296   0.00000  Uiso   1.00
C284   C     0.81689   0.17559   0.02447   0.00000  Uiso   1.00
C285   C     0.81657   0.17311   0.47560   0.00000  Uiso   1.00
C286   C     0.95701   0.16617   0.24985   0.00000  Uiso   1.00
C287   C     0.70966   0.16664   0.24984   0.00000  Uiso   1.00
C288   C     0.77862   0.04581   0.18744   0.00000  Uiso   1.00
C289   C     0.73631   0.05497   0.19436   0.00000  Uiso   1.00
C290   C     0.70732   0.05869   0.15805   0.00000  Uiso   1.00
C291   C     0.83275   0.16655   0.16517   0.00000  Uiso   1.00
C292   C     0.72010   0.05251   0.11450   0.00000  Uiso   1.00
C293   C     0.76204   0.04321   0.10716   0.00000  Uiso   1.00
C294   C     0.79134   0.04099   0.14334   0.00000  Uiso   1.00
C295   C     0.89016   0.28665   0.31006   0.00000  Uiso   1.00
C296   C     0.87756   0.28609   0.35420   0.00000  Uiso   1.00
C297   C     0.90583   0.27456   0.38933   0.00000  Uiso   1.00
C298   C     0.94770   0.26621   0.38105   0.00000  Uiso   1.00
C299   C     0.96115   0.26911   0.33762   0.00000  Uiso   1.00
C300   C     0.93246   0.27848   0.30212   0.00000  Uiso   1.00
C301   C     0.90072   0.04777   0.29546   0.00000  Uiso   1.00
C302   C     0.83072   0.16714   0.33485   0.00000  Uiso   1.00
C303   C     0.93815   0.04801   0.27285   0.00000  Uiso   1.00
C304   C     0.97555   0.06173   0.29521   0.00000  Uiso   1.00
C305   C     0.97592   0.07550   0.34013   0.00000  Uiso   1.00
C306   C     0.93896   0.07501   0.36282   0.00000  Uiso   1.00
C307   C     0.90184   0.06004   0.34085   0.00000  Uiso   1.00
C308   C     0.76895   0.28436   0.20013   0.00000  Uiso   1.00
C309   C     0.77215   0.26897   0.15572   0.00000  Uiso   1.00
C310   C     0.73723   0.25101   0.13162   0.00000  Uiso   1.00
C311   C     0.69856   0.25001   0.15109   0.00000  Uiso   1.00
C312   C     0.69463   0.26720   0.19450   0.00000  Uiso   1.00
C313   C     0.80516   0.02419   0.22324   0.00000  Uiso   1.00
C314   C     0.72964   0.28424   0.21901   0.00000  Uiso   1.00
C315   C     0.91626   0.21904   0.02724   0.00000  Uiso   1.00
C316   C     0.94062   0.25719   0.05297   0.00000  Uiso   1.00
C317   C     0.98624   0.25858   0.04070   0.00000  Uiso   1.00
C318   C     0.87232   0.08500   0.49141   0.00000  Uiso   1.00
C319   C     0.88700   0.03757   0.47571   0.00000  Uiso   1.00
C320   C     0.93370   0.03072   0.48642   0.00000  Uiso   1.00
C321   C     0.76051   0.27071   0.45981   0.00000  Uiso   1.00
C322   C     0.76242   0.32208   0.45032   0.00000  Uiso   1.00
C323   C     0.71894   0.00867   0.43951   0.00000  Uiso   1.00
C324   C     0.86223   0.30900   0.27584   0.00000  Uiso   1.00
C325   C     0.72876   0.15219   0.00034   0.00000  Uiso   1.00
C326   C     0.68458   0.13257   0.49857   0.00000  Uiso   1.00
C327   C     0.99116   0.15343   0.46039   0.00000  Uiso   1.00
C328   C     0.86343   0.02482   0.27417   0.00000  Uiso   1.00
C329   C     0.80423   0.30826   0.22451   0.00000  Uiso   1.00
C330   C     0.68638   0.15826   0.20987   0.00000  Uiso   1.00
Cu331  Cu    0.83333   0.21355   0.25000   0.00000  Uiso   1.00
Cu332  Cu    0.83333   0.11978   0.25000   0.00000  Uiso   1.00
H333   H     0.87975   0.21469   0.11204   0.00000  Uiso   1.00
H334   H     0.67465   0.06478   0.16379   0.00000  Uiso   1.00
H335   H     0.69749   0.05451   0.08648   0.00000  Uiso   1.00
H336   H     0.77189   0.03777   0.07345   0.00000  Uiso   1.00
H337   H     0.82334   0.03166   0.13716   0.00000  Uiso   1.00
H338   H     0.84635   0.29722   0.36152   0.00000  Uiso   1.00
H339   H     0.89560   0.27386   0.42316   0.00000  Uiso   1.00
H340   H     0.96990   0.25858   0.40839   0.00000  Uiso   1.00
H341   H     0.99388   0.26421   0.33144   0.00000  Uiso   1.00
H342   H     0.94354   0.28163   0.26882   0.00000  Uiso   1.00
H343   H     0.93845   0.03651   0.23827   0.00000  Uiso   1.00
H344   H     0.82966   0.09545   0.39202   0.00000  Uiso   1.00
H345   H     0.67088   0.06173   0.27775   0.00000  Uiso   1.00
H346   H     0.67152   0.08631   0.35736   0.00000  Uiso   1.00
H347   H     0.93924   0.08506   0.39769   0.00000  Uiso   1.00
H348   H     0.87456   0.05524   0.35951   0.00000  Uiso   1.00
H349   H     0.80146   0.27167   0.13953   0.00000  Uiso   1.00
H350   H     0.74005   0.23849   0.09766   0.00000  Uiso   1.00
H351   H     0.67159   0.23577   0.13273   0.00000  Uiso   1.00
H352   H     0.99788   0.26686   0.20932   0.00000  Uiso   1.00
H353   H     0.72615   0.29779   0.25254   0.00000  Uiso   1.00
H354   H     0.92629   0.21726   0.49236   0.00000  Uiso   1.00
H355   H     0.80773   0.24078   0.38494   0.00000  Uiso   1.00
H356   H     0.92391   0.18496   0.04216   0.00000  Uiso   1.00
H357   H     0.92586   0.29093   0.04558   0.00000  Uiso   1.00
H358   H     0.93932   0.25188   0.08941   0.00000  Uiso   1.00
H359   H     0.66859   0.22552   0.04891   0.00000  Uiso   1.00
H360   H     0.66932   0.28677   0.05986   0.00000  Uiso   1.00
H361   H     0.98844   0.26512   0.00455   0.00000  Uiso   1.00
H362   H     0.87556   0.08711   0.02848   0.00000  Uiso   1.00
H363   H     0.89341   0.11163   0.47860   0.00000  Uiso   1.00
H364   H     0.86927   0.01054   0.49224   0.00000  Uiso   1.00
H365   H     0.88066   0.03380   0.43906   0.00000  Uiso   1.00
H366   H     0.77128   0.13049   0.11342   0.00000  Uiso   1.00
H367   H     0.95212   0.05638   0.46914   0.00000  Uiso   1.00
H368   H     0.94327   0.32932   0.47480   0.00000  Uiso   1.00
H369   H     0.94095   0.03430   0.02295   0.00000  Uiso   1.00
H370   H     0.74090   0.26577   0.48882   0.00000  Uiso   1.00
H371   H     0.74470   0.25264   0.43039   0.00000  Uiso   1.00
H372   H     0.77678   0.00731   0.48002   0.00000  Uiso   1.00
H373   H     0.78232   0.32748   0.42161   0.00000  Uiso   1.00
H374   H     0.70410   0.32441   0.40955   0.00000  Uiso   1.00
H375   H     0.72154   0.04586   0.43254   0.00000  Uiso   1.00
H376   H     0.69881   0.00463   0.46825   0.00000  Uiso   1.00
H377   H     0.70173   0.15282   0.17884   0.00000  Uiso   1.00
H378   H     0.73962   0.15100   0.46581   0.00000  Uiso   1.00
H379   H     0.72732   0.18861   0.01247   0.00000  Uiso   1.00
H380   H     0.68590   0.09469   0.49336   0.00000  Uiso   1.00
H381   H     0.67003   0.13988   0.03083   0.00000  Uiso   1.00
H382   H     0.99223   0.19150   0.46251   0.00000  Uiso   1.00
H383   H     0.95830   0.14229   0.46214   0.00000  Uiso   1.00
H384   H     0.66941   0.14190   0.42770   0.00000  Uiso   1.00
H385   H     0.96500   0.17755   0.32115   0.00000  Uiso   1.00
H386   H     0.95818   0.15235   0.17877   0.00000  Uiso   1.00
H387   H     0.70848   0.17970   0.32103   0.00000  Uiso   1.00
H388   H     0.72533   0.05589   0.22786   0.00000  Uiso   1.00
N389   N     0.83333   0.28402   0.25000   0.00000  Uiso   1.00
N390   N     0.83333   0.04931   0.25000   0.00000  Uiso   1.00
O391   O     0.77321   0.20625   0.25000   0.00000  Uiso   1.00
O392   O     0.82953   0.09081   0.47823   0.00000  Uiso   1.00
O393   O     0.80139   0.25455   0.47137   0.00000  Uiso   1.00
O394   O     0.75541   0.12466   0.02793   0.00000  Uiso   1.00
O395   O     0.89345   0.12709   0.25001   0.00000  Uiso   1.00
O396   O     0.89345   0.20625   0.25001   0.00000  Uiso   1.00
O397   O     0.77321   0.12709   0.25000   0.00000  Uiso   1.00
O398   O     0.83333   0.20626   0.18573   0.00000  Uiso   1.00
O399   O     0.83334   0.12707   0.31427   0.00000  Uiso   1.00
O400   O     0.83334   0.20626   0.31427   0.00000  Uiso   1.00
O401   O     0.83333   0.12707   0.18573   0.00000  Uiso   1.00
O402   O     0.87323   0.23033   0.02469   0.00000  Uiso   1.00
C403   C     0.08762   0.50005   0.24979   0.00000  Uiso   1.00
C404   C     0.31366   0.50664   0.28997   0.00000  Uiso   1.00
C405   C     0.30977   0.49153   0.20980   0.00000  Uiso   1.00
C406   C     0.02357   0.50734   0.28997   0.00000  Uiso   1.00
C407   C     0.18310   0.53287   0.04749   0.00000  Uiso   1.00
C408   C     0.15756   0.46400   0.45417   0.00000  Uiso   1.00
C409   C     0.14227   0.54605   0.45029   0.00000  Uiso   1.00
C410   C     0.12132   0.48345   0.04831   0.00000  Uiso   1.00
C411   C     0.18865   0.52885   0.09380   0.00000  Uiso   1.00
C412   C     0.15940   0.46185   0.40792   0.00000  Uiso   1.00
C413   C     0.14656   0.54355   0.40412   0.00000  Uiso   1.00
C414   C     0.24570   0.49987   0.24997   0.00000  Uiso   1.00
C415   C     0.12770   0.48039   0.09444   0.00000  Uiso   1.00
C416   C     0.16212   0.50094   0.11680   0.00000  Uiso   1.00
C417   C     0.15707   0.50196   0.38296   0.00000  Uiso   1.00
C418   C     0.15022   0.50893   0.02447   0.00000  Uiso   1.00
C419   C     0.14990   0.50644   0.47560   0.00000  Uiso   1.00
C420   C     0.29035   0.49951   0.24985   0.00000  Uiso   1.00
C421   C     0.04299   0.49997   0.24984   0.00000  Uiso   1.00
C422   C     0.11195   0.37915   0.18744   0.00000  Uiso   1.00
C423   C     0.06965   0.38830   0.19436   0.00000  Uiso   1.00
C424   C     0.04065   0.39202   0.15805   0.00000  Uiso   1.00
C425   C     0.16608   0.49989   0.16517   0.00000  Uiso   1.00
C426   C     0.05343   0.38585   0.11450   0.00000  Uiso   1.00
C427   C     0.09537   0.37654   0.10716   0.00000  Uiso   1.00
C428   C     0.12467   0.37432   0.14334   0.00000  Uiso   1.00
C429   C     0.22350   0.61999   0.31006   0.00000  Uiso   1.00
C430   C     0.21089   0.61943   0.35420   0.00000  Uiso   1.00
C431   C     0.23916   0.60789   0.38933   0.00000  Uiso   1.00
C432   C     0.28104   0.59954   0.38105   0.00000  Uiso   1.00
C433   C     0.29448   0.60244   0.33762   0.00000  Uiso   1.00
C434   C     0.26580   0.61181   0.30212   0.00000  Uiso   1.00
C435   C     0.23405   0.38111   0.29546   0.00000  Uiso   1.00
C436   C     0.16405   0.50047   0.33485   0.00000  Uiso   1.00
C437   C     0.27149   0.38135   0.27285   0.00000  Uiso   1.00
C438   C     0.30889   0.39507   0.29521   0.00000  Uiso   1.00
C439   C     0.30925   0.40883   0.34013   0.00000  Uiso   1.00
C440   C     0.27230   0.40834   0.36282   0.00000  Uiso   1.00
C441   C     0.23518   0.39337   0.34085   0.00000  Uiso   1.00
C442   C     0.10228   0.61770   0.20013   0.00000  Uiso   1.00
C443   C     0.10549   0.60230   0.15572   0.00000  Uiso   1.00
C444   C     0.07057   0.58435   0.13162   0.00000  Uiso   1.00
C445   C     0.03189   0.58335   0.15109   0.00000  Uiso   1.00
C446   C     0.02797   0.60053   0.19450   0.00000  Uiso   1.00
C447   C     0.13849   0.35752   0.22324   0.00000  Uiso   1.00
C448   C     0.06298   0.61757   0.21901   0.00000  Uiso   1.00
C449   C     0.24959   0.55238   0.02724   0.00000  Uiso   1.00
C450   C     0.27395   0.59053   0.05297   0.00000  Uiso   1.00
C451   C     0.31957   0.59192   0.04070   0.00000  Uiso   1.00
C452   C     0.20565   0.41834   0.49141   0.00000  Uiso   1.00
C453   C     0.22033   0.37090   0.47571   0.00000  Uiso   1.00
C454   C     0.26704   0.36406   0.48642   0.00000  Uiso   1.00
C455   C     0.09385   0.60404   0.45981   0.00000  Uiso   1.00
C456   C     0.09575   0.65542   0.45032   0.00000  Uiso   1.00
C457   C     0.05227   0.34200   0.43951   0.00000  Uiso   1.00
C458   C     0.19556   0.64233   0.27584   0.00000  Uiso   1.00
C459   C     0.06209   0.48553   0.00034   0.00000  Uiso   1.00
C460   C     0.01792   0.46590   0.49857   0.00000  Uiso   1.00
C461   C     0.32450   0.48676   0.46039   0.00000  Uiso   1.00
C462   C     0.19676   0.35815   0.27417   0.00000  Uiso   1.00
C463   C     0.13756   0.64160   0.22451   0.00000  Uiso   1.00
C464   C     0.01971   0.49159   0.20987   0.00000  Uiso   1.00
Cu465  Cu    0.16667   0.54689   0.25000   0.00000  Uiso   1.00
Cu466  Cu    0.16667   0.45311   0.25000   0.00000  Uiso   1.00
H467   H     0.21308   0.54802   0.11204   0.00000  Uiso   1.00
H468   H     0.00798   0.39811   0.16379   0.00000  Uiso   1.00
H469   H     0.03082   0.38785   0.08648   0.00000  Uiso   1.00
H470   H     0.10523   0.37110   0.07345   0.00000  Uiso   1.00
H471   H     0.15668   0.36499   0.13716   0.00000  Uiso   1.00
H472   H     0.17968   0.63055   0.36152   0.00000  Uiso   1.00
H473   H     0.22894   0.60719   0.42316   0.00000  Uiso   1.00
H474   H     0.30323   0.59191   0.40839   0.00000  Uiso   1.00
H475   H     0.32721   0.59755   0.33144   0.00000  Uiso   1.00
H476   H     0.27688   0.61497   0.26882   0.00000  Uiso   1.00
H477   H     0.27178   0.36984   0.23827   0.00000  Uiso   1.00
H478   H     0.16299   0.42878   0.39202   0.00000  Uiso   1.00
H479   H     0.00421   0.39507   0.27775   0.00000  Uiso   1.00
H480   H     0.00485   0.41965   0.35736   0.00000  Uiso   1.00
H481   H     0.27258   0.41839   0.39769   0.00000  Uiso   1.00
H482   H     0.20789   0.38858   0.35951   0.00000  Uiso   1.00
H483   H     0.13479   0.60501   0.13953   0.00000  Uiso   1.00
H484   H     0.07339   0.57182   0.09766   0.00000  Uiso   1.00
H485   H     0.00492   0.56911   0.13273   0.00000  Uiso   1.00
H486   H     0.33121   0.60020   0.20932   0.00000  Uiso   1.00
H487   H     0.05948   0.63112   0.25254   0.00000  Uiso   1.00
H488   H     0.25962   0.55059   0.49236   0.00000  Uiso   1.00
H489   H     0.14106   0.57411   0.38494   0.00000  Uiso   1.00
H490   H     0.25724   0.51829   0.04216   0.00000  Uiso   1.00
H491   H     0.25920   0.62426   0.04558   0.00000  Uiso   1.00
H492   H     0.27265   0.58521   0.08941   0.00000  Uiso   1.00
H493   H     0.00192   0.55886   0.04891   0.00000  Uiso   1.00
H494   H     0.00265   0.62010   0.05986   0.00000  Uiso   1.00
H495   H     0.32178   0.59846   0.00455   0.00000  Uiso   1.00
H496   H     0.20889   0.42044   0.02848   0.00000  Uiso   1.00
H497   H     0.22674   0.44496   0.47860   0.00000  Uiso   1.00
H498   H     0.20260   0.34387   0.49224   0.00000  Uiso   1.00
H499   H     0.21400   0.36713   0.43906   0.00000  Uiso   1.00
H500   H     0.10461   0.46382   0.11342   0.00000  Uiso   1.00
H501   H     0.28545   0.38971   0.46914   0.00000  Uiso   1.00
H502   H     0.27660   0.66265   0.47480   0.00000  Uiso   1.00
H503   H     0.27428   0.36763   0.02295   0.00000  Uiso   1.00
H504   H     0.07424   0.59911   0.48882   0.00000  Uiso   1.00
H505   H     0.07803   0.58598   0.43039   0.00000  Uiso   1.00
H506   H     0.11011   0.34065   0.48002   0.00000  Uiso   1.00
H507   H     0.11566   0.66082   0.42161   0.00000  Uiso   1.00
H508   H     0.03743   0.65774   0.40955   0.00000  Uiso   1.00
H509   H     0.05488   0.37919   0.43254   0.00000  Uiso   1.00
H510   H     0.03214   0.33796   0.46825   0.00000  Uiso   1.00
H511   H     0.03507   0.48616   0.17884   0.00000  Uiso   1.00
H512   H     0.07295   0.48433   0.46581   0.00000  Uiso   1.00
H513   H     0.06065   0.52195   0.01247   0.00000  Uiso   1.00
H514   H     0.01924   0.42802   0.49336   0.00000  Uiso   1.00
H515   H     0.00337   0.47321   0.03083   0.00000  Uiso   1.00
H516   H     0.32556   0.52483   0.46251   0.00000  Uiso   1.00
H517   H     0.29163   0.47563   0.46214   0.00000  Uiso   1.00
H518   H     0.00274   0.47524   0.42770   0.00000  Uiso   1.00
H519   H     0.29833   0.51089   0.32115   0.00000  Uiso   1.00
H520   H     0.29151   0.48568   0.17877   0.00000  Uiso   1.00
H521   H     0.04182   0.51303   0.32103   0.00000  Uiso   1.00
H522   H     0.05867   0.38922   0.22786   0.00000  Uiso   1.00
N523   N     0.16667   0.61736   0.25000   0.00000  Uiso   1.00
N524   N     0.16667   0.38264   0.25000   0.00000  Uiso   1.00
O525   O     0.10655   0.53958   0.25000   0.00000  Uiso   1.00
O526   O     0.16286   0.42414   0.47823   0.00000  Uiso   1.00
O527   O     0.13472   0.58788   0.47137   0.00000  Uiso   1.00
O528   O     0.08875   0.45800   0.02793   0.00000  Uiso   1.00
O529   O     0.22679   0.46042   0.25001   0.00000  Uiso   1.00
O530   O     0.22679   0.53958   0.25001   0.00000  Uiso   1.00
O531   O     0.10655   0.46042   0.25000   0.00000  Uiso   1.00
O532   O     0.16666   0.53959   0.18573   0.00000  Uiso   1.00
O533   O     0.16667   0.46041   0.31427   0.00000  Uiso   1.00
O534   O     0.16667   0.53959   0.31427   0.00000  Uiso   1.00
O535   O     0.16666   0.46041   0.18573   0.00000  Uiso   1.00
O536   O     0.20656   0.56366   0.02469   0.00000  Uiso   1.00
C537   C     0.42096   0.50005   0.24979   0.00000  Uiso   1.00
C538   C     0.64699   0.50664   0.28997   0.00000  Uiso   1.00
C539   C     0.64310   0.49153   0.20980   0.00000  Uiso   1.00
C540   C     0.35691   0.50734   0.28997   0.00000  Uiso   1.00
C541   C     0.51643   0.53287   0.04749   0.00000  Uiso   1.00
C542   C     0.49089   0.46400   0.45417   0.00000  Uiso   1.00
C543   C     0.47560   0.54605   0.45029   0.00000  Uiso   1.00
C544   C     0.45465   0.48345   0.04831   0.00000  Uiso   1.00
C545   C     0.52199   0.52885   0.09380   0.00000  Uiso   1.00
C546   C     0.49273   0.46185   0.40792   0.00000  Uiso   1.00
C547   C     0.47990   0.54355   0.40412   0.00000  Uiso   1.00
C548   C     0.57904   0.49987   0.24997   0.00000  Uiso   1.00
C549   C     0.46103   0.48039   0.09444   0.00000  Uiso   1.00
C550   C     0.49546   0.50094   0.11680   0.00000  Uiso   1.00
C551   C     0.49041   0.50196   0.38296   0.00000  Uiso   1.00
C552   C     0.48355   0.50893   0.02447   0.00000  Uiso   1.00
C553   C     0.48324   0.50644   0.47560   0.00000  Uiso   1.00
C554   C     0.62368   0.49951   0.24985   0.00000  Uiso   1.00
C555   C     0.37632   0.49997   0.24984   0.00000  Uiso   1.00
C556   C     0.44529   0.37915   0.18744   0.00000  Uiso   1.00
C557   C     0.40298   0.38830   0.19436   0.00000  Uiso   1.00
C558   C     0.37399   0.39202   0.15805   0.00000  Uiso   1.00
C559   C     0.49941   0.49989   0.16517   0.00000  Uiso   1.00
C560   C     0.38677   0.38585   0.11450   0.00000  Uiso   1.00
C561   C     0.42870   0.37654   0.10716   0.00000  Uiso   1.00
C562   C     0.45800   0.37432   0.14334   0.00000  Uiso   1.00
C563   C     0.55683   0.61999   0.31006   0.00000  Uiso   1.00
C564   C     0.54422   0.61943   0.35420   0.00000  Uiso   1.00
C565   C     0.57250   0.60789   0.38933   0.00000  Uiso   1.00
C566   C     0.61437   0.59954   0.38105   0.00000  Uiso   1.00
C567   C     0.62781   0.60244   0.33762   0.00000  Uiso   1.00
C568   C     0.59913   0.61181   0.30212   0.00000  Uiso   1.00
C569   C     0.56739   0.38111   0.29546   0.00000  Uiso   1.00
C570   C     0.49739   0.50047   0.33485   0.00000  Uiso   1.00
C571   C     0.60482   0.38135   0.27285   0.00000  Uiso   1.00
C572   C     0.64222   0.39507   0.29521   0.00000  Uiso   1.00
C573   C     0.64259   0.40883   0.34013   0.00000  Uiso   1.00
C574   C     0.60563   0.40834   0.36282   0.00000  Uiso   1.00
C575   C     0.56851   0.39337   0.34085   0.00000  Uiso   1.00
C576   C     0.43561   0.61770   0.20013   0.00000  Uiso   1.00
C577   C     0.43882   0.60230   0.15572   0.00000  Uiso   1.00
C578   C     0.40390   0.58435   0.13162   0.00000  Uiso   1.00
C579   C     0.36522   0.58335   0.15109   0.00000  Uiso   1.00
C580   C     0.36130   0.60053   0.19450   0.00000  Uiso   1.00
C581   C     0.47182   0.35752   0.22324   0.00000  Uiso   1.00
C582   C     0.39631   0.61757   0.21901   0.00000  Uiso   1.00
C583   C     0.58292   0.55238   0.02724   0.00000  Uiso   1.00
C584   C     0.60728   0.59053   0.05297   0.00000  Uiso   1.00
C585   C     0.65291   0.59192   0.04070   0.00000  Uiso   1.00
C586   C     0.53899   0.41834   0.49141   0.00000  Uiso   1.00
C587   C     0.55366   0.37090   0.47571   0.00000  Uiso   1.00
C588   C     0.60037   0.36406   0.48642   0.00000  Uiso   1.00
C589   C     0.42718   0.60404   0.45981   0.00000  Uiso   1.00
C590   C     0.42908   0.65542   0.45032   0.00000  Uiso   1.00
C591   C     0.38560   0.34200   0.43951   0.00000  Uiso   1.00
C592   C     0.52890   0.64233   0.27584   0.00000  Uiso   1.00
C593   C     0.39543   0.48553   0.00034   0.00000  Uiso   1.00
C594   C     0.35125   0.46590   0.49857   0.00000  Uiso   1.00
C595   C     0.65783   0.48676   0.46039   0.00000  Uiso   1.00
C596   C     0.53009   0.35815   0.27417   0.00000  Uiso   1.00
C597   C     0.47089   0.64160   0.22451   0.00000  Uiso   1.00
C598   C     0.35304   0.49159   0.20987   0.00000  Uiso   1.00
Cu599  Cu    0.50000   0.54689   0.25000   0.00000  Uiso   1.00
Cu600  Cu    0.50000   0.45311   0.25000   0.00000  Uiso   1.00
H601   H     0.54642   0.54802   0.11204   0.00000  Uiso   1.00
H602   H     0.34132   0.39811   0.16379   0.00000  Uiso   1.00
H603   H     0.36416   0.38785   0.08648   0.00000  Uiso   1.00
H604   H     0.43856   0.37110   0.07345   0.00000  Uiso   1.00
H605   H     0.49001   0.36499   0.13716   0.00000  Uiso   1.00
H606   H     0.51302   0.63055   0.36152   0.00000  Uiso   1.00
H607   H     0.56227   0.60719   0.42316   0.00000  Uiso   1.00
H608   H     0.63656   0.59191   0.40839   0.00000  Uiso   1.00
H609   H     0.66055   0.59755   0.33144   0.00000  Uiso   1.00
H610   H     0.61021   0.61497   0.26882   0.00000  Uiso   1.00
H611   H     0.60511   0.36984   0.23827   0.00000  Uiso   1.00
H612   H     0.49632   0.42878   0.39202   0.00000  Uiso   1.00
H613   H     0.33755   0.39507   0.27775   0.00000  Uiso   1.00
H614   H     0.33819   0.41965   0.35736   0.00000  Uiso   1.00
H615   H     0.60591   0.41839   0.39769   0.00000  Uiso   1.00
H616   H     0.54122   0.38858   0.35951   0.00000  Uiso   1.00
H617   H     0.46812   0.60501   0.13953   0.00000  Uiso   1.00
H618   H     0.40672   0.57182   0.09766   0.00000  Uiso   1.00
H619   H     0.33825   0.56911   0.13273   0.00000  Uiso   1.00
H620   H     0.66454   0.60020   0.20932   0.00000  Uiso   1.00
H621   H     0.39282   0.63112   0.25254   0.00000  Uiso   1.00
H622   H     0.59295   0.55059   0.49236   0.00000  Uiso   1.00
H623   H     0.47440   0.57411   0.38494   0.00000  Uiso   1.00
H624   H     0.59058   0.51829   0.04216   0.00000  Uiso   1.00
H625   H     0.59253   0.62426   0.04558   0.00000  Uiso   1.00
H626   H     0.60598   0.58521   0.08941   0.00000  Uiso   1.00
H627   H     0.33525   0.55886   0.04891   0.00000  Uiso   1.00
H628   H     0.33599   0.62010   0.05986   0.00000  Uiso   1.00
H629   H     0.65511   0.59846   0.00455   0.00000  Uiso   1.00
H630   H     0.54223   0.42044   0.02848   0.00000  Uiso   1.00
H631   H     0.56008   0.44496   0.47860   0.00000  Uiso   1.00
H632   H     0.53593   0.34387   0.49224   0.00000  Uiso   1.00
H633   H     0.54733   0.36713   0.43906   0.00000  Uiso   1.00
H634   H     0.43794   0.46382   0.11342   0.00000  Uiso   1.00
H635   H     0.61879   0.38971   0.46914   0.00000  Uiso   1.00
H636   H     0.60993   0.66265   0.47480   0.00000  Uiso   1.00
H637   H     0.60761   0.36763   0.02295   0.00000  Uiso   1.00
H638   H     0.40757   0.59911   0.48882   0.00000  Uiso   1.00
H639   H     0.41137   0.58598   0.43039   0.00000  Uiso   1.00
H640   H     0.44345   0.34065   0.48002   0.00000  Uiso   1.00
H641   H     0.44899   0.66082   0.42161   0.00000  Uiso   1.00
H642   H     0.37076   0.65774   0.40955   0.00000  Uiso   1.00
H643   H     0.38821   0.37919   0.43254   0.00000  Uiso   1.00
H644   H     0.36548   0.33796   0.46825   0.00000  Uiso   1.00
H645   H     0.36840   0.48616   0.17884   0.00000  Uiso   1.00
H646   H     0.40629   0.48433   0.46581   0.00000  Uiso   1.00
H647   H     0.39398   0.52195   0.01247   0.00000  Uiso   1.00
H648   H     0.35257   0.42802   0.49336   0.00000  Uiso   1.00
H649   H     0.33670   0.47321   0.03083   0.00000  Uiso   1.00
H650   H     0.65889   0.52483   0.46251   0.00000  Uiso   1.00
H651   H     0.62497   0.47563   0.46214   0.00000  Uiso   1.00
H652   H     0.33607   0.47524   0.42770   0.00000  Uiso   1.00
H653   H     0.63166   0.51089   0.32115   0.00000  Uiso   1.00
H654   H     0.62485   0.48568   0.17877   0.00000  Uiso   1.00
H655   H     0.37515   0.51303   0.32103   0.00000  Uiso   1.00
H656   H     0.39200   0.38922   0.22786   0.00000  Uiso   1.00
N657   N     0.50000   0.61736   0.25000   0.00000  Uiso   1.00
N658   N     0.50000   0.38264   0.25000   0.00000  Uiso   1.00
O659   O     0.43988   0.53958   0.25000   0.00000  Uiso   1.00
O660   O     0.49619   0.42414   0.47823   0.00000  Uiso   1.00
O661   O     0.46805   0.58788   0.47137   0.00000  Uiso   1.00
O662   O     0.42208   0.45800   0.02793   0.00000  Uiso   1.00
O663   O     0.56012   0.46042   0.25001   0.00000  Uiso   1.00
O664   O     0.56012   0.53958   0.25001   0.00000  Uiso   1.00
O665   O     0.43988   0.46042   0.25000   0.00000  Uiso   1.00
O666   O     0.50000   0.53959   0.18573   0.00000  Uiso   1.00
O667   O     0.50000   0.46041   0.31427   0.00000  Uiso   1.00
O668   O     0.50000   0.53959   0.31427   0.00000  Uiso   1.00
O669   O     0.50000   0.46041   0.18573   0.00000  Uiso   1.00
O670   O     0.53989   0.56366   0.02469   0.00000  Uiso   1.00
C671   C     0.75429   0.50005   0.24979   0.00000  Uiso   1.00
C672   C     0.98033   0.50664   0.28997   0.00000  Uiso   1.00
C673   C     0.97643   0.49153   0.20980   0.00000  Uiso   1.00
C674   C     0.69024   0.50734   0.28997   0.00000  Uiso   1.00
C675   C     0.84977   0.53287   0.04749   0.00000  Uiso   1.00
C676   C     0.82423   0.46400   0.45417   0.00000  Uiso   1.00
C677   C     0.80893   0.54605   0.45029   0.00000  Uiso   1.00
C678   C     0.78799   0.48345   0.04831   0.00000  Uiso   1.00
C679   C     0.85532   0.52885   0.09380   0.00000  Uiso   1.00
C680   C     0.82606   0.46185   0.40792   0.00000  Uiso   1.00
C681   C     0.81323   0.54355   0.40412   0.00000  Uiso   1.00
C682   C     0.91237   0.49987   0.24997   0.00000  Uiso   1.00
C683   C     0.79437   0.48039   0.09444   0.00000  Uiso   1.00
C684   C     0.82879   0.50094   0.11680   0.00000  Uiso   1.00
C685   C     0.82374   0.50196   0.38296   0.00000  Uiso   1.00
C686   C     0.81689   0.50893   0.02447   0.00000  Uiso   1.00
C687   C     0.81657   0.50644   0.47560   0.00000  Uiso   1.00
C688   C     0.95701   0.49951   0.24985   0.00000  Uiso   1.00
C689   C     0.70966   0.49997   0.24984   0.00000  Uiso   1.00
C690   C     0.77862   0.37915   0.18744   0.00000  Uiso   1.00
C691   C     0.73631   0.38830   0.19436   0.00000  Uiso   1.00
C692   C     0.70732   0.39202   0.15805   0.00000  Uiso   1.00
C693   C     0.83275   0.49989   0.16517   0.00000  Uiso   1.00
C694   C     0.72010   0.38585   0.11450   0.00000  Uiso   1.00
C695   C     0.76204   0.37654   0.10716   0.00000  Uiso   1.00
C696   C     0.79134   0.37432   0.14334   0.00000  Uiso   1.00
C697   C     0.89016   0.61999   0.31006   0.00000  Uiso   1.00
C698   C     0.87756   0.61943   0.35420   0.00000  Uiso   1.00
C699   C     0.90583   0.60789   0.38933   0.00000  Uiso   1.00
C700   C     0.94770   0.59954   0.38105   0.00000  Uiso   1.00
C701   C     0.96115   0.60244   0.33762   0.00000  Uiso   1.00
C702   C     0.93246   0.61181   0.30212   0.00000  Uiso   1.00
C703   C     0.90072   0.38111   0.29546   0.00000  Uiso   1.00
C704   C     0.83072   0.50047   0.33485   0.00000  Uiso   1.00
C705   C     0.93815   0.38135   0.27285   0.00000  Uiso   1.00
C706   C     0.97555   0.39507   0.29521   0.00000  Uiso   1.00
C707   C     0.97592   0.40883   0.34013   0.00000  Uiso   1.00
C708   C     0.93896   0.40834   0.36282   0.00000  Uiso   1.00
C709   C     0.90184   0.39337   0.34085   0.00000  Uiso   1.00
C710   C     0.76895   0.61770   0.20013   0.00000  Uiso   1.00
C711   C     0.77215   0.60230   0.15572   0.00000  Uiso   1.00
C712   C     0.73723   0.58435   0.13162   0.00000  Uiso   1.00
C713   C     0.69856   0.58335   0.15109   0.00000  Uiso   1.00
C714   C     0.69463   0.60053   0.19450   0.00000  Uiso   1.00
C715   C     0.80516   0.35752   0.22324   0.00000  Uiso   1.00
C716   C     0.72964   0.61757   0.21901   0.00000  Uiso   1.00
C717   C     0.91626   0.55238   0.02724   0.00000  Uiso   1.00
C718   C     0.94062   0.59053   0.05297   0.00000  Uiso   1.00
C719   C     0.98624   0.59192   0.04070   0.00000  Uiso   1.00
C720   C     0.87232   0.41834   0.49141   0.00000  Uiso   1.00
C721   C     0.88700   0.37090   0.47571   0.00000  Uiso   1.00
C722   C     0.93370   0.36406   0.48642   0.00000  Uiso   1.00
C723   C     0.76051   0.60404   0.45981   0.00000  Uiso   1.00
C724   C     0.76242   0.65542   0.45032   0.00000  Uiso   1.00
C725   C     0.71894   0.34200   0.43951   0.00000  Uiso   1.00
C726   C     0.86223   0.64233   0.27584   0.00000  Uiso   1.00
C727   C     0.72876   0.48553   0.00034   0.00000  Uiso   1.00
C728   C     0.68458   0.46590   0.49857   0.00000  Uiso   1.00
C729   C     0.99116   0.48676   0.46039   0.00000  Uiso   1.00
C730   C     0.86343   0.35815   0.27417   0.00000  Uiso   1.00
C731   C     0.80423   0.64160   0.22451   0.00000  Uiso   1.00
C732   C     0.68638   0.49159   0.20987   0.00000  Uiso   1.00
Cu733  Cu    0.83333   0.54689   0.25000   0.00000  Uiso   1.00
Cu734  Cu    0.83333   0.45311   0.25000   0.00000  Uiso   1.00
H735   H     0.87975   0.54802   0.11204   0.00000  Uiso   1.00
H736   H     0.67465   0.39811   0.16379   0.00000  Uiso   1.00
H737   H     0.69749   0.38785   0.08648   0.00000  Uiso   1.00
H738   H     0.77189   0.37110   0.07345   0.00000  Uiso   1.00
H739   H     0.82334   0.36499   0.13716   0.00000  Uiso   1.00
H740   H     0.84635   0.63055   0.36152   0.00000  Uiso   1.00
H741   H     0.89560   0.60719   0.42316   0.00000  Uiso   1.00
H742   H     0.96990   0.59191   0.40839   0.00000  Uiso   1.00
H743   H     0.99388   0.59755   0.33144   0.00000  Uiso   1.00
H744   H     0.94354   0.61497   0.26882   0.00000  Uiso   1.00
H745   H     0.93845   0.36984   0.23827   0.00000  Uiso   1.00
H746   H     0.82966   0.42878   0.39202   0.00000  Uiso   1.00
H747   H     0.67088   0.39507   0.27775   0.00000  Uiso   1.00
H748   H     0.67152   0.41965   0.35736   0.00000  Uiso   1.00
H749   H     0.93924   0.41839   0.39769   0.00000  Uiso   1.00
H750   H     0.87456   0.38858   0.35951   0.00000  Uiso   1.00
H751   H     0.80146   0.60501   0.13953   0.00000  Uiso   1.00
H752   H     0.74005   0.57182   0.09766   0.00000  Uiso   1.00
H753   H     0.67159   0.56911   0.13273   0.00000  Uiso   1.00
H754   H     0.99788   0.60020   0.20932   0.00000  Uiso   1.00
H755   H     0.72615   0.63112   0.25254   0.00000  Uiso   1.00
H756   H     0.92629   0.55059   0.49236   0.00000  Uiso   1.00
H757   H     0.80773   0.57411   0.38494   0.00000  Uiso   1.00
H758   H     0.92391   0.51829   0.04216   0.00000  Uiso   1.00
H759   H     0.92586   0.62426   0.04558   0.00000  Uiso   1.00
H760   H     0.93932   0.58521   0.08941   0.00000  Uiso   1.00
H761   H     0.66859   0.55886   0.04891   0.00000  Uiso   1.00
H762   H     0.66932   0.62010   0.05986   0.00000  Uiso   1.00
H763   H     0.98844   0.59846   0.00455   0.00000  Uiso   1.00
H764   H     0.87556   0.42044   0.02848   0.00000  Uiso   1.00
H765   H     0.89341   0.44496   0.47860   0.00000  Uiso   1.00
H766   H     0.86927   0.34387   0.49224   0.00000  Uiso   1.00
H767   H     0.88066   0.36713   0.43906   0.00000  Uiso   1.00
H768   H     0.77128   0.46382   0.11342   0.00000  Uiso   1.00
H769   H     0.95212   0.38971   0.46914   0.00000  Uiso   1.00
H770   H     0.94327   0.66265   0.47480   0.00000  Uiso   1.00
H771   H     0.94095   0.36763   0.02295   0.00000  Uiso   1.00
H772   H     0.74090   0.59911   0.48882   0.00000  Uiso   1.00
H773   H     0.74470   0.58598   0.43039   0.00000  Uiso   1.00
H774   H     0.77678   0.34065   0.48002   0.00000  Uiso   1.00
H775   H     0.78232   0.66082   0.42161   0.00000  Uiso   1.00
H776   H     0.70410   0.65774   0.40955   0.00000  Uiso   1.00
H777   H     0.72154   0.37919   0.43254   0.00000  Uiso   1.00
H778   H     0.69881   0.33796   0.46825   0.00000  Uiso   1.00
H779   H     0.70173   0.48616   0.17884   0.00000  Uiso   1.00
H780   H     0.73962   0.48433   0.46581   0.00000  Uiso   1.00
H781   H     0.72732   0.52195   0.01247   0.00000  Uiso   1.00
H782   H     0.68590   0.42802   0.49336   0.00000  Uiso   1.00
H783   H     0.67003   0.47321   0.03083   0.00000  Uiso   1.00
H784   H     0.99223   0.52483   0.46251   0.00000  Uiso   1.00
H785   H     0.95830   0.47563   0.46214   0.00000  Uiso   1.00
H786   H     0.66941   0.47524   0.42770   0.00000  Uiso   1.00
H787   H     0.96500   0.51089   0.32115   0.00000  Uiso   1.00
H788   H     0.95818   0.48568   0.17877   0.00000  Uiso   1.00
H789   H     0.70848   0.51303   0.32103   0.00000  Uiso   1.00
H790   H     0.72533   0.38922   0.22786   0.00000  Uiso   1.00
N791   N     0.83333   0.61736   0.25000   0.00000  Uiso   1.00
N792   N     0.83333   0.38264   0.25000   0.00000  Uiso   1.00
O793   O     0.77321   0.53958   0.25000   0.00000  Uiso   1.00
O794   O     0.82953   0.42414   0.47823   0.00000  Uiso   1.00
O795   O     0.80139   0.58788   0.47137   0.00000  Uiso   1.00
O796   O     0.75541   0.45800   0.02793   0.00000  Uiso   1.00
O797   O     0.89345   0.46042   0.25001   0.00000  Uiso   1.00
O798   O     0.89345   0.53958   0.25001   0.00000  Uiso   1.00
O799   O     0.77321   0.46042   0.25000   0.00000  Uiso   1.00
O800   O     0.83333   0.53959   0.18573   0.00000  Uiso   1.00
O801   O     0.83334   0.46041   0.31427   0.00000  Uiso   1.00
O802   O     0.83334   0.53959   0.31427   0.00000  Uiso   1.00
O803   O     0.83333   0.46041   0.18573   0.00000  Uiso   1.00
O804   O     0.87323   0.56366   0.02469   0.00000  Uiso   1.00
C805   C     0.08762   0.83338   0.24979   0.00000  Uiso   1.00
C806   C     0.31366   0.83997   0.28997   0.00000  Uiso   1.00
C807   C     0.30977   0.82486   0.20980   0.00000  Uiso   1.00
C808   C     0.02357   0.84068   0.28997   0.00000  Uiso   1.00
C809   C     0.18310   0.86621   0.04749   0.00000  Uiso   1.00
C810   C     0.15756   0.79733   0.45417   0.00000  Uiso   1.00
C811   C     0.14227   0.87938   0.45029   0.00000  Uiso   1.00
C812   C     0.12132   0.81679   0.04831   0.00000  Uiso   1.00
C813   C     0.18865   0.86218   0.09380   0.00000  Uiso   1.00
C814   C     0.15940   0.79519   0.40792   0.00000  Uiso   1.00
C815   C     0.14656   0.87688   0.40412   0.00000  Uiso   1.00
C816   C     0.24570   0.83320   0.24997   0.00000  Uiso   1.00
C817   C     0.12770   0.81372   0.09444   0.00000  Uiso   1.00
C818   C     0.16212   0.83428   0.11680   0.00000  Uiso   1.00
C819   C     0.15707   0.83529   0.38296   0.00000  Uiso   1.00
C820   C     0.15022   0.84226   0.02447   0.00000  Uiso   1.00
C821   C     0.14990   0.83977   0.47560   0.00000  Uiso   1.00
C822   C     0.29035   0.83284   0.24985   0.00000  Uiso   1.00
C823   C     0.04299   0.83330   0.24984   0.00000  Uiso   1.00
C824   C     0.11195   0.71248   0.18744   0.00000  Uiso   1.00
C825   C     0.06965   0.72163   0.19436   0.00000  Uiso   1.00
C826   C     0.04065   0.72535   0.15805   0.00000  Uiso   1.00
C827   C     0.16608   0.83322   0.16517   0.00000  Uiso   1.00
C828   C     0.05343   0.71918   0.11450   0.00000  Uiso   1.00
C829   C     0.09537   0.70987   0.10716   0.00000  Uiso   1.00
C830   C     0.12467   0.70766   0.14334   0.00000  Uiso   1.00
C831   C     0.22350   0.95332   0.31006   0.00000  Uiso   1.00
C832   C     0.21089   0.95276   0.35420   0.00000  Uiso   1.00
C833   C     0.23916   0.94122   0.38933   0.00000  Uiso   1.00
C834   C     0.28104   0.93287   0.38105   0.00000  Uiso   1.00
C835   C     0.29448   0.93578   0.33762   0.00000  Uiso   1.00
C836   C     0.26580   0.94515   0.30212   0.00000  Uiso   1.00
C837   C     0.23405   0.71444   0.29546   0.00000  Uiso   1.00
C838   C     0.16405   0.83380   0.33485   0.00000  Uiso   1.00
C839   C     0.27149   0.71468   0.27285   0.00000  Uiso   1.00
C840   C     0.30889   0.72840   0.29521   0.00000  Uiso   1.00
C841   C     0.30925   0.74216   0.34013   0.00000  Uiso   1.00
C842   C     0.27230   0.74168   0.36282   0.00000  Uiso   1.00
C843   C     0.23518   0.72671   0.34085   0.00000  Uiso   1.00
C844   C     0.10228   0.95103   0.20013   0.00000  Uiso   1.00
C845   C     0.10549   0.93564   0.15572   0.00000  Uiso   1.00
C846   C     0.07057   0.91768   0.13162   0.00000  Uiso   1.00
C847   C     0.03189   0.91668   0.15109   0.00000  Uiso   1.00
C848   C     0.02797   0.93386   0.19450   0.00000  Uiso   1.00
C849   C     0.13849   0.69085   0.22324   0.00000  Uiso   1.00
C850   C     0.06298   0.95090   0.21901   0.00000  Uiso   1.00
C851   C     0.24959   0.88571   0.02724   0.00000  Uiso   1.00
C852   C     0.27395   0.92386   0.05297   0.00000  Uiso   1.00
C853   C     0.31957   0.92525   0.04070   0.00000  Uiso   1.00
C854   C     0.20565   0.75167   0.49141   0.00000  Uiso   1.00
C855   C     0.22033   0.70423   0.47571   0.00000  Uiso   1.00
C856   C     0.26704   0.69739   0.48642   0.00000  Uiso   1.00
C857   C     0.09385   0.93738   0.45981   0.00000  Uiso   1.00
C858   C     0.09575   0.98875   0.45032   0.00000  Uiso   1.00
C859   C     0.05227   0.67534   0.43951   0.00000  Uiso   1.00
C860   C     0.19556   0.97566   0.27584   0.00000  Uiso   1.00
C861   C     0.06209   0.81886   0.00034   0.00000  Uiso   1.00
C862   C     0.01792   0.79924   0.49857   0.00000  Uiso   1.00
C863   C     0.32450   0.82009   0.46039   0.00000  Uiso   1.00
C864   C     0.19676   0.69149   0.27417   0.00000  Uiso   1.00
C865   C     0.13756   0.97493   0.22451   0.00000  Uiso   1.00
C866   C     0.01971   0.82492   0.20987   0.00000  Uiso   1.00
Cu867  Cu    0.16667   0.88022   0.25000   0.00000  Uiso   1.00
Cu868  Cu    0.16667   0.78645   0.25000   0.00000  Uiso   1.00
H869   H     0.21308   0.88136   0.11204   0.00000  Uiso   1.00
H870   H     0.00798   0.73145   0.16379   0.00000  Uiso   1.00
H871   H     0.03082   0.72118   0.08648   0.00000  Uiso   1.00
H872   H     0.10523   0.70443   0.07345   0.00000  Uiso   1.00
H873   H     0.15668   0.69833   0.13716   0.00000  Uiso   1.00
H874   H     0.17968   0.96389   0.36152   0.00000  Uiso   1.00
H875   H     0.22894   0.94052   0.42316   0.00000  Uiso   1.00
H876   H     0.30323   0.92524   0.40839   0.00000  Uiso   1.00
H877   H     0.32721   0.93088   0.33144   0.00000  Uiso   1.00
H878   H     0.27688   0.94830   0.26882   0.00000  Uiso   1.00
H879   H     0.27178   0.70317   0.23827   0.00000  Uiso   1.00
H880   H     0.16299   0.76212   0.39202   0.00000  Uiso   1.00
H881   H     0.00421   0.72840   0.27775   0.00000  Uiso   1.00
H882   H     0.00485   0.75298   0.35736   0.00000  Uiso   1.00
H883   H     0.27258   0.75173   0.39769   0.00000  Uiso   1.00
H884   H     0.20789   0.72191   0.35951   0.00000  Uiso   1.00
H885   H     0.13479   0.93834   0.13953   0.00000  Uiso   1.00
H886   H     0.07339   0.90515   0.09766   0.00000  Uiso   1.00
H887   H     0.00492   0.90244   0.13273   0.00000  Uiso   1.00
H888   H     0.33121   0.93353   0.20932   0.00000  Uiso   1.00
H889   H     0.05948   0.96446   0.25254   0.00000  Uiso   1.00
H890   H     0.25962   0.88393   0.49236   0.00000  Uiso   1.00
H891   H     0.14106   0.90745   0.38494   0.00000  Uiso   1.00
H892   H     0.25724   0.85162   0.04216   0.00000  Uiso   1.00
H893   H     0.25920   0.95759   0.04558   0.00000  Uiso   1.00
H894   H     0.27265   0.91855   0.08941   0.00000  Uiso   1.00
H895   H     0.00192   0.89219   0.04891   0.00000  Uiso   1.00
H896   H     0.00265   0.95344   0.05986   0.00000  Uiso   1.00
H897   H     0.32178   0.93179   0.00455   0.00000  Uiso   1.00
H898   H     0.20889   0.75378   0.02848   0.00000  Uiso   1.00
H899   H     0.22674   0.77830   0.47860   0.00000  Uiso   1.00
H900   H     0.20260   0.67720   0.49224   0.00000  Uiso   1.00
H901   H     0.21400   0.70046   0.43906   0.00000  Uiso   1.00
H902   H     0.10461   0.79715   0.11342   0.00000  Uiso   1.00
H903   H     0.28545   0.72304   0.46914   0.00000  Uiso   1.00
H904   H     0.27660   0.99598   0.47480   0.00000  Uiso   1.00
H905   H     0.27428   0.70097   0.02295   0.00000  Uiso   1.00
H906   H     0.07424   0.93244   0.48882   0.00000  Uiso   1.00
H907   H     0.07803   0.91931   0.43039   0.00000  Uiso   1.00
H908   H     0.11011   0.67398   0.48002   0.00000  Uiso   1.00
H909   H     0.11566   0.99415   0.42161   0.00000  Uiso   1.00
H910   H     0.03743   0.99107   0.40955   0.00000  Uiso   1.00
H911   H     0.05488   0.71252   0.43254   0.00000  Uiso   1.00
H912   H     0.03214   0.67129   0.46825   0.00000  Uiso   1.00
H913   H     0.03507   0.81949   0.17884   0.00000  Uiso   1.00
H914   H     0.07295   0.81767   0.46581   0.00000  Uiso   1.00
H915   H     0.06065   0.85528   0.01247   0.00000  Uiso   1.00
H916   H     0.01924   0.76136   0.49336   0.00000  Uiso   1.00
H917   H     0.00337   0.80655   0.03083   0.00000  Uiso   1.00
H918   H     0.32556   0.85817   0.46251   0.00000  Uiso   1.00
H919   H     0.29163   0.80896   0.46214   0.00000  Uiso   1.00
H920   H     0.00274   0.80857   0.42770   0.00000  Uiso   1.00
H921   H     0.29833   0.84422   0.32115   0.00000  Uiso   1.00
H922   H     0.29151   0.81902   0.17877   0.00000  Uiso   1.00
H923   H     0.04182   0.84636   0.32103   0.00000  Uiso   1.00
H924   H     0.05867   0.72255   0.22786   0.00000  Uiso   1.00
N925   N     0.16667   0.95069   0.25000   0.00000  Uiso   1.00
N926   N     0.16667   0.71598   0.25000   0.00000  Uiso   1.00
O927   O     0.10655   0.87291   0.25000   0.00000  Uiso   1.00
O928   O     0.16286   0.75748   0.47823   0.00000  Uiso   1.00
O929   O     0.13472   0.92122   0.47137   0.00000  Uiso   1.00
O930   O     0.08875   0.79133   0.02793   0.00000  Uiso   1.00
O931   O     0.22679   0.79375   0.25001   0.00000  Uiso   1.00
O932   O     0.22679   0.87291   0.25001   0.00000  Uiso   1.00
O933   O     0.10655   0.79375   0.25000   0.00000  Uiso   1.00
O934   O     0.16666   0.87293   0.18573   0.00000  Uiso   1.00
O935   O     0.16667   0.79374   0.31427   0.00000  Uiso   1.00
O936   O     0.16667   0.87293   0.31427   0.00000  Uiso   1.00
O937   O     0.16666   0.79374   0.18573   0.00000  Uiso   1.00
O938   O     0.20656   0.89699   0.02469   0.00000  Uiso   1.00
C939   C     0.42096   0.83338   0.24979   0.00000  Uiso   1.00
C940   C     0.64699   0.83997   0.28997   0.00000  Uiso   1.00
C941   C     0.64310   0.82486   0.20980   0.00000  Uiso   1.00
C942   C     0.35691   0.84068   0.28997   0.00000  Uiso   1.00
C943   C     0.51643   0.86621   0.04749   0.00000  Uiso   1.00
C944   C     0.49089   0.79733   0.45417   0.00000  Uiso   1.00
C945   C     0.47560   0.87938   0.45029   0.00000  Uiso   1.00
C946   C     0.45465   0.81679   0.04831   0.00000  Uiso   1.00
C947   C     0.52199   0.86218   0.09380   0.00000  Uiso   1.00
C948   C     0.49273   0.79519   0.40792   0.00000  Uiso   1.00
C949   C     0.47990   0.87688   0.40412   0.00000  Uiso   1.00
C950   C     0.57904   0.83320   0.24997   0.00000  Uiso   1.00
C951   C     0.46103   0.81372   0.09444   0.00000  Uiso   1.00
C952   C     0.49546   0.83428   0.11680   0.00000  Uiso   1.00
C953   C     0.49041   0.83529   0.38296   0.00000  Uiso   1.00
C954   C     0.48355   0.84226   0.02447   0.00000  Uiso   1.00
C955   C     0.48324   0.83977   0.47560   0.00000  Uiso   1.00
C956   C     0.62368   0.83284   0.24985   0.00000  Uiso   1.00
C957   C     0.37632   0.83330   0.24984   0.00000  Uiso   1.00
C958   C     0.44529   0.71248   0.18744   0.00000  Uiso   1.00
C959   C     0.40298   0.72163   0.19436   0.00000  Uiso   1.00
C960   C     0.37399   0.72535   0.15805   0.00000  Uiso   1.00
C961   C     0.49941   0.83322   0.16517   0.00000  Uiso   1.00
C962   C     0.38677   0.71918   0.11450   0.00000  Uiso   1.00
C963   C     0.42870   0.70987   0.10716   0.00000  Uiso   1.00
C964   C     0.45800   0.70766   0.14334   0.00000  Uiso   1.00
C965   C     0.55683   0.95332   0.31006   0.00000  Uiso   1.00
C966   C     0.54422   0.95276   0.35420   0.00000  Uiso   1.00
C967   C     0.57250   0.94122   0.38933   0.00000  Uiso   1.00
C968   C     0.61437   0.93287   0.38105   0.00000  Uiso   1.00
C969   C     0.62781   0.93578   0.33762   0.00000  Uiso   1.00
C970   C     0.59913   0.94515   0.30212   0.00000  Uiso   1.00
C971   C     0.56739   0.71444   0.29546   0.00000  Uiso   1.00
C972   C     0.49739   0.83380   0.33485   0.00000  Uiso   1.00
C973   C     0.60482   0.71468   0.27285   0.00000  Uiso   1.00
C974   C     0.64222   0.72840   0.29521   0.00000  Uiso   1.00
C975   C     0.64259   0.74216   0.34013   0.00000  Uiso   1.00
C976   C     0.60563   0.74168   0.36282   0.00000  Uiso   1.00
C977   C     0.56851   0.72671   0.34085   0.00000  Uiso   1.00
C978   C     0.43561   0.95103   0.20013   0.00000  Uiso   1.00
C979   C     0.43882   0.93564   0.15572   0.00000  Uiso   1.00
C980   C     0.40390   0.91768   0.13162   0.00000  Uiso   1.00
C981   C     0.36522   0.91668   0.15109   0.00000  Uiso   1.00
C982   C     0.36130   0.93386   0.19450   0.00000  Uiso   1.00
C983   C     0.47182   0.69085   0.22324   0.00000  Uiso   1.00
C984   C     0.39631   0.95090   0.21901   0.00000  Uiso   1.00
C985   C     0.58292   0.88571   0.02724   0.00000  Uiso   1.00
C986   C     0.60728   0.92386   0.05297   0.00000  Uiso   1.00
C987   C     0.65291   0.92525   0.04070   0.00000  Uiso   1.00
C988   C     0.53899   0.75167   0.49141   0.00000  Uiso   1.00
C989   C     0.55366   0.70423   0.47571   0.00000  Uiso   1.00
C990   C     0.60037   0.69739   0.48642   0.00000  Uiso   1.00
C991   C     0.42718   0.93738   0.45981   0.00000  Uiso   1.00
C992   C     0.42908   0.98875   0.45032   0.00000  Uiso   1.00
C993   C     0.38560   0.67534   0.43951   0.00000  Uiso   1.00
C994   C     0.52890   0.97566   0.27584   0.00000  Uiso   1.00
C995   C     0.39543   0.81886   0.00034   0.00000  Uiso   1.00
C996   C     0.35125   0.79924   0.49857   0.00000  Uiso   1.00
C997   C     0.65783   0.82009   0.46039   0.00000  Uiso   1.00
C998   C     0.53009   0.69149   0.27417   0.00000  Uiso   1.00
C999   C     0.47089   0.97493   0.22451   0.00000  Uiso   1.00
C1000  C     0.35304   0.82492   0.20987   0.00000  Uiso   1.00
Cu1001 Cu    0.50000   0.88022   0.25000   0.00000  Uiso   1.00
Cu1002 Cu    0.50000   0.78645   0.25000   0.00000  Uiso   1.00
H1003  H     0.54642   0.88136   0.11204   0.00000  Uiso   1.00
H1004  H     0.34132   0.73145   0.16379   0.00000  Uiso   1.00
H1005  H     0.36416   0.72118   0.08648   0.00000  Uiso   1.00
H1006  H     0.43856   0.70443   0.07345   0.00000  Uiso   1.00
H1007  H     0.49001   0.69833   0.13716   0.00000  Uiso   1.00
H1008  H     0.51302   0.96389   0.36152   0.00000  Uiso   1.00
H1009  H     0.56227   0.94052   0.42316   0.00000  Uiso   1.00
H1010  H     0.63656   0.92524   0.40839   0.00000  Uiso   1.00
H1011  H     0.66055   0.93088   0.33144   0.00000  Uiso   1.00
H1012  H     0.61021   0.94830   0.26882   0.00000  Uiso   1.00
H1013  H     0.60511   0.70317   0.23827   0.00000  Uiso   1.00
H1014  H     0.49632   0.76212   0.39202   0.00000  Uiso   1.00
H1015  H     0.33755   0.72840   0.27775   0.00000  Uiso   1.00
H1016  H     0.33819   0.75298   0.35736   0.00000  Uiso   1.00
H1017  H     0.60591   0.75173   0.39769   0.00000  Uiso   1.00
H1018  H     0.54122   0.72191   0.35951   0.00000  Uiso   1.00
H1019  H     0.46812   0.93834   0.13953   0.00000  Uiso   1.00
H1020  H     0.40672   0.90515   0.09766   0.00000  Uiso   1.00
H1021  H     0.33825   0.90244   0.13273   0.00000  Uiso   1.00
H1022  H     0.66454   0.93353   0.20932   0.00000  Uiso   1.00
H1023  H     0.39282   0.96446   0.25254   0.00000  Uiso   1.00
H1024  H     0.59295   0.88393   0.49236   0.00000  Uiso   1.00
H1025  H     0.47440   0.90745   0.38494   0.00000  Uiso   1.00
H1026  H     0.59058   0.85162   0.04216   0.00000  Uiso   1.00
H1027  H     0.59253   0.95759   0.04558   0.00000  Uiso   1.00
H1028  H     0.60598   0.91855   0.08941   0.00000  Uiso   1.00
H1029  H     0.33525   0.89219   0.04891   0.00000  Uiso   1.00
H1030  H     0.33599   0.95344   0.05986   0.00000  Uiso   1.00
H1031  H     0.65511   0.93179   0.00455   0.00000  Uiso   1.00
H1032  H     0.54223   0.75378   0.02848   0.00000  Uiso   1.00
H1033  H     0.56008   0.77830   0.47860   0.00000  Uiso   1.00
H1034  H     0.53593   0.67720   0.49224   0.00000  Uiso   1.00
H1035  H     0.54733   0.70046   0.43906   0.00000  Uiso   1.00
H1036  H     0.43794   0.79715   0.11342   0.00000  Uiso   1.00
H1037  H     0.61879   0.72304   0.46914   0.00000  Uiso   1.00
H1038  H     0.60993   0.99598   0.47480   0.00000  Uiso   1.00
H1039  H     0.60761   0.70097   0.02295   0.00000  Uiso   1.00
H1040  H     0.40757   0.93244   0.48882   0.00000  Uiso   1.00
H1041  H     0.41137   0.91931   0.43039   0.00000  Uiso   1.00
H1042  H     0.44345   0.67398   0.48002   0.00000  Uiso   1.00
H1043  H     0.44899   0.99415   0.42161   0.00000  Uiso   1.00
H1044  H     0.37076   0.99107   0.40955   0.00000  Uiso   1.00
H1045  H     0.38821   0.71252   0.43254   0.00000  Uiso   1.00
H1046  H     0.36548   0.67129   0.46825   0.00000  Uiso   1.00
H1047  H     0.36840   0.81949   0.17884   0.00000  Uiso   1.00
H1048  H     0.40629   0.81767   0.46581   0.00000  Uiso   1.00
H1049  H     0.39398   0.85528   0.01247   0.00000  Uiso   1.00
H1050  H     0.35257   0.76136   0.49336   0.00000  Uiso   1.00
H1051  H     0.33670   0.80655   0.03083   0.00000  Uiso   1.00
H1052  H     0.65889   0.85817   0.46251   0.00000  Uiso   1.00
H1053  H     0.62497   0.80896   0.46214   0.00000  Uiso   1.00
H1054  H     0.33607   0.80857   0.42770   0.00000  Uiso   1.00
H1055  H     0.63166   0.84422   0.32115   0.00000  Uiso   1.00
H1056  H     0.62485   0.81902   0.17877   0.00000  Uiso   1.00
H1057  H     0.37515   0.84636   0.32103   0.00000  Uiso   1.00
H1058  H     0.39200   0.72255   0.22786   0.00000  Uiso   1.00
N1059  N     0.50000   0.95069   0.25000   0.00000  Uiso   1.00
N1060  N     0.50000   0.71598   0.25000   0.00000  Uiso   1.00
O1061  O     0.43988   0.87291   0.25000   0.00000  Uiso   1.00
O1062  O     0.49619   0.75748   0.47823   0.00000  Uiso   1.00
O1063  O     0.46805   0.92122   0.47137   0.00000  Uiso   1.00
O1064  O     0.42208   0.79133   0.02793   0.00000  Uiso   1.00
O1065  O     0.56012   0.79375   0.25001   0.00000  Uiso   1.00
O1066  O     0.56012   0.87291   0.25001   0.00000  Uiso   1.00
O1067  O     0.43988   0.79375   0.25000   0.00000  Uiso   1.00
O1068  O     0.50000   0.87293   0.18573   0.00000  Uiso   1.00
O1069  O     0.50000   0.79374   0.31427   0.00000  Uiso   1.00
O1070  O     0.50000   0.87293   0.31427   0.00000  Uiso   1.00
O1071  O     0.50000   0.79374   0.18573   0.00000  Uiso   1.00
O1072  O     0.53989   0.89699   0.02469   0.00000  Uiso   1.00
C1073  C     0.75429   0.83338   0.24979   0.00000  Uiso   1.00
C1074  C     0.98033   0.83997   0.28997   0.00000  Uiso   1.00
C1075  C     0.97643   0.82486   0.20980   0.00000  Uiso   1.00
C1076  C     0.69024   0.84068   0.28997   0.00000  Uiso   1.00
C1077  C     0.84977   0.86621   0.04749   0.00000  Uiso   1.00
C1078  C     0.82423   0.79733   0.45417   0.00000  Uiso   1.00
C1079  C     0.80893   0.87938   0.45029   0.00000  Uiso   1.00
C1080  C     0.78799   0.81679   0.04831   0.00000  Uiso   1.00
C1081  C     0.85532   0.86218   0.09380   0.00000  Uiso   1.00
C1082  C     0.82606   0.79519   0.40792   0.00000  Uiso   1.00
C1083  C     0.81323   0.87688   0.40412   0.00000  Uiso   1.00
C1084  C     0.91237   0.83320   0.24997   0.00000  Uiso   1.00
C1085  C     0.79437   0.81372   0.09444   0.00000  Uiso   1.00
C1086  C     0.82879   0.83428   0.11680   0.00000  Uiso   1.00
C1087  C     0.82374   0.83529   0.38296   0.00000  Uiso   1.00
C1088  C     0.81689   0.84226   0.02447   0.00000  Uiso   1.00
C1089  C     0.81657   0.83977   0.47560   0.00000  Uiso   1.00
C1090  C     0.95701   0.83284   0.24985   0.00000  Uiso   1.00
C1091  C     0.70966   0.83330   0.24984   0.00000  Uiso   1.00
C1092  C     0.77862   0.71248   0.18744   0.00000  Uiso   1.00
C1093  C     0.73631   0.72163   0.19436   0.00000  Uiso   1.00
C1094  C     0.70732   0.72535   0.15805   0.00000  Uiso   1.00
C1095  C     0.83275   0.83322   0.16517   0.00000  Uiso   1.00
C1096  C     0.72010   0.71918   0.11450   0.00000  Uiso   1.00
C1097  C     0.76204   0.70987   0.10716   0.00000  Uiso   1.00
C1098  C     0.79134   0.70766   0.14334   0.00000  Uiso   1.00
C1099  C     0.89016   0.95332   0.31006   0.00000  Uiso   1.00
C1100  C     0.87756   0.95276   0.35420   0.00000  Uiso   1.00
C1101  C     0.90583   0.94122   0.38933   0.00000  Uiso   1.00
C1102  C     0.94770   0.93287   0.38105   0.00000  Uiso   1.00
C1103  C     0.96115   0.93578   0.33762   0.00000  Uiso   1.00
C1104  C     0.93246   0.94515   0.30212   0.00000  Uiso   1.00
C1105  C     0.90072   0.71444   0.29546   0.00000  Uiso   1.00
C1106  C     0.83072   0.83380   0.33485   0.00000  Uiso   1.00
C1107  C     0.93815   0.71468   0.27285   0.00000  Uiso   1.00
C1108  C     0.97555   0.72840   0.29521   0.00000  Uiso   1.00
C1109  C     0.97592   0.74216   0.34013   0.00000  Uiso   1.00
C1110  C     0.93896   0.74168   0.36282   0.00000  Uiso   1.00
C1111  C     0.90184   0.72671   0.34085   0.00000  Uiso   1.00
C1112  C     0.76895   0.95103   0.20013   0.00000  Uiso   1.00
C1113  C     0.77215   0.93564   0.15572   0.00000  Uiso   1.00
C1114  C     0.73723   0.91768   0.13162   0.00000  Uiso   1.00
C1115  C     0.69856   0.91668   0.15109   0.00000  Uiso   1.00
C1116  C     0.69463   0.93386   0.19450   0.00000  Uiso   1.00
C1117  C     0.80516   0.69085   0.22324   0.00000  Uiso   1.00
C1118  C     0.72964   0.95090   0.21901   0.00000  Uiso   1.00
C1119  C     0.91626   0.88571   0.02724   0.00000  Uiso   1.00
C1120  C     0.94062   0.92386   0.05297   0.00000  Uiso   1.00
C1121  C     0.98624   0.92525   0.04070   0.00000  Uiso   1.00
C1122  C     0.87232   0.75167   0.49141   0.00000  Uiso   1.00
C1123  C     0.88700   0.70423   0.47571   0.00000  Uiso   1.00
C1124  C     0.93370   0.69739   0.48642   0.00000  Uiso   1.00
C1125  C     0.76051   0.93738   0.45981   0.00000  Uiso   1.00
C1126  C     0.76242   0.98875   0.45032   0.00000  Uiso   1.00
C1127  C     0.71894   0.67534   0.43951   0.00000  Uiso   1.00
C1128  C     0.86223   0.97566   0.27584   0.00000  Uiso   1.00
C1129  C     0.72876   0.81886   0.00034   0.00000  Uiso   1.00
C1130  C     0.68458   0.79924   0.49857   0.00000  Uiso   1.00
C1131  C     0.99116   0.82009   0.46039   0.00000  Uiso   1.00
C1132  C     0.86343   0.69149   0.27417   0.00000  Uiso   1.00
C1133  C     0.80423   0.97493   0.22451   0.00000  Uiso   1.00
C1134  C     0.68638   0.82492   0.20987   0.00000  Uiso   1.00
Cu1135 Cu    0.83333   0.88022   0.25000   0.00000  Uiso   1.00
Cu1136 Cu    0.83333   0.78645   0.25000   0.00000  Uiso   1.00
H1137  H     0.87975   0.88136   0.11204   0.00000  Uiso   1.00
H1138  H     0.67465   0.73145   0.16379   0.00000  Uiso   1.00
H1139  H     0.69749   0.72118   0.08648   0.00000  Uiso   1.00
H1140  H     0.77189   0.70443   0.07345   0.00000  Uiso   1.00
H1141  H     0.82334   0.69833   0.13716   0.00000  Uiso   1.00
H1142  H     0.84635   0.96389   0.36152   0.00000  Uiso   1.00
H1143  H     0.89560   0.94052   0.42316   0.00000  Uiso   1.00
H1144  H     0.96990   0.92524   0.40839   0.00000  Uiso   1.00
H1145  H     0.99388   0.93088   0.33144   0.00000  Uiso   1.00
H1146  H     0.94354   0.94830   0.26882   0.00000  Uiso   1.00
H1147  H     0.93845   0.70317   0.23827   0.00000  Uiso   1.00
H1148  H     0.82966   0.76212   0.39202   0.00000  Uiso   1.00
H1149  H     0.67088   0.72840   0.27775   0.00000  Uiso   1.00
H1150  H     0.67152   0.75298   0.35736   0.00000  Uiso   1.00
H1151  H     0.93924   0.75173   0.39769   0.00000  Uiso   1.00
H1152  H     0.87456   0.72191   0.35951   0.00000  Uiso   1.00
H1153  H     0.80146   0.93834   0.13953   0.00000  Uiso   1.00
H1154  H     0.74005   0.90515   0.09766   0.00000  Uiso   1.00
H1155  H     0.67159   0.90244   0.13273   0.00000  Uiso   1.00
H1156  H     0.99788   0.93353   0.20932   0.00000  Uiso   1.00
H1157  H     0.72615   0.96446   0.25254   0.00000  Uiso   1.00
H1158  H     0.92629   0.88393   0.49236   0.00000  Uiso   1.00
H1159  H     0.80773   0.90745   0.38494   0.00000  Uiso   1.00
H1160  H     0.92391   0.85162   0.04216   0.00000  Uiso   1.00
H1161  H     0.92586   0.95759   0.04558   0.00000  Uiso   1.00
H1162  H     0.93932   0.91855   0.08941   0.00000  Uiso   1.00
H1163  H     0.66859   0.89219   0.04891   0.00000  Uiso   1.00
H1164  H     0.66932   0.95344   0.05986   0.00000  Uiso   1.00
H1165  H     0.98844   0.93179   0.00455   0.00000  Uiso   1.00
H1166  H     0.87556   0.75378   0.02848   0.00000  Uiso   1.00
H1167  H     0.89341   0.77830   0.47860   0.00000  Uiso   1.00
H1168  H     0.86927   0.67720   0.49224   0.00000  Uiso   1.00
H1169  H     0.88066   0.70046   0.43906   0.00000  Uiso   1.00
H1170  H     0.77128   0.79715   0.11342   0.00000  Uiso   1.00
H1171  H     0.95212   0.72304   0.46914   0.00000  Uiso   1.00
H1172  H     0.94327   0.99598   0.47480   0.00000  Uiso   1.00
H1173  H     0.94095   0.70097   0.02295   0.00000  Uiso   1.00
H1174  H     0.74090   0.93244   0.48882   0.00000  Uiso   1.00
H1175  H     0.74470   0.91931   0.43039   0.00000  Uiso   1.00
H1176  H     0.77678   0.67398   0.48002   0.00000  Uiso   1.00
H1177  H     0.78232   0.99415   0.42161   0.00000  Uiso   1.00
H1178  H     0.70410   0.99107   0.40955   0.00000  Uiso   1.00
H1179  H     0.72154   0.71252   0.43254   0.00000  Uiso   1.00
H1180  H     0.69881   0.67129   0.46825   0.00000  Uiso   1.00
H1181  H     0.70173   0.81949   0.17884   0.00000  Uiso   1.00
H1182  H     0.73962   0.81767   0.46581   0.00000  Uiso   1.00
H1183  H     0.72732   0.85528   0.01247   0.00000  Uiso   1.00
H1184  H     0.68590   0.76136   0.49336   0.00000  Uiso   1.00
H1185  H     0.67003   0.80655   0.03083   0.00000  Uiso   1.00
H1186  H     0.99223   0.85817   0.46251   0.00000  Uiso   1.00
H1187  H     0.95830   0.80896   0.46214   0.00000  Uiso   1.00
H1188  H     0.66941   0.80857   0.42770   0.00000  Uiso   1.00
H1189  H     0.96500   0.84422   0.32115   0.00000  Uiso   1.00
H1190  H     0.95818   0.81902   0.17877   0.00000  Uiso   1.00
H1191  H     0.70848   0.84636   0.32103   0.00000  Uiso   1.00
H1192  H     0.72533   0.72255   0.22786   0.00000  Uiso   1.00
N1193  N     0.83333   0.95069   0.25000   0.00000  Uiso   1.00
N1194  N     0.83333   0.71598   0.25000   0.00000  Uiso   1.00
O1195  O     0.77321   0.87291   0.25000   0.00000  Uiso   1.00
O1196  O     0.82953   0.75748   0.47823   0.00000  Uiso   1.00
O1197  O     0.80139   0.92122   0.47137   0.00000  Uiso   1.00
O1198  O     0.75541   0.79133   0.02793   0.00000  Uiso   1.00
O1199  O     0.89345   0.79375   0.25001   0.00000  Uiso   1.00
O1200  O     0.89345   0.87291   0.25001   0.00000  Uiso   1.00
O1201  O     0.77321   0.79375   0.25000   0.00000  Uiso   1.00
O1202  O     0.83333   0.87293   0.18573   0.00000  Uiso   1.00
O1203  O     0.83334   0.79374   0.31427   0.00000  Uiso   1.00
O1204  O     0.83334   0.87293   0.31427   0.00000  Uiso   1.00
O1205  O     0.83333   0.79374   0.18573   0.00000  Uiso   1.00
O1206  O     0.87323   0.89699   0.02469   0.00000  Uiso   1.00
C1207  C     0.08762   0.16672   0.74979   0.00000  Uiso   1.00
C1208  C     0.31366   0.17331   0.78997   0.00000  Uiso   1.00
C1209  C     0.30977   0.15820   0.70980   0.00000  Uiso   1.00
C1210  C     0.02357   0.17401   0.78997   0.00000  Uiso   1.00
C1211  C     0.18310   0.19954   0.54749   0.00000  Uiso   1.00
C1212  C     0.15756   0.13066   0.95417   0.00000  Uiso   1.00
C1213  C     0.14227   0.21272   0.95029   0.00000  Uiso   1.00
C1214  C     0.12132   0.15012   0.54831   0.00000  Uiso   1.00
C1215  C     0.18865   0.19552   0.59380   0.00000  Uiso   1.00
C1216  C     0.15940   0.12852   0.90792   0.00000  Uiso   1.00
C1217  C     0.14656   0.21021   0.90412   0.00000  Uiso   1.00
C1218  C     0.24570   0.16653   0.74997   0.00000  Uiso   1.00
C1219  C     0.12770   0.14706   0.59444   0.00000  Uiso   1.00
C1220  C     0.16212   0.16761   0.61680   0.00000  Uiso   1.00
C1221  C     0.15707   0.16862   0.88296   0.00000  Uiso   1.00
C1222  C     0.15022   0.17559   0.52447   0.00000  Uiso   1.00
C1223  C     0.14990   0.17311   0.97560   0.00000  Uiso   1.00
C1224  C     0.29035   0.16617   0.74985   0.00000  Uiso   1.00
C1225  C     0.04299   0.16664   0.74984   0.00000  Uiso   1.00
C1226  C     0.11195   0.04581   0.68744   0.00000  Uiso   1.00
C1227  C     0.06965   0.05497   0.69436   0.00000  Uiso   1.00
C1228  C     0.04065   0.05869   0.65805   0.00000  Uiso   1.00
C1229  C     0.16608   0.16655   0.66517   0.00000  Uiso   1.00
C1230  C     0.05343   0.05251   0.61450   0.00000  Uiso   1.00
C1231  C     0.09537   0.04321   0.60716   0.00000  Uiso   1.00
C1232  C     0.12467   0.04099   0.64334   0.00000  Uiso   1.00
C1233  C     0.22350   0.28665   0.81006   0.00000  Uiso   1.00
C1234  C     0.21089   0.28609   0.85420   0.00000  Uiso   1.00
C1235  C     0.23916   0.27456   0.88933   0.00000  Uiso   1.00
C1236  C     0.28104   0.26621   0.88105   0.00000  Uiso   1.00
C1237  C     0.29448   0.26911   0.83762   0.00000  Uiso   1.00
C1238  C     0.26580   0.27848   0.80212   0.00000  Uiso   1.00
C1239  C     0.23405   0.04777   0.79546   0.00000  Uiso   1.00
C1240  C     0.16405   0.16714   0.83485   0.00000  Uiso   1.00
C1241  C     0.27149   0.04801   0.77285   0.00000  Uiso   1.00
C1242  C     0.30889   0.06173   0.79521   0.00000  Uiso   1.00
C1243  C     0.30925   0.07550   0.84013   0.00000  Uiso   1.00
C1244  C     0.27230   0.07501   0.86282   0.00000  Uiso   1.00
C1245  C     0.23518   0.06004   0.84085   0.00000  Uiso   1.00
C1246  C     0.10228   0.28436   0.70013   0.00000  Uiso   1.00
C1247  C     0.10549   0.26897   0.65572   0.00000  Uiso   1.00
C1248  C     0.07057   0.25101   0.63162   0.00000  Uiso   1.00
C1249  C     0.03189   0.25001   0.65109   0.00000  Uiso   1.00
C1250  C     0.02797   0.26720   0.69450   0.00000  Uiso   1.00
C1251  C     0.13849   0.02419   0.72324   0.00000  Uiso   1.00
C1252  C     0.06298   0.28424   0.71901   0.00000  Uiso   1.00
C1253  C     0.24959   0.21904   0.52724   0.00000  Uiso   1.00
C1254  C     0.27395   0.25719   0.55297   0.00000  Uiso   1.00
C1255  C     0.31957   0.25858   0.54070   0.00000  Uiso   1.00
C1256  C     0.20565   0.08500   0.99141   0.00000  Uiso   1.00
C1257  C     0.22033   0.03757   0.97571   0.00000  Uiso   1.00
C1258  C     0.26704   0.03072   0.98642   0.00000  Uiso   1.00
C1259  C     0.09385   0.27071   0.95981   0.00000  Uiso   1.00
C1260  C     0.09575   0.32208   0.95032   0.00000  Uiso   1.00
C1261  C     0.05227   0.00867   0.93951   0.00000  Uiso   1.00
C1262  C     0.19556   0.30900   0.77584   0.00000  Uiso   1.00
C1263  C     0.06209   0.15219   0.50034   0.00000  Uiso   1.00
C1264  C     0.01792   0.13257   0.99857   0.00000  Uiso   1.00
C1265  C     0.32450   0.15343   0.96039   0.00000  Uiso   1.00
C1266  C     0.19676   0.02482   0.77417   0.00000  Uiso   1.00
C1267  C     0.13756   0.30826   0.72451   0.00000  Uiso   1.00
C1268  C     0.01971   0.15826   0.70987   0.00000  Uiso   1.00
Cu1269 Cu    0.16667   0.21355   0.75000   0.00000  Uiso   1.00
Cu1270 Cu    0.16667   0.11978   0.75000   0.00000  Uiso   1.00
H1271  H     0.21308   0.21469   0.61204   0.00000  Uiso   1.00
H1272  H     0.00798   0.06478   0.66379   0.00000  Uiso   1.00
H1273  H     0.03082   0.05451   0.58648   0.00000  Uiso   1.00
H1274  H     0.10523   0.03777   0.57345   0.00000  Uiso   1.00
H1275  H     0.15668   0.03166   0.63716   0.00000  Uiso   1.00
H1276  H     0.17968   0.29722   0.86152   0.00000  Uiso   1.00
H1277  H     0.22894   0.27386   0.92316   0.00000  Uiso   1.00
H1278  H     0.30323   0.25858   0.90839   0.00000  Uiso   1.00
H1279  H     0.32721   0.26421   0.83144   0.00000  Uiso   1.00
H1280  H     0.27688   0.28163   0.76882   0.00000  Uiso   1.00
H1281  H     0.27178   0.03651   0.73827   0.00000  Uiso   1.00
H1282  H     0.16299   0.09545   0.89202   0.00000  Uiso   1.00
H1283  H     0.00421   0.06173   0.77775   0.00000  Uiso   1.00
H1284  H     0.00485   0.08631   0.85736   0.00000  Uiso   1.00
H1285  H     0.27258   0.08506   0.89769   0.00000  Uiso   1.00
H1286  H     0.20789   0.05524   0.85951   0.00000  Uiso   1.00
H1287  H     0.13479   0.27167   0.63953   0.00000  Uiso   1.00
H1288  H     0.07339   0.23849   0.59766   0.00000  Uiso   1.00
H1289  H     0.00492   0.23577   0.63273   0.00000  Uiso   1.00
H1290  H     0.33121   0.26686   0.70932   0.00000  Uiso   1.00
H1291  H     0.05948   0.29779   0.75254   0.00000  Uiso   1.00
H1292  H     0.25962   0.21726   0.99236   0.00000  Uiso   1.00
H1293  H     0.14106   0.24078   0.88494   0.00000  Uiso   1.00
H1294  H     0.25724   0.18496   0.54216   0.00000  Uiso   1.00
H1295  H     0.25920   0.29093   0.54558   0.00000  Uiso   1.00
H1296  H     0.27265   0.25188   0.58941   0.00000  Uiso   1.00
H1297  H     0.00192   0.22552   0.54891   0.00000  Uiso   1.00
H1298  H     0.00265   0.28677   0.55986   0.00000  Uiso   1.00
H1299  H     0.32178   0.26512   0.50455   0.00000  Uiso   1.00
H1300  H     0.20889   0.08711   0.52848   0.00000  Uiso   1.00
H1301  H     0.22674   0.11163   0.97860   0.00000  Uiso   1.00
H1302  H     0.20260   0.01054   0.99224   0.00000  Uiso   1.00
H1303  H     0.21400   0.03380   0.93906   0.00000  Uiso   1.00
H1304  H     0.10461   0.13049   0.61342   0.00000  Uiso   1.00
H1305  H     0.28545   0.05638   0.96914   0.00000  Uiso   1.00
H1306  H     0.27660   0.32932   0.97480   0.00000  Uiso   1.00
H1307  H     0.27428   0.03430   0.52295   0.00000  Uiso   1.00
H1308  H     0.07424   0.26577   0.98882   0.00000  Uiso   1.00
H1309  H     0.07803   0.25264   0.93039   0.00000  Uiso   1.00
H1310  H     0.11011   0.00731   0.98002   0.00000  Uiso   1.00
H1311  H     0.11566   0.32748   0.92161   0.00000  Uiso   1.00
H1312  H     0.03743   0.32441   0.90955   0.00000  Uiso   1.00
H1313  H     0.05488   0.04586   0.93254   0.00000  Uiso   1.00
H1314  H     0.03214   0.00463   0.96825   0.00000  Uiso   1.00
H1315  H     0.03507   0.15282   0.67884   0.00000  Uiso   1.00
H1316  H     0.07295   0.15100   0.96581   0.00000  Uiso   1.00
H1317  H     0.06065   0.18861   0.51247   0.00000  Uiso   1.00
H1318  H     0.01924   0.09469   0.99336   0.00000  Uiso   1.00
H1319  H     0.00337   0.13988   0.53083   0.00000  Uiso   1.00
H1320  H     0.32556   0.19150   0.96251   0.00000  Uiso   1.00
H1321  H     0.29163   0.14229   0.96214   0.00000  Uiso   1.00
H1322  H     0.00274   0.14190   0.92770   0.00000  Uiso   1.00
H1323  H     0.29833   0.17755   0.82115   0.00000  Uiso   1.00
H1324  H     0.29151   0.15235   0.67877   0.00000  Uiso   1.00
H1325  H     0.04182   0.17970   0.82103   0.00000  Uiso   1.00
H1326  H     0.05867   0.05589   0.72786   0.00000  Uiso   1.00
N1327  N     0.16667   0.28402   0.75000   0.00000  Uiso   1.00
N1328  N     0.16667   0.04931   0.75000   0.00000  Uiso   1.00
O1329  O     0.10655   0.20625   0.75000   0.00000  Uiso   1.00
O1330  O     0.16286   0.09081   0.97823   0.00000  Uiso   1.00
O1331  O     0.13472   0.25455   0.97137   0.00000  Uiso   1.00
O1332  O     0.08875   0.12466   0.52793   0.00000  Uiso   1.00
O1333  O     0.22679   0.12709   0.75001   0.00000  Uiso   1.00
O1334  O     0.22679   0.20625   0.75001   0.00000  Uiso   1.00
O1335  O     0.10655   0.12709   0.75000   0.00000  Uiso   1.00
O1336  O     0.16666   0.20626   0.68573   0.00000  Uiso   1.00
O1337  O     0.16667   0.12707   0.81427   0.00000  Uiso   1.00
O1338  O     0.16667   0.20626   0.81427   0.00000  Uiso   1.00
O1339  O     0.16666   0.12707   0.68573   0.00000  Uiso   1.00
O1340  O     0.20656   0.23033   0.52469   0.00000  Uiso   1.00
C1341  C     0.42096   0.16672   0.74979   0.00000  Uiso   1.00
C1342  C     0.64699   0.17331   0.78997   0.00000  Uiso   1.00
C1343  C     0.64310   0.15820   0.70980   0.00000  Uiso   1.00
C1344  C     0.35691   0.17401   0.78997   0.00000  Uiso   1.00
C1345  C     0.51643   0.19954   0.54749   0.00000  Uiso   1.00
C1346  C     0.49089   0.13066   0.95417   0.00000  Uiso   1.00
C1347  C     0.47560   0.21272   0.95029   0.00000  Uiso   1.00
C1348  C     0.45465   0.15012   0.54831   0.00000  Uiso   1.00
C1349  C     0.52199   0.19552   0.59380   0.00000  Uiso   1.00
C1350  C     0.49273   0.12852   0.90792   0.00000  Uiso   1.00
C1351  C     0.47990   0.21021   0.90412   0.00000  Uiso   1.00
C1352  C     0.57904   0.16653   0.74997   0.00000  Uiso   1.00
C1353  C     0.46103   0.14706   0.59444   0.00000  Uiso   1.00
C1354  C     0.49546   0.16761   0.61680   0.00000  Uiso   1.00
C1355  C     0.49041   0.16862   0.88296   0.00000  Uiso   1.00
C1356  C     0.48355   0.17559   0.52447   0.00000  Uiso   1.00
C1357  C     0.48324   0.17311   0.97560   0.00000  Uiso   1.00
C1358  C     0.62368   0.16617   0.74985   0.00000  Uiso   1.00
C1359  C     0.37632   0.16664   0.74984   0.00000  Uiso   1.00
C1360  C     0.44529   0.04581   0.68744   0.00000  Uiso   1.00
C1361  C     0.40298   0.05497   0.69436   0.00000  Uiso   1.00
C1362  C     0.37399   0.05869   0.65805   0.00000  Uiso   1.00
C1363  C     0.49941   0.16655   0.66517   0.00000  Uiso   1.00
C1364  C     0.38677   0.05251   0.61450   0.00000  Uiso   1.00
C1365  C     0.42870   0.04321   0.60716   0.00000  Uiso   1.00
C1366  C     0.45800   0.04099   0.64334   0.00000  Uiso   1.00
C1367  C     0.55683   0.28665   0.81006   0.00000  Uiso   1.00
C1368  C     0.54422   0.28609   0.85420   0.00000  Uiso   1.00
C1369  C     0.57250   0.27456   0.88933   0.00000  Uiso   1.00
C1370  C     0.61437   0.26621   0.88105   0.00000  Uiso   1.00
C1371  C     0.62781   0.26911   0.83762   0.00000  Uiso   1.00
C1372  C     0.59913   0.27848   0.80212   0.00000  Uiso   1.00
C1373  C     0.56739   0.04777   0.79546   0.00000  Uiso   1.00
C1374  C     0.49739   0.16714   0.83485   0.00000  Uiso   1.00
C1375  C     0.60482   0.04801   0.77285   0.00000  Uiso   1.00
C1376  C     0.64222   0.06173   0.79521   0.00000  Uiso   1.00
C1377  C     0.64259   0.07550   0.84013   0.00000  Uiso   1.00
C1378  C     0.60563   0.07501   0.86282   0.00000  Uiso   1.00
C1379  C     0.56851   0.06004   0.84085   0.00000  Uiso   1.00
C1380  C     0.43561   0.28436   0.70013   0.00000  Uiso   1.00
C1381  C     0.43882   0.26897   0.65572   0.00000  Uiso   1.00
C1382  C     0.40390   0.25101   0.63162   0.00000  Uiso   1.00
C1383  C     0.36522   0.25001   0.65109   0.00000  Uiso   1.00
C1384  C     0.36130   0.26720   0.69450   0.00000  Uiso   1.00
C1385  C     0.47182   0.02419   0.72324   0.00000  Uiso   1.00
C1386  C     0.39631   0.28424   0.71901   0.00000  Uiso   1.00
C1387  C     0.58292   0.21904   0.52724   0.00000  Uiso   1.00
C1388  C     0.60728   0.25719   0.55297   0.00000  Uiso   1.00
C1389  C     0.65291   0.25858   0.54070   0.00000  Uiso   1.00
C1390  C     0.53899   0.08500   0.99141   0.00000  Uiso   1.00
C1391  C     0.55366   0.03757   0.97571   0.00000  Uiso   1.00
C1392  C     0.60037   0.03072   0.98642   0.00000  Uiso   1.00
C1393  C     0.42718   0.27071   0.95981   0.00000  Uiso   1.00
C1394  C     0.42908   0.32208   0.95032   0.00000  Uiso   1.00
C1395  C     0.38560   0.00867   0.93951   0.00000  Uiso   1.00
C1396  C     0.52890   0.30900   0.77584   0.00000  Uiso   1.00
C1397  C     0.39543   0.15219   0.50034   0.00000  Uiso   1.00
C1398  C     0.35125   0.13257   0.99857   0.00000  Uiso   1.00
C1399  C     0.65783   0.15343   0.96039   0.00000  Uiso   1.00
C1400  C     0.53009   0.02482   0.77417   0.00000  Uiso   1.00
C1401  C     0.47089   0.30826   0.72451   0.00000  Uiso   1.00
C1402  C     0.35304   0.15826   0.70987   0.00000  Uiso   1.00
Cu1403 Cu    0.50000   0.21355   0.75000   0.00000  Uiso   1.00
Cu1404 Cu    0.50000   0.11978   0.75000   0.00000  Uiso   1.00
H1405  H     0.54642   0.21469   0.61204   0.00000  Uiso   1.00
H1406  H     0.34132   0.06478   0.66379   0.00000  Uiso   1.00
H1407  H     0.36416   0.05451   0.58648   0.00000  Uiso   1.00
H1408  H     0.43856   0.03777   0.57345   0.00000  Uiso   1.00
H1409  H     0.49001   0.03166   0.63716   0.00000  Uiso   1.00
H1410  H     0.51302   0.29722   0.86152   0.00000  Uiso   1.00
H1411  H     0.56227   0.27386   0.92316   0.00000  Uiso   1.00
H1412  H     0.63656   0.25858   0.90839   0.00000  Uiso   1.00
H1413  H     0.66055   0.26421   0.83144   0.00000  Uiso   1.00
H1414  H     0.61021   0.28163   0.76882   0.00000  Uiso   1.00
H1415  H     0.60511   0.03651   0.73827   0.00000  Uiso   1.00
H1416  H     0.49632   0.09545   0.89202   0.00000  Uiso   1.00
H1417  H     0.33755   0.06173   0.77775   0.00000  Uiso   1.00
H1418  H     0.33819   0.08631   0.85736   0.00000  Uiso   1.00
H1419  H     0.60591   0.08506   0.89769   0.00000  Uiso   1.00
H1420  H     0.54122   0.05524   0.85951   0.00000  Uiso   1.00
H1421  H     0.46812   0.27167   0.63953   0.00000  Uiso   1.00
H1422  H     0.40672   0.23849   0.59766   0.00000  Uiso   1.00
H1423  H     0.33825   0.23577   0.63273   0.00000  Uiso   1.00
H1424  H     0.66454   0.26686   0.70932   0.00000  Uiso   1.00
H1425  H     0.39282   0.29779   0.75254   0.00000  Uiso   1.00
H1426  H     0.59295   0.21726   0.99236   0.00000  Uiso   1.00
H1427  H     0.47440   0.24078   0.88494   0.00000  Uiso   1.00
H1428  H     0.59058   0.18496   0.54216   0.00000  Uiso   1.00
H1429  H     0.59253   0.29093   0.54558   0.00000  Uiso   1.00
H1430  H     0.60598   0.25188   0.58941   0.00000  Uiso   1.00
H1431  H     0.33525   0.22552   0.54891   0.00000  Uiso   1.00
H1432  H     0.33599   0.28677   0.55986   0.00000  Uiso   1.00
H1433  H     0.65511   0.26512   0.50455   0.00000  Uiso   1.00
H1434  H     0.54223   0.08711   0.52848   0.00000  Uiso   1.00
H1435  H     0.56008   0.11163   0.97860   0.00000  Uiso   1.00
H1436  H     0.53593   0.01054   0.99224   0.00000  Uiso   1.00
H1437  H     0.54733   0.03380   0.93906   0.00000  Uiso   1.00
H1438  H     0.43794   0.13049   0.61342   0.00000  Uiso   1.00
H1439  H     0.61879   0.05638   0.96914   0.00000  Uiso   1.00
H1440  H     0.60993   0.32932   0.97480   0.00000  Uiso   1.00
H1441  H     0.60761   0.03430   0.52295   0.00000  Uiso   1.00
H1442  H     0.40757   0.26577   0.98882   0.00000  Uiso   1.00
H1443  H     0.41137   0.25264   0.93039   0.00000  Uiso   1.00
H1444  H     0.44345   0.00731   0.98002   0.00000  Uiso   1.00
H1445  H     0.44899   0.32748   0.92161   0.00000  Uiso   1.00
H1446  H     0.37076   0.32441   0.90955   0.00000  Uiso   1.00
H1447  H     0.38821   0.04586   0.93254   0.00000  Uiso   1.00
H1448  H     0.36548   0.00463   0.96825   0.00000  Uiso   1.00
H1449  H     0.36840   0.15282   0.67884   0.00000  Uiso   1.00
H1450  H     0.40629   0.15100   0.96581   0.00000  Uiso   1.00
H1451  H     0.39398   0.18861   0.51247   0.00000  Uiso   1.00
H1452  H     0.35257   0.09469   0.99336   0.00000  Uiso   1.00
H1453  H     0.33670   0.13988   0.53083   0.00000  Uiso   1.00
H1454  H     0.65889   0.19150   0.96251   0.00000  Uiso   1.00
H1455  H     0.62497   0.14229   0.96214   0.00000  Uiso   1.00
H1456  H     0.33607   0.14190   0.92770   0.00000  Uiso   1.00
H1457  H     0.63166   0.17755   0.82115   0.00000  Uiso   1.00
H1458  H     0.62485   0.15235   0.67877   0.00000  Uiso   1.00
H1459  H     0.37515   0.17970   0.82103   0.00000  Uiso   1.00
H1460  H     0.39200   0.05589   0.72786   0.00000  Uiso   1.00
N1461  N     0.50000   0.28402   0.75000   0.00000  Uiso   1.00
N1462  N     0.50000   0.04931   0.75000   0.00000  Uiso   1.00
O1463  O     0.43988   0.20625   0.75000   0.00000  Uiso   1.00
O1464  O     0.49619   0.09081   0.97823   0.00000  Uiso   1.00
O1465  O     0.46805   0.25455   0.97137   0.00000  Uiso   1.00
O1466  O     0.42208   0.12466   0.52793   0.00000  Uiso   1.00
O1467  O     0.56012   0.12709   0.75001   0.00000  Uiso   1.00
O1468  O     0.56012   0.20625   0.75001   0.00000  Uiso   1.00
O1469  O     0.43988   0.12709   0.75000   0.00000  Uiso   1.00
O1470  O     0.50000   0.20626   0.68573   0.00000  Uiso   1.00
O1471  O     0.50000   0.12707   0.81427   0.00000  Uiso   1.00
O1472  O     0.50000   0.20626   0.81427   0.00000  Uiso   1.00
O1473  O     0.50000   0.12707   0.68573   0.00000  Uiso   1.00
O1474  O     0.53989   0.23033   0.52469   0.00000  Uiso   1.00
C1475  C     0.75429   0.16672   0.74979   0.00000  Uiso   1.00
C1476  C     0.98033   0.17331   0.78997   0.00000  Uiso   1.00
C1477  C     0.97643   0.15820   0.70980   0.00000  Uiso   1.00
C1478  C     0.69024   0.17401   0.78997   0.00000  Uiso   1.00
C1479  C     0.84977   0.19954   0.54749   0.00000  Uiso   1.00
C1480  C     0.82423   0.13066   0.95417   0.00000  Uiso   1.00
C1481  C     0.80893   0.21272   0.95029   0.00000  Uiso   1.00
C1482  C     0.78799   0.15012   0.54831   0.00000  Uiso   1.00
C1483  C     0.85532   0.19552   0.59380   0.00000  Uiso   1.00
C1484  C     0.82606   0.12852   0.90792   0.00000  Uiso   1.00
C1485  C     0.81323   0.21021   0.90412   0.00000  Uiso   1.00
C1486  C     0.91237   0.16653   0.74997   0.00000  Uiso   1.00
C1487  C     0.79437   0.14706   0.59444   0.00000  Uiso   1.00
C1488  C     0.82879   0.16761   0.61680   0.00000  Uiso   1.00
C1489  C     0.82374   0.16862   0.88296   0.00000  Uiso   1.00
C1490  C     0.81689   0.17559   0.52447   0.00000  Uiso   1.00
C1491  C     0.81657   0.17311   0.97560   0.00000  Uiso   1.00
C1492  C     0.95701   0.16617   0.74985   0.00000  Uiso   1.00
C1493  C     0.70966   0.16664   0.74984   0.00000  Uiso   1.00
C1494  C     0.77862   0.04581   0.68744   0.00000  Uiso   1.00
C1495  C     0.73631   0.05497   0.69436   0.00000  Uiso   1.00
C1496  C     0.70732   0.05869   0.65805   0.00000  Uiso   1.00
C1497  C     0.83275   0.16655   0.66517   0.00000  Uiso   1.00
C1498  C     0.72010   0.05251   0.61450   0.00000  Uiso   1.00
C1499  C     0.76204   0.04321   0.60716   0.00000  Uiso   1.00
C1500  C     0.79134   0.04099   0.64334   0.00000  Uiso   1.00
C1501  C     0.89016   0.28665   0.81006   0.00000  Uiso   1.00
C1502  C     0.87756   0.28609   0.85420   0.00000  Uiso   1.00
C1503  C     0.90583   0.27456   0.88933   0.00000  Uiso   1.00
C1504  C     0.94770   0.26621   0.88105   0.00000  Uiso   1.00
C1505  C     0.96115   0.26911   0.83762   0.00000  Uiso   1.00
C1506  C     0.93246   0.27848   0.80212   0.00000  Uiso   1.00
C1507  C     0.90072   0.04777   0.79546   0.00000  Uiso   1.00
C1508  C     0.83072   0.16714   0.83485   0.00000  Uiso   1.00
C1509  C     0.93815   0.04801   0.77285   0.00000  Uiso   1.00
C1510  C     0.97555   0.06173   0.79521   0.00000  Uiso   1.00
C1511  C     0.97592   0.07550   0.84013   0.00000  Uiso   1.00
C1512  C     0.93896   0.07501   0.86282   0.00000  Uiso   1.00
C1513  C     0.90184   0.06004   0.84085   0.00000  Uiso   1.00
C1514  C     0.76895   0.28436   0.70013   0.00000  Uiso   1.00
C1515  C     0.77215   0.26897   0.65572   0.00000  Uiso   1.00
C1516  C     0.73723   0.25101   0.63162   0.00000  Uiso   1.00
C1517  C     0.69856   0.25001   0.65109   0.00000  Uiso   1.00
C1518  C     0.69463   0.26720   0.69450   0.00000  Uiso   1.00
C1519  C     0.80516   0.02419   0.72324   0.00000  Uiso   1.00
C1520  C     0.72964   0.28424   0.71901   0.00000  Uiso   1.00
C1521  C     0.91626   0.21904   0.52724   0.00000  Uiso   1.00
C1522  C     0.94062   0.25719   0.55297   0.00000  Uiso   1.00
C1523  C     0.98624   0.25858   0.54070   0.00000  Uiso   1.00
C1524  C     0.87232   0.08500   0.99141   0.00000  Uiso   1.00
C1525  C     0.88700   0.03757   0.97571   0.00000  Uiso   1.00
C1526  C     0.93370   0.03072   0.98642   0.00000  Uiso   1.00
C1527  C     0.76051   0.27071   0.95981   0.00000  Uiso   1.00
C1528  C     0.76242   0.32208   0.95032   0.00000  Uiso   1.00
C1529  C     0.71894   0.00867   0.93951   0.00000  Uiso   1.00
C1530  C     0.86223   0.30900   0.77584   0.00000  Uiso   1.00
C1531  C     0.72876   0.15219   0.50034   0.00000  Uiso   1.00
C1532  C     0.68458   0.13257   0.99857   0.00000  Uiso   1.00
C1533  C     0.99116   0.15343   0.96039   0.00000  Uiso   1.00
C1534  C     0.86343   0.02482   0.77417   0.00000  Uiso   1.00
C1535  C     0.80423   0.30826   0.72451   0.00000  Uiso   1.00
C1536  C     0.68638   0.15826   0.70987   0.00000  Uiso   1.00
Cu1537 Cu    0.83333   0.21355   0.75000   0.00000  Uiso   1.00
Cu1538 Cu    0.83333   0.11978   0.75000   0.00000  Uiso   1.00
H1539  H     0.87975   0.21469   0.61204   0.00000  Uiso   1.00
H1540  H     0.67465   0.06478   0.66379   0.00000  Uiso   1.00
H1541  H     0.69749   0.05451   0.58648   0.00000  Uiso   1.00
H1542  H     0.77189   0.03777   0.57345   0.00000  Uiso   1.00
H1543  H     0.82334   0.03166   0.63716   0.00000  Uiso   1.00
H1544  H     0.84635   0.29722   0.86152   0.00000  Uiso   1.00
H1545  H     0.89560   0.27386   0.92316   0.00000  Uiso   1.00
H1546  H     0.96990   0.25858   0.90839   0.00000  Uiso   1.00
H1547  H     0.99388   0.26421   0.83144   0.00000  Uiso   1.00
H1548  H     0.94354   0.28163   0.76882   0.00000  Uiso   1.00
H1549  H     0.93845   0.03651   0.73827   0.00000  Uiso   1.00
H1550  H     0.82966   0.09545   0.89202   0.00000  Uiso   1.00
H1551  H     0.67088   0.06173   0.77775   0.00000  Uiso   1.00
H1552  H     0.67152   0.08631   0.85736   0.00000  Uiso   1.00
H1553  H     0.93924   0.08506   0.89769   0.00000  Uiso   1.00
H1554  H     0.87456   0.05524   0.85951   0.00000  Uiso   1.00
H1555  H     0.80146   0.27167   0.63953   0.00000  Uiso   1.00
H1556  H     0.74005   0.23849   0.59766   0.00000  Uiso   1.00
H1557  H     0.67159   0.23577   0.63273   0.00000  Uiso   1.00
H1558  H     0.99788   0.26686   0.70932   0.00000  Uiso   1.00
H1559  H     0.72615   0.29779   0.75254   0.00000  Uiso   1.00
H1560  H     0.92629   0.21726   0.99236   0.00000  Uiso   1.00
H1561  H     0.80773   0.24078   0.88494   0.00000  Uiso   1.00
H1562  H     0.92391   0.18496   0.54216   0.00000  Uiso   1.00
H1563  H     0.92586   0.29093   0.54558   0.00000  Uiso   1.00
H1564  H     0.93932   0.25188   0.58941   0.00000  Uiso   1.00
H1565  H     0.66859   0.22552   0.54891   0.00000  Uiso   1.00
H1566  H     0.66932   0.28677   0.55986   0.00000  Uiso   1.00
H1567  H     0.98844   0.26512   0.50455   0.00000  Uiso   1.00
H1568  H     0.87556   0.08711   0.52848   0.00000  Uiso   1.00
H1569  H     0.89341   0.11163   0.97860   0.00000  Uiso   1.00
H1570  H     0.86927   0.01054   0.99224   0.00000  Uiso   1.00
H1571  H     0.88066   0.03380   0.93906   0.00000  Uiso   1.00
H1572  H     0.77128   0.13049   0.61342   0.00000  Uiso   1.00
H1573  H     0.95212   0.05638   0.96914   0.00000  Uiso   1.00
H1574  H     0.94327   0.32932   0.97480   0.00000  Uiso   1.00
H1575  H     0.94095   0.03430   0.52295   0.00000  Uiso   1.00
H1576  H     0.74090   0.26577   0.98882   0.00000  Uiso   1.00
H1577  H     0.74470   0.25264   0.93039   0.00000  Uiso   1.00
H1578  H     0.77678   0.00731   0.98002   0.00000  Uiso   1.00
H1579  H     0.78232   0.32748   0.92161   0.00000  Uiso   1.00
H1580  H     0.70410   0.32441   0.90955   0.00000  Uiso   1.00
H1581  H     0.72154   0.04586   0.93254   0.00000  Uiso   1.00
H1582  H     0.69881   0.00463   0.96825   0.00000  Uiso   1.00
H1583  H     0.70173   0.15282   0.67884   0.00000  Uiso   1.00
H1584  H     0.73962   0.15100   0.96581   0.00000  Uiso   1.00
H1585  H     0.72732   0.18861   0.51247   0.00000  Uiso   1.00
H1586  H     0.68590   0.09469   0.99336   0.00000  Uiso   1.00
H1587  H     0.67003   0.13988   0.53083   0.00000  Uiso   1.00
H1588  H     0.99223   0.19150   0.96251   0.00000  Uiso   1.00
H1589  H     0.95830   0.14229   0.96214   0.00000  Uiso   1.00
H1590  H     0.66941   0.14190   0.92770   0.00000  Uiso   1.00
H1591  H     0.96500   0.17755   0.82115   0.00000  Uiso   1.00
H1592  H     0.95818   0.15235   0.67877   0.00000  Uiso   1.00
H1593  H     0.70848   0.17970   0.82103   0.00000  Uiso   1.00
H1594  H     0.72533   0.05589   0.72786   0.00000  Uiso   1.00
N1595  N     0.83333   0.28402   0.75000   0.00000  Uiso   1.00
N1596  N     0.83333   0.04931   0.75000   0.00000  Uiso   1.00
O1597  O     0.77321   0.20625   0.75000   0.00000  Uiso   1.00
O1598  O     0.82953   0.09081   0.97823   0.00000  Uiso   1.00
O1599  O     0.80139   0.25455   0.97137   0.00000  Uiso   1.00
O1600  O     0.75541   0.12466   0.52793   0.00000  Uiso   1.00
O1601  O     0.89345   0.12709   0.75001   0.00000  Uiso   1.00
O1602  O     0.89345   0.20625   0.75001   0.00000  Uiso   1.00
O1603  O     0.77321   0.12709   0.75000   0.00000  Uiso   1.00
O1604  O     0.83333   0.20626   0.68573   0.00000  Uiso   1.00
O1605  O     0.83334   0.12707   0.81427   0.00000  Uiso   1.00
O1606  O     0.83334   0.20626   0.81427   0.00000  Uiso   1.00
O1607  O     0.83333   0.12707   0.68573   0.00000  Uiso   1.00
O1608  O     0.87323   0.23033   0.52469   0.00000  Uiso   1.00
C1609  C     0.08762   0.50005   0.74979   0.00000  Uiso   1.00
C1610  C     0.31366   0.50664   0.78997   0.00000  Uiso   1.00
C1611  C     0.30977   0.49153   0.70980   0.00000  Uiso   1.00
C1612  C     0.02357   0.50734   0.78997   0.00000  Uiso   1.00
C1613  C     0.18310   0.53287   0.54749   0.00000  Uiso   1.00
C1614  C     0.15756   0.46400   0.95417   0.00000  Uiso   1.00
C1615  C     0.14227   0.54605   0.95029   0.00000  Uiso   1.00
C1616  C     0.12132   0.48345   0.54831   0.00000  Uiso   1.00
C1617  C     0.18865   0.52885   0.59380   0.00000  Uiso   1.00
C1618  C     0.15940   0.46185   0.90792   0.00000  Uiso   1.00
C1619  C     0.14656   0.54355   0.90412   0.00000  Uiso   1.00
C1620  C     0.24570   0.49987   0.74997   0.00000  Uiso   1.00
C1621  C     0.12770   0.48039   0.59444   0.00000  Uiso   1.00
C1622  C     0.16212   0.50094   0.61680   0.00000  Uiso   1.00
C1623  C     0.15707   0.50196   0.88296   0.00000  Uiso   1.00
C1624  C     0.15022   0.50893   0.52447   0.00000  Uiso   1.00
C1625  C     0.14990   0.50644   0.97560   0.00000  Uiso   1.00
C1626  C     0.29035   0.49951   0.74985   0.00000  Uiso   1.00
C1627  C     0.04299   0.49997   0.74984   0.00000  Uiso   1.00
C1628  C     0.11195   0.37915   0.68744   0.00000  Uiso   1.00
C1629  C     0.06965   0.38830   0.69436   0.00000  Uiso   1.00
C1630  C     0.04065   0.39202   0.65805   0.00000  Uiso   1.00
C1631  C     0.16608   0.49989   0.66517   0.00000  Uiso   1.00
C1632  C     0.05343   0.38585   0.61450   0.00000  Uiso   1.00
C1633  C     0.09537   0.37654   0.60716   0.00000  Uiso   1.00
C1634  C     0.12467   0.37432   0.64334   0.00000  Uiso   1.00
C1635  C     0.22350   0.61999   0.81006   0.00000  Uiso   1.00
C1636  C     0.21089   0.61943   0.85420   0.00000  Uiso   1.00
C1637  C     0.23916   0.60789   0.88933   0.00000  Uiso   1.00
C1638  C     0.28104   0.59954   0.88105   0.00000  Uiso   1.00
C1639  C     0.29448   0.60244   0.83762   0.00000  Uiso   1.00
C1640  C     0.26580   0.61181   0.80212   0.00000  Uiso   1.00
C1641  C     0.23405   0.38111   0.79546   0.00000  Uiso   1.00
C1642  C     0.16405   0.50047   0.83485   0.00000  Uiso   1.00
C1643  C     0.27149   0.38135   0.77285   0.00000  Uiso   1.00
C1644  C     0.30889   0.39507   0.79521   0.00000  Uiso   1.00
C1645  C     0.30925   0.40883   0.84013   0.00000  Uiso   1.00
C1646  C     0.27230   0.40834   0.86282   0.00000  Uiso   1.00
C1647  C     0.23518   0.39337   0.84085   0.00000  Uiso   1.00
C1648  C     0.10228   0.61770   0.70013   0.00000  Uiso   1.00
C1649  C     0.10549   0.60230   0.65572   0.00000  Uiso   1.00
C1650  C     0.07057   0.58435   0.63162   0.00000  Uiso   1.00
C1651  C     0.03189   0.58335   0.65109   0.00000  Uiso   1.00
C1652  C     0.02797   0.60053   0.69450   0.00000  Uiso   1.00
C1653  C     0.13849   0.35752   0.72324   0.00000  Uiso   1.00
C1654  C     0.06298   0.61757   0.71901   0.00000  Uiso   1.00
C1655  C     0.24959   0.55238   0.52724   0.00000  Uiso   1.00
C1656  C     0.27395   0.59053   0.55297   0.00000  Uiso   1.00
C1657  C     0.31957   0.59192   0.54070   0.00000  Uiso   1.00
C1658  C     0.20565   0.41834   0.99141   0.00000  Uiso   1.00
C1659  C     0.22033   0.37090   0.97571   0.00000  Uiso   1.00
C1660  C     0.26704   0.36406   0.98642   0.00000  Uiso   1.00
C1661  C     0.09385   0.60404   0.95981   0.00000  Uiso   1.00
C1662  C     0.09575   0.65542   0.95032   0.00000  Uiso   1.00
C1663  C     0.05227   0.34200   0.93951   0.00000  Uiso   1.00
C1664  C     0.19556   0.64233   0.77584   0.00000  Uiso   1.00
C1665  C     0.06209   0.48553   0.50034   0.00000  Uiso   1.00
C1666  C     0.01792   0.46590   0.99857   0.00000  Uiso   1.00
C1667  C     0.32450   0.48676   0.96039   0.00000  Uiso   1.00
C1668  C     0.19676   0.35815   0.77417   0.00000  Uiso   1.00
C1669  C     0.13756   0.64160   0.72451   0.00000  Uiso   1.00
C1670  C     0.01971   0.49159   0.70987   0.00000  Uiso   1.00
Cu1671 Cu    0.16667   0.54689   0.75000   0.00000  Uiso   1.00
Cu1672 Cu    0.16667   0.45311   0.75000   0.00000  Uiso   1.00
H1673  H     0.21308   0.54802   0.61204   0.00000  Uiso   1.00
H1674  H     0.00798   0.39811   0.66379   0.00000  Uiso   1.00
H1675  H     0.03082   0.38785   0.58648   0.00000  Uiso   1.00
H1676  H     0.10523   0.37110   0.57345   0.00000  Uiso   1.00
H1677  H     0.15668   0.36499   0.63716   0.00000  Uiso   1.00
H1678  H     0.17968   0.63055   0.86152   0.00000  Uiso   1.00
H1679  H     0.22894   0.60719   0.92316   0.00000  Uiso   1.00
H1680  H     0.30323   0.59191   0.90839   0.00000  Uiso   1.00
H1681  H     0.32721   0.59755   0.83144   0.00000  Uiso   1.00
H1682  H     0.27688   0.61497   0.76882   0.00000  Uiso   1.00
H1683  H     0.27178   0.36984   0.73827   0.00000  Uiso   1.00
H1684  H     0.16299   0.42878   0.89202   0.00000  Uiso   1.00
H1685  H     0.00421   0.39507   0.77775   0.00000  Uiso   1.00
H1686  H     0.00485   0.41965   0.85736   0.00000  Uiso   1.00
H1687  H     0.27258   0.41839   0.89769   0.00000  Uiso   1.00
H1688  H     0.20789   0.38858   0.85951   0.00000  Uiso   1.00
H1689  H     0.13479   0.60501   0.63953   0.00000  Uiso   1.00
H1690  H     0.07339   0.57182   0.59766   0.00000  Uiso   1.00
H1691  H     0.00492   0.56911   0.63273   0.00000  Uiso   1.00
H1692  H     0.33121   0.60020   0.70932   0.00000  Uiso   1.00
H1693  H     0.05948   0.63112   0.75254   0.00000  Uiso   1.00
H1694  H     0.25962   0.55059   0.99236   0.00000  Uiso   1.00
H1695  H     0.14106   0.57411   0.88494   0.00000  Uiso   1.00
H1696  H     0.25724   0.51829   0.54216   0.00000  Uiso   1.00
H1697  H     0.25920   0.62426   0.54558   0.00000  Uiso   1.00
H1698  H     0.27265   0.58521   0.58941   0.00000  Uiso   1.00
H1699  H     0.00192   0.55886   0.54891   0.00000  Uiso   1.00
H1700  H     0.00265   0.62010   0.55986   0.00000  Uiso   1.00
H1701  H     0.32178   0.59846   0.50455   0.00000  Uiso   1.00
H1702  H     0.20889   0.42044   0.52848   0.00000  Uiso   1.00
H1703  H     0.22674   0.44496   0.97860   0.00000  Uiso   1.00
H1704  H     0.20260   0.34387   0.99224   0.00000  Uiso   1.00
H1705  H     0.21400   0.36713   0.93906   0.00000  Uiso   1.00
H1706  H     0.10461   0.46382   0.61342   0.00000  Uiso   1.00
H1707  H     0.28545   0.38971   0.96914   0.00000  Uiso   1.00
H1708  H     0.27660   0.66265   0.97480   0.00000  Uiso   1.00
H1709  H     0.27428   0.36763   0.52295   0.00000  Uiso   1.00
H1710  H     0.07424   0.59911   0.98882   0.00000  Uiso   1.00
H1711  H     0.07803   0.58598   0.93039   0.00000  Uiso   1.00
H1712  H     0.11011   0.34065   0.98002   0.00000  Uiso   1.00
H1713  H     0.11566   0.66082   0.92161   0.00000  Uiso   1.00
H1714  H     0.03743   0.65774   0.90955   0.00000  Uiso   1.00
H1715  H     0.05488   0.37919   0.93254   0.00000  Uiso   1.00
H1716  H     0.03214   0.33796   0.96825   0.00000  Uiso   1.00
H1717  H     0.03507   0.48616   0.67884   0.00000  Uiso   1.00
H1718  H     0.07295   0.48433   0.96581   0.00000  Uiso   1.00
H1719  H     0.06065   0.52195   0.51247   0.00000  Uiso   1.00
H1720  H     0.01924   0.42802   0.99336   0.00000  Uiso   1.00
H1721  H     0.00337   0.47321   0.53083   0.00000  Uiso   1.00
H1722  H     0.32556   0.52483   0.96251   0.00000  Uiso   1.00
H1723  H     0.29163   0.47563   0.96214   0.00000  Uiso   1.00
H1724  H     0.00274   0.47524   0.92770   0.00000  Uiso   1.00
H1725  H     0.29833   0.51089   0.82115   0.00000  Uiso   1.00
H1726  H     0.29151   0.48568   0.67877   0.00000  Uiso   1.00
H1727  H     0.04182   0.51303   0.82103   0.00000  Uiso   1.00
H1728  H     0.05867   0.38922   0.72786   0.00000  Uiso   1.00
N1729  N     0.16667   0.61736   0.75000   0.00000  Uiso   1.00
N1730  N     0.16667   0.38264   0.75000   0.00000  Uiso   1.00
O1731  O     0.10655   0.53958   0.75000   0.00000  Uiso   1.00
O1732  O     0.16286   0.42414   0.97823   0.00000  Uiso   1.00
O1733  O     0.13472   0.58788   0.97137   0.00000  Uiso   1.00
O1734  O     0.08875   0.45800   0.52793   0.00000  Uiso   1.00
O1735  O     0.22679   0.46042   0.75001   0.00000  Uiso   1.00
O1736  O     0.22679   0.53958   0.75001   0.00000  Uiso   1.00
O1737  O     0.10655   0.46042   0.75000   0.00000  Uiso   1.00
O1738  O     0.16666   0.53959   0.68573   0.00000  Uiso   1.00
O1739  O     0.16667   0.46041   0.81427   0.00000  Uiso   1.00
O1740  O     0.16667   0.53959   0.81427   0.00000  Uiso   1.00
O1741  O     0.16666   0.46041   0.68573   0.00000  Uiso   1.00
O1742  O     0.20656   0.56366   0.52469   0.00000  Uiso   1.00
C1743  C     0.42096   0.50005   0.74979   0.00000  Uiso   1.00
C1744  C     0.64699   0.50664   0.78997   0.00000  Uiso   1.00
C1745  C     0.64310   0.49153   0.70980   0.00000  Uiso   1.00
C1746  C     0.35691   0.50734   0.78997   0.00000  Uiso   1.00
C1747  C     0.51643   0.53287   0.54749   0.00000  Uiso   1.00
C1748  C     0.49089   0.46400   0.95417   0.00000  Uiso   1.00
C1749  C     0.47560   0.54605   0.95029   0.00000  Uiso   1.00
C1750  C     0.45465   0.48345   0.54831   0.00000  Uiso   1.00
C1751  C     0.52199   0.52885   0.59380   0.00000  Uiso   1.00
C1752  C     0.49273   0.46185   0.90792   0.00000  Uiso   1.00
C1753  C     0.47990   0.54355   0.90412   0.00000  Uiso   1.00
C1754  C     0.57904   0.49987   0.74997   0.00000  Uiso   1.00
C1755  C     0.46103   0.48039   0.59444   0.00000  Uiso   1.00
C1756  C     0.49546   0.50094   0.61680   0.00000  Uiso   1.00
C1757  C     0.49041   0.50196   0.88296   0.00000  Uiso   1.00
C1758  C     0.48355   0.50893   0.52447   0.00000  Uiso   1.00
C1759  C     0.48324   0.50644   0.97560   0.00000  Uiso   1.00
C1760  C     0.62368   0.49951   0.74985   0.00000  Uiso   1.00
C1761  C     0.37632   0.49997   0.74984   0.00000  Uiso   1.00
C1762  C     0.44529   0.37915   0.68744   0.00000  Uiso   1.00
C1763  C     0.40298   0.38830   0.69436   0.00000  Uiso   1.00
C1764  C     0.37399   0.39202   0.65805   0.00000  Uiso   1.00
C1765  C     0.49941   0.49989   0.66517   0.00000  Uiso   1.00
C1766  C     0.38677   0.38585   0.61450   0.00000  Uiso   1.00
C1767  C     0.42870   0.37654   0.60716   0.00000  Uiso   1.00
C1768  C     0.45800   0.37432   0.64334   0.00000  Uiso   1.00
C1769  C     0.55683   0.61999   0.81006   0.00000  Uiso   1.00
C1770  C     0.54422   0.61943   0.85420   0.00000  Uiso   1.00
C1771  C     0.57250   0.60789   0.88933   0.00000  Uiso   1.00
C1772  C     0.61437   0.59954   0.88105   0.00000  Uiso   1.00
C1773  C     0.62781   0.60244   0.83762   0.00000  Uiso   1.00
C1774  C     0.59913   0.61181   0.80212   0.00000  Uiso   1.00
C1775  C     0.56739   0.38111   0.79546   0.00000  Uiso   1.00
C1776  C     0.49739   0.50047   0.83485   0.00000  Uiso   1.00
C1777  C     0.60482   0.38135   0.77285   0.00000  Uiso   1.00
C1778  C     0.64222   0.39507   0.79521   0.00000  Uiso   1.00
C1779  C     0.64259   0.40883   0.84013   0.00000  Uiso   1.00
C1780  C     0.60563   0.40834   0.86282   0.00000  Uiso   1.00
C1781  C     0.56851   0.39337   0.84085   0.00000  Uiso   1.00
C1782  C     0.43561   0.61770   0.70013   0.00000  Uiso   1.00
C1783  C     0.43882   0.60230   0.65572   0.00000  Uiso   1.00
C1784  C     0.40390   0.58435   0.63162   0.00000  Uiso   1.00
C1785  C     0.36522   0.58335   0.65109   0.00000  Uiso   1.00
C1786  C     0.36130   0.60053   0.69450   0.00000  Uiso   1.00
C1787  C     0.47182   0.35752   0.72324   0.00000  Uiso   1.00
C1788  C     0.39631   0.61757   0.71901   0.00000  Uiso   1.00
C1789  C     0.58292   0.55238   0.52724   0.00000  Uiso   1.00
C1790  C     0.60728   0.59053   0.55297   0.00000  Uiso   1.00
C1791  C     0.65291   0.59192   0.54070   0.00000  Uiso   1.00
C1792  C     0.53899   0.41834   0.99141   0.00000  Uiso   1.00
C1793  C     0.55366   0.37090   0.97571   0.00000  Uiso   1.00
C1794  C     0.60037   0.36406   0.98642   0.00000  Uiso   1.00
C1795  C     0.42718   0.60404   0.95981   0.00000  Uiso   1.00
C1796  C     0.42908   0.65542   0.95032   0.00000  Uiso   1.00
C1797  C     0.38560   0.34200   0.93951   0.00000  Uiso   1.00
C1798  C     0.52890   0.64233   0.77584   0.00000  Uiso   1.00
C1799  C     0.39543   0.48553   0.50034   0.00000  Uiso   1.00
C1800  C     0.35125   0.46590   0.99857   0.00000  Uiso   1.00
C1801  C     0.65783   0.48676   0.96039   0.00000  Uiso   1.00
C1802  C     0.53009   0.35815   0.77417   0.00000  Uiso   1.00
C1803  C     0.47089   0.64160   0.72451   0.00000  Uiso   1.00
C1804  C     0.35304   0.49159   0.70987   0.00000  Uiso   1.00
Cu1805 Cu    0.50000   0.54689   0.75000   0.00000  Uiso   1.00
Cu1806 Cu    0.50000   0.45311   0.75000   0.00000  Uiso   1.00
H1807  H     0.54642   0.54802   0.61204   0.00000  Uiso   1.00
H1808  H     0.34132   0.39811   0.66379   0.00000  Uiso   1.00
H1809  H     0.36416   0.38785   0.58648   0.00000  Uiso   1.00
H1810  H     0.43856   0.37110   0.57345   0.00000  Uiso   1.00
H1811  H     0.49001   0.36499   0.63716   0.00000  Uiso   1.00
H1812  H     0.51302   0.63055   0.86152   0.00000  Uiso   1.00
H1813  H     0.56227   0.60719   0.92316   0.00000  Uiso   1.00
H1814  H     0.63656   0.59191   0.90839   0.00000  Uiso   1.00
H1815  H     0.66055   0.59755   0.83144   0.00000  Uiso   1.00
H1816  H     0.61021   0.61497   0.76882   0.00000  Uiso   1.00
H1817  H     0.60511   0.36984   0.73827   0.00000  Uiso   1.00
H1818  H     0.49632   0.42878   0.89202   0.00000  Uiso   1.00
H1819  H     0.33755   0.39507   0.77775   0.00000  Uiso   1.00
H1820  H     0.33819   0.41965   0.85736   0.00000  Uiso   1.00
H1821  H     0.60591   0.41839   0.89769   0.00000  Uiso   1.00
H1822  H     0.54122   0.38858   0.85951   0.00000  Uiso   1.00
H1823  H     0.46812   0.60501   0.63953   0.00000  Uiso   1.00
H1824  H     0.40672   0.57182   0.59766   0.00000  Uiso   1.00
H1825  H     0.33825   0.56911   0.63273   0.00000  Uiso   1.00
H1826  H     0.66454   0.60020   0.70932   0.00000  Uiso   1.00
H1827  H     0.39282   0.63112   0.75254   0.00000  Uiso   1.00
H1828  H     0.59295   0.55059   0.99236   0.00000  Uiso   1.00
H1829  H     0.47440   0.57411   0.88494   0.00000  Uiso   1.00
H1830  H     0.59058   0.51829   0.54216   0.00000  Uiso   1.00
H1831  H     0.59253   0.62426   0.54558   0.00000  Uiso   1.00
H1832  H     0.60598   0.58521   0.58941   0.00000  Uiso   1.00
H1833  H     0.33525   0.55886   0.54891   0.00000  Uiso   1.00
H1834  H     0.33599   0.62010   0.55986   0.00000  Uiso   1.00
H1835  H     0.65511   0.59846   0.50455   0.00000  Uiso   1.00
H1836  H     0.54223   0.42044   0.52848   0.00000  Uiso   1.00
H1837  H     0.56008   0.44496   0.97860   0.00000  Uiso   1.00
H1838  H     0.53593   0.34387   0.99224   0.00000  Uiso   1.00
H1839  H     0.54733   0.36713   0.93906   0.00000  Uiso   1.00
H1840  H     0.43794   0.46382   0.61342   0.00000  Uiso   1.00
H1841  H     0.61879   0.38971   0.96914   0.00000  Uiso   1.00
H1842  H     0.60993   0.66265   0.97480   0.00000  Uiso   1.00
H1843  H     0.60761   0.36763   0.52295   0.00000  Uiso   1.00
H1844  H     0.40757   0.59911   0.98882   0.00000  Uiso   1.00
H1845  H     0.41137   0.58598   0.93039   0.00000  Uiso   1.00
H1846  H     0.44345   0.34065   0.98002   0.00000  Uiso   1.00
H1847  H     0.44899   0.66082   0.92161   0.00000  Uiso   1.00
H1848  H     0.37076   0.65774   0.90955   0.00000  Uiso   1.00
H1849  H     0.38821   0.37919   0.93254   0.00000  Uiso   1.00
H1850  H     0.36548   0.33796   0.96825   0.00000  Uiso   1.00
H1851  H     0.36840   0.48616   0.67884   0.00000  Uiso   1.00
H1852  H     0.40629   0.48433   0.96581   0.00000  Uiso   1.00
H1853  H     0.39398   0.52195   0.51247   0.00000  Uiso   1.00
H1854  H     0.35257   0.42802   0.99336   0.00000  Uiso   1.00
H1855  H     0.33670   0.47321   0.53083   0.00000  Uiso   1.00
H1856  H     0.65889   0.52483   0.96251   0.00000  Uiso   1.00
H1857  H     0.62497   0.47563   0.96214   0.00000  Uiso   1.00
H1858  H     0.33607   0.47524   0.92770   0.00000  Uiso   1.00
H1859  H     0.63166   0.51089   0.82115   0.00000  Uiso   1.00
H1860  H     0.62485   0.48568   0.67877   0.00000  Uiso   1.00
H1861  H     0.37515   0.51303   0.82103   0.00000  Uiso   1.00
H1862  H     0.39200   0.38922   0.72786   0.00000  Uiso   1.00
N1863  N     0.50000   0.61736   0.75000   0.00000  Uiso   1.00
N1864  N     0.50000   0.38264   0.75000   0.00000  Uiso   1.00
O1865  O     0.43988   0.53958   0.75000   0.00000  Uiso   1.00
O1866  O     0.49619   0.42414   0.97823   0.00000  Uiso   1.00
O1867  O     0.46805   0.58788   0.97137   0.00000  Uiso   1.00
O1868  O     0.42208   0.45800   0.52793   0.00000  Uiso   1.00
O1869  O     0.56012   0.46042   0.75001   0.00000  Uiso   1.00
O1870  O     0.56012   0.53958   0.75001   0.00000  Uiso   1.00
O1871  O     0.43988   0.46042   0.75000   0.00000  Uiso   1.00
O1872  O     0.50000   0.53959   0.68573   0.00000  Uiso   1.00
O1873  O     0.50000   0.46041   0.81427   0.00000  Uiso   1.00
O1874  O     0.50000   0.53959   0.81427   0.00000  Uiso   1.00
O1875  O     0.50000   0.46041   0.68573   0.00000  Uiso   1.00
O1876  O     0.53989   0.56366   0.52469   0.00000  Uiso   1.00
C1877  C     0.75429   0.50005   0.74979   0.00000  Uiso   1.00
C1878  C     0.98033   0.50664   0.78997   0.00000  Uiso   1.00
C1879  C     0.97643   0.49153   0.70980   0.00000  Uiso   1.00
C1880  C     0.69024   0.50734   0.78997   0.00000  Uiso   1.00
C1881  C     0.84977   0.53287   0.54749   0.00000  Uiso   1.00
C1882  C     0.82423   0.46400   0.95417   0.00000  Uiso   1.00
C1883  C     0.80893   0.54605   0.95029   0.00000  Uiso   1.00
C1884  C     0.78799   0.48345   0.54831   0.00000  Uiso   1.00
C1885  C     0.85532   0.52885   0.59380   0.00000  Uiso   1.00
C1886  C     0.82606   0.46185   0.90792   0.00000  Uiso   1.00
C1887  C     0.81323   0.54355   0.90412   0.00000  Uiso   1.00
C1888  C     0.91237   0.49987   0.74997   0.00000  Uiso   1.00
C1889  C     0.79437   0.48039   0.59444   0.00000  Uiso   1.00
C1890  C     0.82879   0.50094   0.61680   0.00000  Uiso   1.00
C1891  C     0.82374   0.50196   0.88296   0.00000  Uiso   1.00
C1892  C     0.81689   0.50893   0.52447   0.00000  Uiso   1.00
C1893  C     0.81657   0.50644   0.97560   0.00000  Uiso   1.00
C1894  C     0.95701   0.49951   0.74985   0.00000  Uiso   1.00
C1895  C     0.70966   0.49997   0.74984   0.00000  Uiso   1.00
C1896  C     0.77862   0.37915   0.68744   0.00000  Uiso   1.00
C1897  C     0.73631   0.38830   0.69436   0.00000  Uiso   1.00
C1898  C     0.70732   0.39202   0.65805   0.00000  Uiso   1.00
C1899  C     0.83275   0.49989   0.66517   0.00000  Uiso   1.00
C1900  C     0.72010   0.38585   0.61450   0.00000  Uiso   1.00
C1901  C     0.76204   0.37654   0.60716   0.00000  Uiso   1.00
C1902  C     0.79134   0.37432   0.64334   0.00000  Uiso   1.00
C1903  C     0.89016   0.61999   0.81006   0.00000  Uiso   1.00
C1904  C     0.87756   0.61943   0.85420   0.00000  Uiso   1.00
C1905  C     0.90583   0.60789   0.88933   0.00000  Uiso   1.00
C1906  C     0.94770   0.59954   0.88105   0.00000  Uiso   1.00
C1907  C     0.96115   0.60244   0.83762   0.00000  Uiso   1.00
C1908  C     0.93246   0.61181   0.80212   0.00000  Uiso   1.00
C1909  C     0.90072   0.38111   0.79546   0.00000  Uiso   1.00
C1910  C     0.83072   0.50047   0.83485   0.00000  Uiso   1.00
C1911  C     0.93815   0.38135   0.77285   0.00000  Uiso   1.00
C1912  C     0.97555   0.39507   0.79521   0.00000  Uiso   1.00
C1913  C     0.97592   0.40883   0.84013   0.00000  Uiso   1.00
C1914  C     0.93896   0.40834   0.86282   0.00000  Uiso   1.00
C1915  C     0.90184   0.39337   0.84085   0.00000  Uiso   1.00
C1916  C     0.76895   0.61770   0.70013   0.00000  Uiso   1.00
C1917  C     0.77215   0.60230   0.65572   0.00000  Uiso   1.00
C1918  C     0.73723   0.58435   0.63162   0.00000  Uiso   1.00
C1919  C     0.69856   0.58335   0.65109   0.00000  Uiso   1.00
C1920  C     0.69463   0.60053   0.69450   0.00000  Uiso   1.00
C1921  C     0.80516   0.35752   0.72324   0.00000  Uiso   1.00
C1922  C     0.72964   0.61757   0.71901   0.00000  Uiso   1.00
C1923  C     0.91626   0.55238   0.52724   0.00000  Uiso   1.00
C1924  C     0.94062   0.59053   0.55297   0.00000  Uiso   1.00
C1925  C     0.98624   0.59192   0.54070   0.00000  Uiso   1.00
C1926  C     0.87232   0.41834   0.99141   0.00000  Uiso   1.00
C1927  C     0.88700   0.37090   0.97571   0.00000  Uiso   1.00
C1928  C     0.93370   0.36406   0.98642   0.00000  Uiso   1.00
C1929  C     0.76051   0.60404   0.95981   0.00000  Uiso   1.00
C1930  C     0.76242   0.65542   0.95032   0.00000  Uiso   1.00
C1931  C     0.71894   0.34200   0.93951   0.00000  Uiso   1.00
C1932  C     0.86223   0.64233   0.77584   0.00000  Uiso   1.00
C1933  C     0.72876   0.48553   0.50034   0.00000  Uiso   1.00
C1934  C     0.68458   0.46590   0.99857   0.00000  Uiso   1.00
C1935  C     0.99116   0.48676   0.96039   0.00000  Uiso   1.00
C1936  C     0.86343   0.35815   0.77417   0.00000  Uiso   1.00
C1937  C     0.80423   0.64160   0.72451   0.00000  Uiso   1.00
C1938  C     0.68638   0.49159   0.70987   0.00000  Uiso   1.00
Cu1939 Cu    0.83333   0.54689   0.75000   0.00000  Uiso   1.00
Cu1940 Cu    0.83333   0.45311   0.75000   0.00000  Uiso   1.00
H1941  H     0.87975   0.54802   0.61204   0.00000  Uiso   1.00
H1942  H     0.67465   0.39811   0.66379   0.00000  Uiso   1.00
H1943  H     0.69749   0.38785   0.58648   0.00000  Uiso   1.00
H1944  H     0.77189   0.37110   0.57345   0.00000  Uiso   1.00
H1945  H     0.82334   0.36499   0.63716   0.00000  Uiso   1.00
H1946  H     0.84635   0.63055   0.86152   0.00000  Uiso   1.00
H1947  H     0.89560   0.60719   0.92316   0.00000  Uiso   1.00
H1948  H     0.96990   0.59191   0.90839   0.00000  Uiso   1.00
H1949  H     0.99388   0.59755   0.83144   0.00000  Uiso   1.00
H1950  H     0.94354   0.61497   0.76882   0.00000  Uiso   1.00
H1951  H     0.93845   0.36984   0.73827   0.00000  Uiso   1.00
H1952  H     0.82966   0.42878   0.89202   0.00000  Uiso   1.00
H1953  H     0.67088   0.39507   0.77775   0.00000  Uiso   1.00
H1954  H     0.67152   0.41965   0.85736   0.00000  Uiso   1.00
H1955  H     0.93924   0.41839   0.89769   0.00000  Uiso   1.00
H1956  H     0.87456   0.38858   0.85951   0.00000  Uiso   1.00
H1957  H     0.80146   0.60501   0.63953   0.00000  Uiso   1.00
H1958  H     0.74005   0.57182   0.59766   0.00000  Uiso   1.00
H1959  H     0.67159   0.56911   0.63273   0.00000  Uiso   1.00
H1960  H     0.99788   0.60020   0.70932   0.00000  Uiso   1.00
H1961  H     0.72615   0.63112   0.75254   0.00000  Uiso   1.00
H1962  H     0.92629   0.55059   0.99236   0.00000  Uiso   1.00
H1963  H     0.80773   0.57411   0.88494   0.00000  Uiso   1.00
H1964  H     0.92391   0.51829   0.54216   0.00000  Uiso   1.00
H1965  H     0.92586   0.62426   0.54558   0.00000  Uiso   1.00
H1966  H     0.93932   0.58521   0.58941   0.00000  Uiso   1.00
H1967  H     0.66859   0.55886   0.54891   0.00000  Uiso   1.00
H1968  H     0.66932   0.62010   0.55986   0.00000  Uiso   1.00
H1969  H     0.98844   0.59846   0.50455   0.00000  Uiso   1.00
H1970  H     0.87556   0.42044   0.52848   0.00000  Uiso   1.00
H1971  H     0.89341   0.44496   0.97860   0.00000  Uiso   1.00
H1972  H     0.86927   0.34387   0.99224   0.00000  Uiso   1.00
H1973  H     0.88066   0.36713   0.93906   0.00000  Uiso   1.00
H1974  H     0.77128   0.46382   0.61342   0.00000  Uiso   1.00
H1975  H     0.95212   0.38971   0.96914   0.00000  Uiso   1.00
H1976  H     0.94327   0.66265   0.97480   0.00000  Uiso   1.00
H1977  H     0.94095   0.36763   0.52295   0.00000  Uiso   1.00
H1978  H     0.74090   0.59911   0.98882   0.00000  Uiso   1.00
H1979  H     0.74470   0.58598   0.93039   0.00000  Uiso   1.00
H1980  H     0.77678   0.34065   0.98002   0.00000  Uiso   1.00
H1981  H     0.78232   0.66082   0.92161   0.00000  Uiso   1.00
H1982  H     0.70410   0.65774   0.90955   0.00000  Uiso   1.00
H1983  H     0.72154   0.37919   0.93254   0.00000  Uiso   1.00
H1984  H     0.69881   0.33796   0.96825   0.00000  Uiso   1.00
H1985  H     0.70173   0.48616   0.67884   0.00000  Uiso   1.00
H1986  H     0.73962   0.48433   0.96581   0.00000  Uiso   1.00
H1987  H     0.72732   0.52195   0.51247   0.00000  Uiso   1.00
H1988  H     0.68590   0.42802   0.99336   0.00000  Uiso   1.00
H1989  H     0.67003   0.47321   0.53083   0.00000  Uiso   1.00
H1990  H     0.99223   0.52483   0.96251   0.00000  Uiso   1.00
H1991  H     0.95830   0.47563   0.96214   0.00000  Uiso   1.00
H1992  H     0.66941   0.47524   0.92770   0.00000  Uiso   1.00
H1993  H     0.96500   0.51089   0.82115   0.00000  Uiso   1.00
H1994  H     0.95818   0.48568   0.67877   0.00000  Uiso   1.00
H1995  H     0.70848   0.51303   0.82103   0.00000  Uiso   1.00
H1996  H     0.72533   0.38922   0.72786   0.00000  Uiso   1.00
N1997  N     0.83333   0.61736   0.75000   0.00000  Uiso   1.00
N1998  N     0.83333   0.38264   0.75000   0.00000  Uiso   1.00
O1999  O     0.77321   0.53958   0.75000   0.00000  Uiso   1.00
O2000  O     0.82953   0.42414   0.97823   0.00000  Uiso   1.00
O2001  O     0.80139   0.58788   0.97137   0.00000  Uiso   1.00
O2002  O     0.75541   0.45800   0.52793   0.00000  Uiso   1.00
O2003  O     0.89345   0.46042   0.75001   0.00000  Uiso   1.00
O2004  O     0.89345   0.53958   0.75001   0.00000  Uiso   1.00
O2005  O     0.77321   0.46042   0.75000   0.00000  Uiso   1.00
O2006  O     0.83333   0.53959   0.68573   0.00000  Uiso   1.00
O2007  O     0.83334   0.46041   0.81427   0.00000  Uiso   1.00
O2008  O     0.83334   0.53959   0.81427   0.00000  Uiso   1.00
O2009  O     0.83333   0.46041   0.68573   0.00000  Uiso   1.00
O2010  O     0.87323   0.56366   0.52469   0.00000  Uiso   1.00
C2011  C     0.08762   0.83338   0.74979   0.00000  Uiso   1.00
C2012  C     0.31366   0.83997   0.78997   0.00000  Uiso   1.00
C2013  C     0.30977   0.82486   0.70980   0.00000  Uiso   1.00
C2014  C     0.02357   0.84068   0.78997   0.00000  Uiso   1.00
C2015  C     0.18310   0.86621   0.54749   0.00000  Uiso   1.00
C2016  C     0.15756   0.79733   0.95417   0.00000  Uiso   1.00
C2017  C     0.14227   0.87938   0.95029   0.00000  Uiso   1.00
C2018  C     0.12132   0.81679   0.54831   0.00000  Uiso   1.00
C2019  C     0.18865   0.86218   0.59380   0.00000  Uiso   1.00
C2020  C     0.15940   0.79519   0.90792   0.00000  Uiso   1.00
C2021  C     0.14656   0.87688   0.90412   0.00000  Uiso   1.00
C2022  C     0.24570   0.83320   0.74997   0.00000  Uiso   1.00
C2023  C     0.12770   0.81372   0.59444   0.00000  Uiso   1.00
C2024  C     0.16212   0.83428   0.61680   0.00000  Uiso   1.00
C2025  C     0.15707   0.83529   0.88296   0.00000  Uiso   1.00
C2026  C     0.15022   0.84226   0.52447   0.00000  Uiso   1.00
C2027  C     0.14990   0.83977   0.97560   0.00000  Uiso   1.00
C2028  C     0.29035   0.83284   0.74985   0.00000  Uiso   1.00
C2029  C     0.04299   0.83330   0.74984   0.00000  Uiso   1.00
C2030  C     0.11195   0.71248   0.68744   0.00000  Uiso   1.00
C2031  C     0.06965   0.72163   0.69436   0.00000  Uiso   1.00
C2032  C     0.04065   0.72535   0.65805   0.00000  Uiso   1.00
C2033  C     0.16608   0.83322   0.66517   0.00000  Uiso   1.00
C2034  C     0.05343   0.71918   0.61450   0.00000  Uiso   1.00
C2035  C     0.09537   0.70987   0.60716   0.00000  Uiso   1.00
C2036  C     0.12467   0.70766   0.64334   0.00000  Uiso   1.00
C2037  C     0.22350   0.95332   0.81006   0.00000  Uiso   1.00
C2038  C     0.21089   0.95276   0.85420   0.00000  Uiso   1.00
C2039  C     0.23916   0.94122   0.88933   0.00000  Uiso   1.00
C2040  C     0.28104   0.93287   0.88105   0.00000  Uiso   1.00
C2041  C     0.29448   0.93578   0.83762   0.00000  Uiso   1.00
C2042  C     0.26580   0.94515   0.80212   0.00000  Uiso   1.00
C2043  C     0.23405   0.71444   0.79546   0.00000  Uiso   1.00
C2044  C     0.16405   0.83380   0.83485   0.00000  Uiso   1.00
C2045  C     0.27149   0.71468   0.77285   0.00000  Uiso   1.00
C2046  C     0.30889   0.72840   0.79521   0.00000  Uiso   1.00
C2047  C     0.30925   0.74216   0.84013   0.00000  Uiso   1.00
C2048  C     0.27230   0.74168   0.86282   0.00000  Uiso   1.00
C2049  C     0.23518   0.72671   0.84085   0.00000  Uiso   1.00
C2050  C     0.10228   0.95103   0.70013   0.00000  Uiso   1.00
C2051  C     0.10549   0.93564   0.65572   0.00000  Uiso   1.00
C2052  C     0.07057   0.91768   0.63162   0.00000  Uiso   1.00
C2053  C     0.03189   0.91668   0.65109   0.00000  Uiso   1.00
C2054  C     0.02797   0.93386   0.69450   0.00000  Uiso   1.00
C2055  C     0.13849   0.69085   0.72324   0.00000  Uiso   1.00
C2056  C     0.06298   0.95090   0.71901   0.00000  Uiso   1.00
C2057  C     0.24959   0.88571   0.52724   0.00000  Uiso   1.00
C2058  C     0.27395   0.92386   0.55297   0.00000  Uiso   1.00
C2059  C     0.31957   0.92525   0.54070   0.00000  Uiso   1.00
C2060  C     0.20565   0.75167   0.99141   0.00000  Uiso   1.00
C2061  C     0.22033   0.70423   0.97571   0.00000  Uiso   1.00
C2062  C     0.26704   0.69739   0.98642   0.00000  Uiso   1.00
C2063  C     0.09385   0.93738   0.95981   0.00000  Uiso   1.00
C2064  C     0.09575   0.98875   0.95032   0.00000  Uiso   1.00
C2065  C     0.05227   0.67534   0.93951   0.00000  Uiso   1.00
C2066  C     0.19556   0.97566   0.77584   0.00000  Uiso   1.00
C2067  C     0.06209   0.81886   0.50034   0.00000  Uiso   1.00
C2068  C     0.01792   0.79924   0.99857   0.00000  Uiso   1.00
C2069  C     0.32450   0.82009   0.96039   0.00000  Uiso   1.00
C2070  C     0.19676   0.69149   0.77417   0.00000  Uiso   1.00
C2071  C     0.13756   0.97493   0.72451   0.00000  Uiso   1.00
C2072  C     0.01971   0.82492   0.70987   0.00000  Uiso   1.00
Cu2073 Cu    0.16667   0.88022   0.75000   0.00000  Uiso   1.00
Cu2074 Cu    0.16667   0.78645   0.75000   0.00000  Uiso   1.00
H2075  H     0.21308   0.88136   0.61204   0.00000  Uiso   1.00
H2076  H     0.00798   0.73145   0.66379   0.00000  Uiso   1.00
H2077  H     0.03082   0.72118   0.58648   0.00000  Uiso   1.00
H2078  H     0.10523   0.70443   0.57345   0.00000  Uiso   1.00
H2079  H     0.15668   0.69833   0.63716   0.00000  Uiso   1.00
H2080  H     0.17968   0.96389   0.86152   0.00000  Uiso   1.00
H2081  H     0.22894   0.94052   0.92316   0.00000  Uiso   1.00
H2082  H     0.30323   0.92524   0.90839   0.00000  Uiso   1.00
H2083  H     0.32721   0.93088   0.83144   0.00000  Uiso   1.00
H2084  H     0.27688   0.94830   0.76882   0.00000  Uiso   1.00
H2085  H     0.27178   0.70317   0.73827   0.00000  Uiso   1.00
H2086  H     0.16299   0.76212   0.89202   0.00000  Uiso   1.00
H2087  H     0.00421   0.72840   0.77775   0.00000  Uiso   1.00
H2088  H     0.00485   0.75298   0.85736   0.00000  Uiso   1.00
H2089  H     0.27258   0.75173   0.89769   0.00000  Uiso   1.00
H2090  H     0.20789   0.72191   0.85951   0.00000  Uiso   1.00
H2091  H     0.13479   0.93834   0.63953   0.00000  Uiso   1.00
H2092  H     0.07339   0.90515   0.59766   0.00000  Uiso   1.00
H2093  H     0.00492   0.90244   0.63273   0.00000  Uiso   1.00
H2094  H     0.33121   0.93353   0.70932   0.00000  Uiso   1.00
H2095  H     0.05948   0.96446   0.75254   0.00000  Uiso   1.00
H2096  H     0.25962   0.88393   0.99236   0.00000  Uiso   1.00
H2097  H     0.14106   0.90745   0.88494   0.00000  Uiso   1.00
H2098  H     0.25724   0.85162   0.54216   0.00000  Uiso   1.00
H2099  H     0.25920   0.95759   0.54558   0.00000  Uiso   1.00
H2100  H     0.27265   0.91855   0.58941   0.00000  Uiso   1.00
H2101  H     0.00192   0.89219   0.54891   0.00000  Uiso   1.00
H2102  H     0.00265   0.95344   0.55986   0.00000  Uiso   1.00
H2103  H     0.32178   0.93179   0.50455   0.00000  Uiso   1.00
H2104  H     0.20889   0.75378   0.52848   0.00000  Uiso   1.00
H2105  H     0.22674   0.77830   0.97860   0.00000  Uiso   1.00
H2106  H     0.20260   0.67720   0.99224   0.00000  Uiso   1.00
H2107  H     0.21400   0.70046   0.93906   0.00000  Uiso   1.00
H2108  H     0.10461   0.79715   0.61342   0.00000  Uiso   1.00
H2109  H     0.28545   0.72304   0.96914   0.00000  Uiso   1.00
H2110  H     0.27660   0.99598   0.97480   0.00000  Uiso   1.00
H2111  H     0.27428   0.70097   0.52295   0.00000  Uiso   1.00
H2112  H     0.07424   0.93244   0.98882   0.00000  Uiso   1.00
H2113  H     0.07803   0.91931   0.93039   0.00000  Uiso   1.00
H2114  H     0.11011   0.67398   0.98002   0.00000  Uiso   1.00
H2115  H     0.11566   0.99415   0.92161   0.00000  Uiso   1.00
H2116  H     0.03743   0.99107   0.90955   0.00000  Uiso   1.00
H2117  H     0.05488   0.71252   0.93254   0.00000  Uiso   1.00
H2118  H     0.03214   0.67129   0.96825   0.00000  Uiso   1.00
H2119  H     0.03507   0.81949   0.67884   0.00000  Uiso   1.00
H2120  H     0.07295   0.81767   0.96581   0.00000  Uiso   1.00
H2121  H     0.06065   0.85528   0.51247   0.00000  Uiso   1.00
H2122  H     0.01924   0.76136   0.99336   0.00000  Uiso   1.00
H2123  H     0.00337   0.80655   0.53083   0.00000  Uiso   1.00
H2124  H     0.32556   0.85817   0.96251   0.00000  Uiso   1.00
H2125  H     0.29163   0.80896   0.96214   0.00000  Uiso   1.00
H2126  H     0.00274   0.80857   0.92770   0.00000  Uiso   1.00
H2127  H     0.29833   0.84422   0.82115   0.00000  Uiso   1.00
H2128  H     0.29151   0.81902   0.67877   0.00000  Uiso   1.00
H2129  H     0.04182   0.84636   0.82103   0.00000  Uiso   1.00
H2130  H     0.05867   0.72255   0.72786   0.00000  Uiso   1.00
N2131  N     0.16667   0.95069   0.75000   0.00000  Uiso   1.00
N2132  N     0.16667   0.71598   0.75000   0.00000  Uiso   1.00
O2133  O     0.10655   0.87291   0.75000   0.00000  Uiso   1.00
O2134  O     0.16286   0.75748   0.97823   0.00000  Uiso   1.00
O2135  O     0.13472   0.92122   0.97137   0.00000  Uiso   1.00
O2136  O     0.08875   0.79133   0.52793   0.00000  Uiso   1.00
O2137  O     0.22679   0.79375   0.75001   0.00000  Uiso   1.00
O2138  O     0.22679   0.87291   0.75001   0.00000  Uiso   1.00
O2139  O     0.10655   0.79375   0.75000   0.00000  Uiso   1.00
O2140  O     0.16666   0.87293   0.68573   0.00000  Uiso   1.00
O2141  O     0.16667   0.79374   0.81427   0.00000  Uiso   1.00
O2142  O     0.16667   0.87293   0.81427   0.00000  Uiso   1.00
O2143  O     0.16666   0.79374   0.68573   0.00000  Uiso   1.00
O2144  O     0.20656   0.89699   0.52469   0.00000  Uiso   1.00
C2145  C     0.42096   0.83338   0.74979   0.00000  Uiso   1.00
C2146  C     0.64699   0.83997   0.78997   0.00000  Uiso   1.00
C2147  C     0.64310   0.82486   0.70980   0.00000  Uiso   1.00
C2148  C     0.35691   0.84068   0.78997   0.00000  Uiso   1.00
C2149  C     0.51643   0.86621   0.54749   0.00000  Uiso   1.00
C2150  C     0.49089   0.79733   0.95417   0.00000  Uiso   1.00
C2151  C     0.47560   0.87938   0.95029   0.00000  Uiso   1.00
C2152  C     0.45465   0.81679   0.54831   0.00000  Uiso   1.00
C2153  C     0.52199   0.86218   0.59380   0.00000  Uiso   1.00
C2154  C     0.49273   0.79519   0.90792   0.00000  Uiso   1.00
C2155  C     0.47990   0.87688   0.90412   0.00000  Uiso   1.00
C2156  C     0.57904   0.83320   0.74997   0.00000  Uiso   1.00
C2157  C     0.46103   0.81372   0.59444   0.00000  Uiso   1.00
C2158  C     0.49546   0.83428   0.61680   0.00000  Uiso   1.00
C2159  C     0.49041   0.83529   0.88296   0.00000  Uiso   1.00
C2160  C     0.48355   0.84226   0.52447   0.00000  Uiso   1.00
C2161  C     0.48324   0.83977   0.97560   0.00000  Uiso   1.00
C2162  C     0.62368   0.83284   0.74985   0.00000  Uiso   1.00
C2163  C     0.37632   0.83330   0.74984   0.00000  Uiso   1.00
C2164  C     0.44529   0.71248   0.68744   0.00000  Uiso   1.00
C2165  C     0.40298   0.72163   0.69436   0.00000  Uiso   1.00
C2166  C     0.37399   0.72535   0.65805   0.00000  Uiso   1.00
C2167  C     0.49941   0.83322   0.66517   0.00000  Uiso   1.00
C2168  C     0.38677   0.71918   0.61450   0.00000  Uiso   1.00
C2169  C     0.42870   0.70987   0.60716   0.00000  Uiso   1.00
C2170  C     0.45800   0.70766   0.64334   0.00000  Uiso   1.00
C2171  C     0.55683   0.95332   0.81006   0.00000  Uiso   1.00
C2172  C     0.54422   0.95276   0.85420   0.00000  Uiso   1.00
C2173  C     0.57250   0.94122   0.88933   0.00000  Uiso   1.00
C2174  C     0.61437   0.93287   0.88105   0.00000  Uiso   1.00
C2175  C     0.62781   0.93578   0.83762   0.00000  Uiso   1.00
C2176  C     0.59913   0.94515   0.80212   0.00000  Uiso   1.00
C2177  C     0.56739   0.71444   0.79546   0.00000  Uiso   1.00
C2178  C     0.49739   0.83380   0.83485   0.00000  Uiso   1.00
C2179  C     0.60482   0.71468   0.77285   0.00000  Uiso   1.00
C2180  C     0.64222   0.72840   0.79521   0.00000  Uiso   1.00
C2181  C     0.64259   0.74216   0.84013   0.00000  Uiso   1.00
C2182  C     0.60563   0.74168   0.86282   0.00000  Uiso   1.00
C2183  C     0.56851   0.72671   0.84085   0.00000  Uiso   1.00
C2184  C     0.43561   0.95103   0.70013   0.00000  Uiso   1.00
C2185  C     0.43882   0.93564   0.65572   0.00000  Uiso   1.00
C2186  C     0.40390   0.91768   0.63162   0.00000  Uiso   1.00
C2187  C     0.36522   0.91668   0.65109   0.00000  Uiso   1.00
C2188  C     0.36130   0.93386   0.69450   0.00000  Uiso   1.00
C2189  C     0.47182   0.69085   0.72324   0.00000  Uiso   1.00
C2190  C     0.39631   0.95090   0.71901   0.00000  Uiso   1.00
C2191  C     0.58292   0.88571   0.52724   0.00000  Uiso   1.00
C2192  C     0.60728   0.92386   0.55297   0.00000  Uiso   1.00
C2193  C     0.65291   0.92525   0.54070   0.00000  Uiso   1.00
C2194  C     0.53899   0.75167   0.99141   0.00000  Uiso   1.00
C2195  C     0.55366   0.70423   0.97571   0.00000  Uiso   1.00
C2196  C     0.60037   0.69739   0.98642   0.00000  Uiso   1.00
C2197  C     0.42718   0.93738   0.95981   0.00000  Uiso   1.00
C2198  C     0.42908   0.98875   0.95032   0.00000  Uiso   1.00
C2199  C     0.38560   0.67534   0.93951   0.00000  Uiso   1.00
C2200  C     0.52890   0.97566   0.77584   0.00000  Uiso   1.00
C2201  C     0.39543   0.81886   0.50034   0.00000  Uiso   1.00
C2202  C     0.35125   0.79924   0.99857   0.00000  Uiso   1.00
C2203  C     0.65783   0.82009   0.96039   0.00000  Uiso   1.00
C2204  C     0.53009   0.69149   0.77417   0.00000  Uiso   1.00
C2205  C     0.47089   0.97493   0.72451   0.00000  Uiso   1.00
C2206  C     0.35304   0.82492   0.70987   0.00000  Uiso   1.00
Cu2207 Cu    0.50000   0.88022   0.75000   0.00000  Uiso   1.00
Cu2208 Cu    0.50000   0.78645   0.75000   0.00000  Uiso   1.00
H2209  H     0.54642   0.88136   0.61204   0.00000  Uiso   1.00
H2210  H     0.34132   0.73145   0.66379   0.00000  Uiso   1.00
H2211  H     0.36416   0.72118   0.58648   0.00000  Uiso   1.00
H2212  H     0.43856   0.70443   0.57345   0.00000  Uiso   1.00
H2213  H     0.49001   0.69833   0.63716   0.00000  Uiso   1.00
H2214  H     0.51302   0.96389   0.86152   0.00000  Uiso   1.00
H2215  H     0.56227   0.94052   0.92316   0.00000  Uiso   1.00
H2216  H     0.63656   0.92524   0.90839   0.00000  Uiso   1.00
H2217  H     0.66055   0.93088   0.83144   0.00000  Uiso   1.00
H2218  H     0.61021   0.94830   0.76882   0.00000  Uiso   1.00
H2219  H     0.60511   0.70317   0.73827   0.00000  Uiso   1.00
H2220  H     0.49632   0.76212   0.89202   0.00000  Uiso   1.00
H2221  H     0.33755   0.72840   0.77775   0.00000  Uiso   1.00
H2222  H     0.33819   0.75298   0.85736   0.00000  Uiso   1.00
H2223  H     0.60591   0.75173   0.89769   0.00000  Uiso   1.00
H2224  H     0.54122   0.72191   0.85951   0.00000  Uiso   1.00
H2225  H     0.46812   0.93834   0.63953   0.00000  Uiso   1.00
H2226  H     0.40672   0.90515   0.59766   0.00000  Uiso   1.00
H2227  H     0.33825   0.90244   0.63273   0.00000  Uiso   1.00
H2228  H     0.66454   0.93353   0.70932   0.00000  Uiso   1.00
H2229  H     0.39282   0.96446   0.75254   0.00000  Uiso   1.00
H2230  H     0.59295   0.88393   0.99236   0.00000  Uiso   1.00
H2231  H     0.47440   0.90745   0.88494   0.00000  Uiso   1.00
H2232  H     0.59058   0.85162   0.54216   0.00000  Uiso   1.00
H2233  H     0.59253   0.95759   0.54558   0.00000  Uiso   1.00
H2234  H     0.60598   0.91855   0.58941   0.00000  Uiso   1.00
H2235  H     0.33525   0.89219   0.54891   0.00000  Uiso   1.00
H2236  H     0.33599   0.95344   0.55986   0.00000  Uiso   1.00
H2237  H     0.65511   0.93179   0.50455   0.00000  Uiso   1.00
H2238  H     0.54223   0.75378   0.52848   0.00000  Uiso   1.00
H2239  H     0.56008   0.77830   0.97860   0.00000  Uiso   1.00
H2240  H     0.53593   0.67720   0.99224   0.00000  Uiso   1.00
H2241  H     0.54733   0.70046   0.93906   0.00000  Uiso   1.00
H2242  H     0.43794   0.79715   0.61342   0.00000  Uiso   1.00
H2243  H     0.61879   0.72304   0.96914   0.00000  Uiso   1.00
H2244  H     0.60993   0.99598   0.97480   0.00000  Uiso   1.00
H2245  H     0.60761   0.70097   0.52295   0.00000  Uiso   1.00
H2246  H     0.40757   0.93244   0.98882   0.00000  Uiso   1.00
H2247  H     0.41137   0.91931   0.93039   0.00000  Uiso   1.00
H2248  H     0.44345   0.67398   0.98002   0.00000  Uiso   1.00
H2249  H     0.44899   0.99415   0.92161   0.00000  Uiso   1.00
H2250  H     0.37076   0.99107   0.90955   0.00000  Uiso   1.00
H2251  H     0.38821   0.71252   0.93254   0.00000  Uiso   1.00
H2252  H     0.36548   0.67129   0.96825   0.00000  Uiso   1.00
H2253  H     0.36840   0.81949   0.67884   0.00000  Uiso   1.00
H2254  H     0.40629   0.81767   0.96581   0.00000  Uiso   1.00
H2255  H     0.39398   0.85528   0.51247   0.00000  Uiso   1.00
H2256  H     0.35257   0.76136   0.99336   0.00000  Uiso   1.00
H2257  H     0.33670   0.80655   0.53083   0.00000  Uiso   1.00
H2258  H     0.65889   0.85817   0.96251   0.00000  Uiso   1.00
H2259  H     0.62497   0.80896   0.96214   0.00000  Uiso   1.00
H2260  H     0.33607   0.80857   0.92770   0.00000  Uiso   1.00
H2261  H     0.63166   0.84422   0.82115   0.00000  Uiso   1.00
H2262  H     0.62485   0.81902   0.67877   0.00000  Uiso   1.00
H2263  H     0.37515   0.84636   0.82103   0.00000  Uiso   1.00
H2264  H     0.39200   0.72255   0.72786   0.00000  Uiso   1.00
N2265  N     0.50000   0.95069   0.75000   0.00000  Uiso   1.00
N2266  N     0.50000   0.71598   0.75000   0.00000  Uiso   1.00
O2267  O     0.43988   0.87291   0.75000   0.00000  Uiso   1.00
O2268  O     0.49619   0.75748   0.97823   0.00000  Uiso   1.00
O2269  O     0.46805   0.92122   0.97137   0.00000  Uiso   1.00
O2270  O     0.42208   0.79133   0.52793   0.00000  Uiso   1.00
O2271  O     0.56012   0.79375   0.75001   0.00000  Uiso   1.00
O2272  O     0.56012   0.87291   0.75001   0.00000  Uiso   1.00
O2273  O     0.43988   0.79375   0.75000   0.00000  Uiso   1.00
O2274  O     0.50000   0.87293   0.68573   0.00000  Uiso   1.00
O2275  O     0.50000   0.79374   0.81427   0.00000  Uiso   1.00
O2276  O     0.50000   0.87293   0.81427   0.00000  Uiso   1.00
O2277  O     0.50000   0.79374   0.68573   0.00000  Uiso   1.00
O2278  O     0.53989   0.89699   0.52469   0.00000  Uiso   1.00
C2279  C     0.75429   0.83338   0.74979   0.00000  Uiso   1.00
C2280  C     0.98033   0.83997   0.78997   0.00000  Uiso   1.00
C2281  C     0.97643   0.82486   0.70980   0.00000  Uiso   1.00
C2282  C     0.69024   0.84068   0.78997   0.00000  Uiso   1.00
C2283  C     0.84977   0.86621   0.54749   0.00000  Uiso   1.00
C2284  C     0.82423   0.79733   0.95417   0.00000  Uiso   1.00
C2285  C     0.80893   0.87938   0.95029   0.00000  Uiso   1.00
C2286  C     0.78799   0.81679   0.54831   0.00000  Uiso   1.00
C2287  C     0.85532   0.86218   0.59380   0.00000  Uiso   1.00
C2288  C     0.82606   0.79519   0.90792   0.00000  Uiso   1.00
C2289  C     0.81323   0.87688   0.90412   0.00000  Uiso   1.00
C2290  C     0.91237   0.83320   0.74997   0.00000  Uiso   1.00
C2291  C     0.79437   0.81372   0.59444   0.00000  Uiso   1.00
C2292  C     0.82879   0.83428   0.61680   0.00000  Uiso   1.00
C2293  C     0.82374   0.83529   0.88296   0.00000  Uiso   1.00
C2294  C     0.81689   0.84226   0.52447   0.00000  Uiso   1.00
C2295  C     0.81657   0.83977   0.97560   0.00000  Uiso   1.00
C2296  C     0.95701   0.83284   0.74985   0.00000  Uiso   1.00
C2297  C     0.70966   0.83330   0.74984   0.00000  Uiso   1.00
C2298  C     0.77862   0.71248   0.68744   0.00000  Uiso   1.00
C2299  C     0.73631   0.72163   0.69436   0.00000  Uiso   1.00
C2300  C     0.70732   0.72535   0.65805   0.00000  Uiso   1.00
C2301  C     0.83275   0.83322   0.66517   0.00000  Uiso   1.00
C2302  C     0.72010   0.71918   0.61450   0.00000  Uiso   1.00
C2303  C     0.76204   0.70987   0.60716   0.00000  Uiso   1.00
C2304  C     0.79134   0.70766   0.64334   0.00000  Uiso   1.00
C2305  C     0.89016   0.95332   0.81006   0.00000  Uiso   1.00
C2306  C     0.87756   0.95276   0.85420   0.00000  Uiso   1.00
C2307  C     0.90583   0.94122   0.88933   0.00000  Uiso   1.00
C2308  C     0.94770   0.93287   0.88105   0.00000  Uiso   1.00
C2309  C     0.96115   0.93578   0.83762   0.00000  Uiso   1.00
C2310  C     0.93246   0.94515   0.80212   0.00000  Uiso   1.00
C2311  C     0.90072   0.71444   0.79546   0.00000  Uiso   1.00
C2312  C     0.83072   0.83380   0.83485   0.00000  Uiso   1.00
C2313  C     0.93815   0.71468   0.77285   0.00000  Uiso   1.00
C2314  C     0.97555   0.72840   0.79521   0.00000  Uiso   1.00
C2315  C     0.97592   0.74216   0.84013   0.00000  Uiso   1.00
C2316  C     0.93896   0.74168   0.86282   0.00000  Uiso   1.00
C2317  C     0.90184   0.72671   0.84085   0.00000  Uiso   1.00
C2318  C     0.76895   0.95103   0.70013   0.00000  Uiso   1.00
C2319  C     0.77215   0.93564   0.65572   0.00000  Uiso   1.00
C2320  C     0.73723   0.91768   0.63162   0.00000  Uiso   1.00
C2321  C     0.69856   0.91668   0.65109   0.00000  Uiso   1.00
C2322  C     0.69463   0.93386   0.69450   0.00000  Uiso   1.00
C2323  C     0.80516   0.69085   0.72324   0.00000  Uiso   1.00
C2324  C     0.72964   0.95090   0.71901   0.00000  Uiso   1.00
C2325  C     0.91626   0.88571   0.52724   0.00000  Uiso   1.00
C2326  C     0.94062   0.92386   0.55297   0.00000  Uiso   1.00
C2327  C     0.98624   0.92525   0.54070   0.00000  Uiso   1.00
C2328  C     0.87232   0.75167   0.99141   0.00000  Uiso   1.00
C2329  C     0.88700   0.70423   0.97571   0.00000  Uiso   1.00
C2330  C     0.93370   0.69739   0.98642   0.00000  Uiso   1.00
C2331  C     0.76051   0.93738   0.95981   0.00000  Uiso   1.00
C2332  C     0.76242   0.98875   0.95032   0.00000  Uiso   1.00
C2333  C     0.71894   0.67534   0.93951   0.00000  Uiso   1.00
C2334  C     0.86223   0.97566   0.77584   0.00000  Uiso   1.00
C2335  C     0.72876   0.81886   0.50034   0.00000  Uiso   1.00
C2336  C     0.68458   0.79924   0.99857   0.00000  Uiso   1.00
C2337  C     0.99116   0.82009   0.96039   0.00000  Uiso   1.00
C2338  C     0.86343   0.69149   0.77417   0.00000  Uiso   1.00
C2339  C     0.80423   0.97493   0.72451   0.00000  Uiso   1.00
C2340  C     0.68638   0.82492   0.70987   0.00000  Uiso   1.00
Cu2341 Cu    0.83333   0.88022   0.75000   0.00000  Uiso   1.00
Cu2342 Cu    0.83333   0.78645   0.75000   0.00000  Uiso   1.00
H2343  H     0.87975   0.88136   0.61204   0.00000  Uiso   1.00
H2344  H     0.67465   0.73145   0.66379   0.00000  Uiso   1.00
H2345  H     0.69749   0.72118   0.58648   0.00000  Uiso   1.00
H2346  H     0.77189   0.70443   0.57345   0.00000  Uiso   1.00
H2347  H     0.82334   0.69833   0.63716   0.00000  Uiso   1.00
H2348  H     0.84635   0.96389   0.86152   0.00000  Uiso   1.00
H2349  H     0.89560   0.94052   0.92316   0.00000  Uiso   1.00
H2350  H     0.96990   0.92524   0.90839   0.00000  Uiso   1.00
H2351  H     0.99388   0.93088   0.83144   0.00000  Uiso   1.00
H2352  H     0.94354   0.94830   0.76882   0.00000  Uiso   1.00
H2353  H     0.93845   0.70317   0.73827   0.00000  Uiso   1.00
H2354  H     0.82966   0.76212   0.89202   0.00000  Uiso   1.00
H2355  H     0.67088   0.72840   0.77775   0.00000  Uiso   1.00
H2356  H     0.67152   0.75298   0.85736   0.00000  Uiso   1.00
H2357  H     0.93924   0.75173   0.89769   0.00000  Uiso   1.00
H2358  H     0.87456   0.72191   0.85951   0.00000  Uiso   1.00
H2359  H     0.80146   0.93834   0.63953   0.00000  Uiso   1.00
H2360  H     0.74005   0.90515   0.59766   0.00000  Uiso   1.00
H2361  H     0.67159   0.90244   0.63273   0.00000  Uiso   1.00
H2362  H     0.99788   0.93353   0.70932   0.00000  Uiso   1.00
H2363  H     0.72615   0.96446   0.75254   0.00000  Uiso   1.00
H2364  H     0.92629   0.88393   0.99236   0.00000  Uiso   1.00
H2365  H     0.80773   0.90745   0.88494   0.00000  Uiso   1.00
H2366  H     0.92391   0.85162   0.54216   0.00000  Uiso   1.00
H2367  H     0.92586   0.95759   0.54558   0.00000  Uiso   1.00
H2368  H     0.93932   0.91855   0.58941   0.00000  Uiso   1.00
H2369  H     0.66859   0.89219   0.54891   0.00000  Uiso   1.00
H2370  H     0.66932   0.95344   0.55986   0.00000  Uiso   1.00
H2371  H     0.98844   0.93179   0.50455   0.00000  Uiso   1.00
H2372  H     0.87556   0.75378   0.52848   0.00000  Uiso   1.00
H2373  H     0.89341   0.77830   0.97860   0.00000  Uiso   1.00
H2374  H     0.86927   0.67720   0.99224   0.00000  Uiso   1.00
H2375  H     0.88066   0.70046   0.93906   0.00000  Uiso   1.00
H2376  H     0.77128   0.79715   0.61342   0.00000  Uiso   1.00
H2377  H     0.95212   0.72304   0.96914   0.00000  Uiso   1.00
H2378  H     0.94327   0.99598   0.97480   0.00000  Uiso   1.00
H2379  H     0.94095   0.70097   0.52295   0.00000  Uiso   1.00
H2380  H     0.74090   0.93244   0.98882   0.00000  Uiso   1.00
H2381  H     0.74470   0.91931   0.93039   0.00000  Uiso   1.00
H2382  H     0.77678   0.67398   0.98002   0.00000  Uiso   1.00
H2383  H     0.78232   0.99415   0.92161   0.00000  Uiso   1.00
H2384  H     0.70410   0.99107   0.90955   0.00000  Uiso   1.00
H2385  H     0.72154   0.71252   0.93254   0.00000  Uiso   1.00
H2386  H     0.69881   0.67129   0.96825   0.00000  Uiso   1.00
H2387  H     0.70173   0.81949   0.67884   0.00000  Uiso   1.00
H2388  H     0.73962   0.81767   0.96581   0.00000  Uiso   1.00
H2389  H     0.72732   0.85528   0.51247   0.00000  Uiso   1.00
H2390  H     0.68590   0.76136   0.99336   0.00000  Uiso   1.00
H2391  H     0.67003   0.80655   0.53083   0.00000  Uiso   1.00
H2392  H     0.99223   0.85817   0.96251   0.00000  Uiso   1.00
H2393  H     0.95830   0.80896   0.96214   0.00000  Uiso   1.00
H2394  H     0.66941   0.80857   0.92770   0.00000  Uiso   1.00
H2395  H     0.96500   0.84422   0.82115   0.00000  Uiso   1.00
H2396  H     0.95818   0.81902   0.67877   0.00000  Uiso   1.00
H2397  H     0.70848   0.84636   0.82103   0.00000  Uiso   1.00
H2398  H     0.72533   0.72255   0.72786   0.00000  Uiso   1.00
N2399  N     0.83333   0.95069   0.75000   0.00000  Uiso   1.00
N2400  N     0.83333   0.71598   0.75000   0.00000  Uiso   1.00
O2401  O     0.77321   0.87291   0.75000   0.00000  Uiso   1.00
O2402  O     0.82953   0.75748   0.97823   0.00000  Uiso   1.00
O2403  O     0.80139   0.92122   0.97137   0.00000  Uiso   1.00
O2404  O     0.75541   0.79133   0.52793   0.00000  Uiso   1.00
O2405  O     0.89345   0.79375   0.75001   0.00000  Uiso   1.00
O2406  O     0.89345   0.87291   0.75001   0.00000  Uiso   1.00
O2407  O     0.77321   0.79375   0.75000   0.00000  Uiso   1.00
O2408  O     0.83333   0.87293   0.68573   0.00000  Uiso   1.00
O2409  O     0.83334   0.79374   0.81427   0.00000  Uiso   1.00
O2410  O     0.83334   0.87293   0.81427   0.00000  Uiso   1.00
O2411  O     0.83333   0.79374   0.68573   0.00000  Uiso   1.00
O2412  O     0.87323   0.89699   0.52469   0.00000  Uiso   1.00
loop_
_geom_bond_atom_site_label_1
_geom_bond_atom_site_label_2
_geom_bond_distance
_geom_bond_site_symmetry_2
_ccdc_geom_bond_type
C1     O129    1.300   .     A
C1     C19     1.430   .     S
C1     O123    1.303   .     A
C2     C18     1.395   .     A
C2     H117    1.083   .     S
C2     C138    1.385   .     S
C3     C18     1.396   .     A
C3     H118    1.084   .     S
C3     C196    1.386   .     S
C4     C19     1.395   .     A
C4     H119    1.084   .     S
C4     C270    1.385   1_455 S
C5     C16     1.409   .     A
C5     O134    1.386   .     S
C5     C9      1.398   .     A
C6     O124    1.383   .     S
C6     C17     1.407   .     A
C6     C10     1.391   .     A
C7     C11     1.399   .     A
C7     C17     1.406   .     A
C7     O125    1.386   .     S
C8     C13     1.392   .     A
C8     C16     1.419   .     A
C8     O126    1.391   .     S
C9     C14     1.396   .     A
C9     H65     1.082   .     S
C10    C15     1.399   .     A
C10    H76     1.074   .     S
C11    H87     1.078   .     S
C11    C15     1.402   .     A
C12    O127    1.301   .     A
C12    O128    1.302   .     A
C12    C18     1.430   .     S
C13    H98     1.078   .     S
C13    C14     1.392   .     A
C14    C23     1.450   .     S
C15    C34     1.471   .     S
C16    C1223   1.465   1_554 S
C17    C1222   1.465   .     S
C19    C62     1.396   .     A
C20    C45     1.482   .     S
C20    C26     1.408   .     A
C20    C21     1.405   .     A
C21    H120    1.081   .     S
C21    C22     1.399   .     A
C22    H66     1.082   .     S
C22    C24     1.397   .     A
C23    O133    1.314   .     A
C23    O130    1.298   .     A
C24    H67     1.083   .     S
C24    C25     1.397   .     A
C25    H68     1.083   .     S
C25    C26     1.399   .     A
C26    H69     1.083   .     S
C27    C56     1.484   .     S
C27    C32     1.406   .     A
C27    C28     1.404   .     A
C28    C29     1.398   .     A
C28    H70     1.081   .     S
C29    C30     1.396   .     A
C29    H71     1.083   .     S
C30    C31     1.397   .     A
C30    H72     1.082   .     S
C31    H73     1.082   .     S
C31    C32     1.400   .     A
C32    H74     1.083   .     S
C33    C39     1.398   .     A
C33    C60     1.481   .     S
C33    C35     1.408   .     A
C34    O132    1.311   .     A
C34    O131    1.312   .     A
C35    C36     1.398   .     A
C35    H75     1.083   .     S
C36    C37     1.397   .     A
C36    H211    1.080   .     S
C37    C38     1.396   .     A
C37    H212    1.082   .     S
C38    H79     1.079   .     S
C38    C39     1.396   .     A
C39    H80     1.073   .     S
C40    C61     1.482   .     S
C40    C41     1.405   .     A
C40    C46     1.407   .     A
C41    C42     1.398   .     A
C41    H81     1.083   .     S
C42    H82     1.082   .     S
C42    C43     1.397   .     A
C43    H83     1.080   .     S
C43    C44     1.396   .     A
C44    C46     1.396   .     A
C44    H352    1.082   1_455 S
C45    N122    1.379   .     A
C45    C865    1.435   1_545 S
C46    H85     1.083   .     S
C47    C48     1.532   .     S
C47    O134    1.414   .     S
C47    H88     1.117   .     S
C47    H1292   1.110   1_554 S
C48    H90     1.109   .     S
C48    H89     1.108   .     S
C48    C49     1.526   .     S
C49    H93     1.110   .     S
C49    H225    1.109   .     S
C49    H226    1.110   .     S
C50    H95     1.117   .     S
C50    O124    1.417   .     S
C50    C51     1.529   .     S
C50    H1300   1.112   .     S
C51    H97     1.110   .     S
C51    H96     1.112   .     S
C51    C52     1.527   .     S
C52    H99     1.107   .     S
C52    H904    1.109   1_545 S
C52    H1307   1.110   .     S
C53    C54     1.529   .     S
C53    H102    1.111   .     S
C53    O125    1.417   .     S
C53    H103    1.117   .     S
C54    H105    1.112   .     S
C54    C457    1.527   .     S
C54    H506    1.112   .     S
C55    H107    1.111   .     S
C55    H108    1.111   .     S
C55    C858    1.527   1_545 S
C55    H910    1.111   1_545 S
C56    N121    1.377   .     A
C56    C462    1.433   .     S
C57    H111    1.115   .     S
C57    O126    1.414   .     S
C57    C1264   1.527   1_554 S
C57    H1316   1.109   1_554 S
C58    H112    1.111   .     S
C58    C1263   1.527   .     S
C58    C327    1.528   1_455 S
C58    H1319   1.111   .     S
C59    H114    1.109   .     S
C59    H115    1.107   .     S
C59    C192    1.528   .     S
C59    H250    1.111   .     S
C60    N122    1.379   .     A
C60    C860    1.433   1_545 S
C61    N121    1.375   .     A
C61    C447    1.435   .     S
C62    H109    1.083   .     S
C62    C271    1.386   1_455 S
Cu63   O130    1.934   .     S
Cu63   N121    2.051   .     S
Cu63   O123    1.938   .     S
Cu63   O132    1.943   .     S
Cu63   O128    1.936   .     S
Cu63   Cu64    2.729   .     S
Cu64   N122    2.051   .     S
Cu64   O133    1.943   .     S
Cu64   O129    1.936   .     S
Cu64   O131    1.934   .     S
Cu64   O127    1.938   .     S
H77    C304    1.080   1_455 S
H78    C305    1.082   1_455 S
H84    C178    1.082   .     S
H86    C1253   1.110   .     S
H91    C317    1.109   1_455 S
H92    C317    1.110   1_455 S
H94    C1256   1.112   1_554 S
H100   C454    1.109   .     S
H101   C1258   1.110   1_554 S
H104   C858    1.112   1_545 S
H106   C457    1.111   .     S
H110   C1263   1.109   .     S
H113   C1264   1.111   1_554 S
H116   C327    1.111   1_455 S
C135   O263    1.300   .     A
C135   C153    1.430   .     S
C135   O257    1.303   .     A
C136   C152    1.395   .     A
C136   H251    1.083   .     S
C136   C272    1.385   .     S
C137   C152    1.396   .     A
C137   H252    1.084   .     S
C137   C330    1.386   .     S
C138   C153    1.395   .     A
C138   H253    1.084   .     S
C139   C150    1.409   .     A
C139   O268    1.386   .     S
C139   C143    1.398   .     A
C140   O258    1.383   .     S
C140   C151    1.407   .     A
C140   C144    1.391   .     A
C141   C145    1.399   .     A
C141   C151    1.406   .     A
C141   O259    1.386   .     S
C142   C147    1.392   .     A
C142   C150    1.419   .     A
C142   O260    1.391   .     S
C143   C148    1.396   .     A
C143   H199    1.082   .     S
C144   C149    1.399   .     A
C144   H210    1.074   .     S
C145   H221    1.078   .     S
C145   C149    1.402   .     A
C146   O261    1.301   .     A
C146   O262    1.302   .     A
C146   C152    1.430   .     S
C147   H232    1.078   .     S
C147   C148    1.392   .     A
C148   C157    1.450   .     S
C149   C168    1.471   .     S
C150   C1357   1.465   1_554 S
C151   C1356   1.465   .     S
C153   C196    1.396   .     A
C154   C179    1.482   .     S
C154   C160    1.408   .     A
C154   C155    1.405   .     A
C155   H254    1.081   .     S
C155   C156    1.399   .     A
C156   H200    1.082   .     S
C156   C158    1.397   .     A
C157   O267    1.314   .     A
C157   O264    1.298   .     A
C158   H201    1.083   .     S
C158   C159    1.397   .     A
C159   H202    1.083   .     S
C159   C160    1.399   .     A
C160   H203    1.083   .     S
C161   C190    1.484   .     S
C161   C166    1.406   .     A
C161   C162    1.404   .     A
C162   C163    1.398   .     A
C162   H204    1.081   .     S
C163   C164    1.396   .     A
C163   H205    1.083   .     S
C164   C165    1.397   .     A
C164   H206    1.082   .     S
C165   H207    1.082   .     S
C165   C166    1.400   .     A
C166   H208    1.083   .     S
C167   C173    1.398   .     A
C167   C194    1.481   .     S
C167   C169    1.408   .     A
C168   O266    1.311   .     A
C168   O265    1.312   .     A
C169   C170    1.398   .     A
C169   H209    1.083   .     S
C170   C171    1.397   .     A
C170   H345    1.080   .     S
C171   C172    1.396   .     A
C171   H346    1.082   .     S
C172   H213    1.079   .     S
C172   C173    1.396   .     A
C173   H214    1.073   .     S
C174   C195    1.482   .     S
C174   C175    1.405   .     A
C174   C180    1.407   .     A
C175   C176    1.398   .     A
C175   H215    1.083   .     S
C176   H216    1.082   .     S
C176   C177    1.397   .     A
C177   H217    1.080   .     S
C177   C178    1.396   .     A
C178   C180    1.396   .     A
C179   N256    1.379   .     A
C179   C999    1.435   1_545 S
C180   H219    1.083   .     S
C181   C182    1.532   .     S
C181   O268    1.414   .     S
C181   H222    1.117   .     S
C181   H1426   1.110   1_554 S
C182   H224    1.109   .     S
C182   H223    1.108   .     S
C182   C183    1.526   .     S
C183   H227    1.110   .     S
C183   H359    1.109   .     S
C183   H360    1.110   .     S
C184   H229    1.117   .     S
C184   O258    1.417   .     S
C184   C185    1.529   .     S
C184   H1434   1.112   .     S
C185   H231    1.110   .     S
C185   H230    1.112   .     S
C185   C186    1.527   .     S
C186   H233    1.107   .     S
C186   H1038   1.109   1_545 S
C186   H1441   1.110   .     S
C187   C188    1.529   .     S
C187   H236    1.111   .     S
C187   O259    1.417   .     S
C187   H237    1.117   .     S
C188   H239    1.112   .     S
C188   C591    1.527   .     S
C188   H640    1.112   .     S
C189   H241    1.111   .     S
C189   H242    1.111   .     S
C189   C992    1.527   1_545 S
C189   H1044   1.111   1_545 S
C190   N255    1.377   .     A
C190   C596    1.433   .     S
C191   H245    1.115   .     S
C191   O260    1.414   .     S
C191   C1398   1.527   1_554 S
C191   H1450   1.109   1_554 S
C192   H246    1.111   .     S
C192   C1397   1.527   .     S
C192   H1453   1.111   .     S
C193   H248    1.109   .     S
C193   H249    1.107   .     S
C193   C326    1.528   .     S
C193   H384    1.111   .     S
C194   N256    1.379   .     A
C194   C994    1.433   1_545 S
C195   N255    1.375   .     A
C195   C581    1.435   .     S
C196   H243    1.083   .     S
Cu197  O264    1.934   .     S
Cu197  N255    2.051   .     S
Cu197  O257    1.938   .     S
Cu197  O266    1.943   .     S
Cu197  O262    1.936   .     S
Cu197  Cu198   2.729   .     S
Cu198  N256    2.051   .     S
Cu198  O267    1.943   .     S
Cu198  O263    1.936   .     S
Cu198  O265    1.934   .     S
Cu198  O261    1.938   .     S
H218   C312    1.082   .     S
H220   C1387   1.110   .     S
H228   C1390   1.112   1_554 S
H234   C588    1.109   .     S
H235   C1392   1.110   1_554 S
H238   C992    1.112   1_545 S
H240   C591    1.111   .     S
H244   C1397   1.109   .     S
H247   C1398   1.111   1_554 S
C269   O397    1.300   .     A
C269   C287    1.430   .     S
C269   O391    1.303   .     A
C270   C286    1.395   .     A
C270   H385    1.083   .     S
C270   C4      1.385   1_655 S
C271   C286    1.396   .     A
C271   H386    1.084   .     S
C271   C62     1.386   1_655 S
C272   C287    1.395   .     A
C272   H387    1.084   .     S
C273   C284    1.409   .     A
C273   O402    1.386   .     S
C273   C277    1.398   .     A
C274   O392    1.383   .     S
C274   C285    1.407   .     A
C274   C278    1.391   .     A
C275   C279    1.399   .     A
C275   C285    1.406   .     A
C275   O393    1.386   .     S
C276   C281    1.392   .     A
C276   C284    1.419   .     A
C276   O394    1.391   .     S
C277   C282    1.396   .     A
C277   H333    1.082   .     S
C278   C283    1.399   .     A
C278   H344    1.074   .     S
C279   H355    1.078   .     S
C279   C283    1.402   .     A
C280   O395    1.301   .     A
C280   O396    1.302   .     A
C280   C286    1.430   .     S
C281   H366    1.078   .     S
C281   C282    1.392   .     A
C282   C291    1.450   .     S
C283   C302    1.471   .     S
C284   C1491   1.465   1_554 S
C285   C1490   1.465   .     S
C287   C330    1.396   .     A
C288   C313    1.482   .     S
C288   C294    1.408   .     A
C288   C289    1.405   .     A
C289   H388    1.081   .     S
C289   C290    1.399   .     A
C290   H334    1.082   .     S
C290   C292    1.397   .     A
C291   O401    1.314   .     A
C291   O398    1.298   .     A
C292   H335    1.083   .     S
C292   C293    1.397   .     A
C293   H336    1.083   .     S
C293   C294    1.399   .     A
C294   H337    1.083   .     S
C295   C324    1.484   .     S
C295   C300    1.406   .     A
C295   C296    1.404   .     A
C296   C297    1.398   .     A
C296   H338    1.081   .     S
C297   C298    1.396   .     A
C297   H339    1.083   .     S
C298   C299    1.397   .     A
C298   H340    1.082   .     S
C299   H341    1.082   .     S
C299   C300    1.400   .     A
C300   H342    1.083   .     S
C301   C307    1.398   .     A
C301   C328    1.481   .     S
C301   C303    1.408   .     A
C302   O400    1.311   .     A
C302   O399    1.312   .     A
C303   C304    1.398   .     A
C303   H343    1.083   .     S
C304   C305    1.397   .     A
C304   H77     1.080   1_655 S
C305   C306    1.396   .     A
C305   H78     1.082   1_655 S
C306   H347    1.079   .     S
C306   C307    1.396   .     A
C307   H348    1.073   .     S
C308   C329    1.482   .     S
C308   C309    1.405   .     A
C308   C314    1.407   .     A
C309   C310    1.398   .     A
C309   H349    1.083   .     S
C310   H350    1.082   .     S
C310   C311    1.397   .     A
C311   H351    1.080   .     S
C311   C312    1.396   .     A
C312   C314    1.396   .     A
C313   N390    1.379   .     A
C313   C1133   1.435   1_545 S
C314   H353    1.083   .     S
C315   C316    1.532   .     S
C315   O402    1.414   .     S
C315   H356    1.117   .     S
C315   H1560   1.110   1_554 S
C316   H358    1.109   .     S
C316   H357    1.108   .     S
C316   C317    1.526   .     S
C317   H361    1.110   .     S
C317   H91     1.109   1_655 S
C317   H92     1.110   1_655 S
C318   H363    1.117   .     S
C318   O392    1.417   .     S
C318   C319    1.529   .     S
C318   H1568   1.112   .     S
C319   H365    1.110   .     S
C319   H364    1.112   .     S
C319   C320    1.527   .     S
C320   H367    1.107   .     S
C320   H1172   1.109   1_545 S
C320   H1575   1.110   .     S
C321   C322    1.529   .     S
C321   H370    1.111   .     S
C321   O393    1.417   .     S
C321   H371    1.117   .     S
C322   H373    1.112   .     S
C322   C725    1.527   .     S
C322   H774    1.112   .     S
C323   H375    1.111   .     S
C323   H376    1.111   .     S
C323   C1126   1.527   1_545 S
C323   H1178   1.111   1_545 S
C324   N389    1.377   .     A
C324   C730    1.433   .     S
C325   H379    1.115   .     S
C325   O394    1.414   .     S
C325   C1532   1.527   1_554 S
C325   H1584   1.109   1_554 S
C326   H380    1.111   .     S
C326   C1531   1.527   .     S
C326   H1587   1.111   .     S
C327   H382    1.109   .     S
C327   H383    1.107   .     S
C327   C58     1.528   1_655 S
C327   H116    1.111   1_655 S
C328   N390    1.379   .     A
C328   C1128   1.433   1_545 S
C329   N389    1.375   .     A
C329   C715    1.435   .     S
C330   H377    1.083   .     S
Cu331  O398    1.934   .     S
Cu331  N389    2.051   .     S
Cu331  O391    1.938   .     S
Cu331  O400    1.943   .     S
Cu331  O396    1.936   .     S
Cu331  Cu332   2.729   .     S
Cu332  N390    2.051   .     S
Cu332  O401    1.943   .     S
Cu332  O397    1.936   .     S
Cu332  O399    1.934   .     S
Cu332  O395    1.938   .     S
H352   C44     1.082   1_655 S
H354   C1521   1.110   .     S
H362   C1524   1.112   1_554 S
H368   C722    1.109   .     S
H369   C1526   1.110   1_554 S
H372   C1126   1.112   1_545 S
H374   C725    1.111   .     S
H378   C1531   1.109   .     S
H381   C1532   1.111   1_554 S
C403   O531    1.300   .     A
C403   C421    1.430   .     S
C403   O525    1.303   .     A
C404   C420    1.395   .     A
C404   H519    1.083   .     S
C404   C540    1.385   .     S
C405   C420    1.396   .     A
C405   H520    1.084   .     S
C405   C598    1.386   .     S
C406   C421    1.395   .     A
C406   H521    1.084   .     S
C406   C672    1.385   1_455 S
C407   C418    1.409   .     A
C407   O536    1.386   .     S
C407   C411    1.398   .     A
C408   O526    1.383   .     S
C408   C419    1.407   .     A
C408   C412    1.391   .     A
C409   C413    1.399   .     A
C409   C419    1.406   .     A
C409   O527    1.386   .     S
C410   C415    1.392   .     A
C410   C418    1.419   .     A
C410   O528    1.391   .     S
C411   C416    1.396   .     A
C411   H467    1.082   .     S
C412   C417    1.399   .     A
C412   H478    1.074   .     S
C413   H489    1.078   .     S
C413   C417    1.402   .     A
C414   O529    1.301   .     A
C414   O530    1.302   .     A
C414   C420    1.430   .     S
C415   H500    1.078   .     S
C415   C416    1.392   .     A
C416   C425    1.450   .     S
C417   C436    1.471   .     S
C418   C1625   1.465   1_554 S
C419   C1624   1.465   .     S
C421   C464    1.396   .     A
C422   C447    1.482   .     S
C422   C428    1.408   .     A
C422   C423    1.405   .     A
C423   H522    1.081   .     S
C423   C424    1.399   .     A
C424   H468    1.082   .     S
C424   C426    1.397   .     A
C425   O535    1.314   .     A
C425   O532    1.298   .     A
C426   H469    1.083   .     S
C426   C427    1.397   .     A
C427   H470    1.083   .     S
C427   C428    1.399   .     A
C428   H471    1.083   .     S
C429   C458    1.484   .     S
C429   C434    1.406   .     A
C429   C430    1.404   .     A
C430   C431    1.398   .     A
C430   H472    1.081   .     S
C431   C432    1.396   .     A
C431   H473    1.083   .     S
C432   C433    1.397   .     A
C432   H474    1.082   .     S
C433   H475    1.082   .     S
C433   C434    1.400   .     A
C434   H476    1.083   .     S
C435   C441    1.398   .     A
C435   C462    1.481   .     S
C435   C437    1.408   .     A
C436   O534    1.311   .     A
C436   O533    1.312   .     A
C437   C438    1.398   .     A
C437   H477    1.083   .     S
C438   C439    1.397   .     A
C438   H613    1.080   .     S
C439   C440    1.396   .     A
C439   H614    1.082   .     S
C440   H481    1.079   .     S
C440   C441    1.396   .     A
C441   H482    1.073   .     S
C442   C463    1.482   .     S
C442   C443    1.405   .     A
C442   C448    1.407   .     A
C443   C444    1.398   .     A
C443   H483    1.083   .     S
C444   H484    1.082   .     S
C444   C445    1.397   .     A
C445   H485    1.080   .     S
C445   C446    1.396   .     A
C446   C448    1.396   .     A
C446   H754    1.082   1_455 S
C447   N524    1.379   .     A
C448   H487    1.083   .     S
C449   C450    1.532   .     S
C449   O536    1.414   .     S
C449   H490    1.117   .     S
C449   H1694   1.110   1_554 S
C450   H492    1.109   .     S
C450   H491    1.108   .     S
C450   C451    1.526   .     S
C451   H495    1.110   .     S
C451   H627    1.109   .     S
C451   H628    1.110   .     S
C452   H497    1.117   .     S
C452   O526    1.417   .     S
C452   C453    1.529   .     S
C452   H1702   1.112   .     S
C453   H499    1.110   .     S
C453   H498    1.112   .     S
C453   C454    1.527   .     S
C454   H501    1.107   .     S
C454   H1709   1.110   .     S
C455   C456    1.529   .     S
C455   H504    1.111   .     S
C455   O527    1.417   .     S
C455   H505    1.117   .     S
C456   H507    1.112   .     S
C456   C859    1.527   .     S
C456   H908    1.112   .     S
C457   H509    1.111   .     S
C457   H510    1.111   .     S
C458   N523    1.377   .     A
C458   C864    1.433   .     S
C459   H513    1.115   .     S
C459   O528    1.414   .     S
C459   C1666   1.527   1_554 S
C459   H1718   1.109   1_554 S
C460   H514    1.111   .     S
C460   C1665   1.527   .     S
C460   C729    1.528   1_455 S
C460   H1721   1.111   .     S
C461   H516    1.109   .     S
C461   H517    1.107   .     S
C461   C594    1.528   .     S
C461   H652    1.111   .     S
C462   N524    1.379   .     A
C463   N523    1.375   .     A
C463   C849    1.435   .     S
C464   H511    1.083   .     S
C464   C673    1.386   1_455 S
Cu465  O532    1.934   .     S
Cu465  N523    2.051   .     S
Cu465  O525    1.938   .     S
Cu465  O534    1.943   .     S
Cu465  O530    1.936   .     S
Cu465  Cu466   2.729   .     S
Cu466  N524    2.051   .     S
Cu466  O535    1.943   .     S
Cu466  O531    1.936   .     S
Cu466  O533    1.934   .     S
Cu466  O529    1.938   .     S
H479   C706    1.080   1_455 S
H480   C707    1.082   1_455 S
H486   C580    1.082   .     S
H488   C1655   1.110   .     S
H493   C719    1.109   1_455 S
H494   C719    1.110   1_455 S
H496   C1658   1.112   1_554 S
H502   C856    1.109   .     S
H503   C1660   1.110   1_554 S
H508   C859    1.111   .     S
H512   C1665   1.109   .     S
H515   C1666   1.111   1_554 S
H518   C729    1.111   1_455 S
C537   O665    1.300   .     A
C537   C555    1.430   .     S
C537   O659    1.303   .     A
C538   C554    1.395   .     A
C538   H653    1.083   .     S
C538   C674    1.385   .     S
C539   C554    1.396   .     A
C539   H654    1.084   .     S
C539   C732    1.386   .     S
C540   C555    1.395   .     A
C540   H655    1.084   .     S
C541   C552    1.409   .     A
C541   O670    1.386   .     S
C541   C545    1.398   .     A
C542   O660    1.383   .     S
C542   C553    1.407   .     A
C542   C546    1.391   .     A
C543   C547    1.399   .     A
C543   C553    1.406   .     A
C543   O661    1.386   .     S
C544   C549    1.392   .     A
C544   C552    1.419   .     A
C544   O662    1.391   .     S
C545   C550    1.396   .     A
C545   H601    1.082   .     S
C546   C551    1.399   .     A
C546   H612    1.074   .     S
C547   H623    1.078   .     S
C547   C551    1.402   .     A
C548   O663    1.301   .     A
C548   O664    1.302   .     A
C548   C554    1.430   .     S
C549   H634    1.078   .     S
C549   C550    1.392   .     A
C550   C559    1.450   .     S
C551   C570    1.471   .     S
C552   C1759   1.465   1_554 S
C553   C1758   1.465   .     S
C555   C598    1.396   .     A
C556   C581    1.482   .     S
C556   C562    1.408   .     A
C556   C557    1.405   .     A
C557   H656    1.081   .     S
C557   C558    1.399   .     A
C558   H602    1.082   .     S
C558   C560    1.397   .     A
C559   O669    1.314   .     A
C559   O666    1.298   .     A
C560   H603    1.083   .     S
C560   C561    1.397   .     A
C561   H604    1.083   .     S
C561   C562    1.399   .     A
C562   H605    1.083   .     S
C563   C592    1.484   .     S
C563   C568    1.406   .     A
C563   C564    1.404   .     A
C564   C565    1.398   .     A
C564   H606    1.081   .     S
C565   C566    1.396   .     A
C565   H607    1.083   .     S
C566   C567    1.397   .     A
C566   H608    1.082   .     S
C567   H609    1.082   .     S
C567   C568    1.400   .     A
C568   H610    1.083   .     S
C569   C575    1.398   .     A
C569   C596    1.481   .     S
C569   C571    1.408   .     A
C570   O668    1.311   .     A
C570   O667    1.312   .     A
C571   C572    1.398   .     A
C571   H611    1.083   .     S
C572   C573    1.397   .     A
C572   H747    1.080   .     S
C573   C574    1.396   .     A
C573   H748    1.082   .     S
C574   H615    1.079   .     S
C574   C575    1.396   .     A
C575   H616    1.073   .     S
C576   C597    1.482   .     S
C576   C577    1.405   .     A
C576   C582    1.407   .     A
C577   C578    1.398   .     A
C577   H617    1.083   .     S
C578   H618    1.082   .     S
C578   C579    1.397   .     A
C579   H619    1.080   .     S
C579   C580    1.396   .     A
C580   C582    1.396   .     A
C581   N658    1.379   .     A
C582   H621    1.083   .     S
C583   C584    1.532   .     S
C583   O670    1.414   .     S
C583   H624    1.117   .     S
C583   H1828   1.110   1_554 S
C584   H626    1.109   .     S
C584   H625    1.108   .     S
C584   C585    1.526   .     S
C585   H629    1.110   .     S
C585   H761    1.109   .     S
C585   H762    1.110   .     S
C586   H631    1.117   .     S
C586   O660    1.417   .     S
C586   C587    1.529   .     S
C586   H1836   1.112   .     S
C587   H633    1.110   .     S
C587   H632    1.112   .     S
C587   C588    1.527   .     S
C588   H635    1.107   .     S
C588   H1843   1.110   .     S
C589   C590    1.529   .     S
C589   H638    1.111   .     S
C589   O661    1.417   .     S
C589   H639    1.117   .     S
C590   H641    1.112   .     S
C590   C993    1.527   .     S
C590   H1042   1.112   .     S
C591   H643    1.111   .     S
C591   H644    1.111   .     S
C592   N657    1.377   .     A
C592   C998    1.433   .     S
C593   H647    1.115   .     S
C593   O662    1.414   .     S
C593   C1800   1.527   1_554 S
C593   H1852   1.109   1_554 S
C594   H648    1.111   .     S
C594   C1799   1.527   .     S
C594   H1855   1.111   .     S
C595   H650    1.109   .     S
C595   H651    1.107   .     S
C595   C728    1.528   .     S
C595   H786    1.111   .     S
C596   N658    1.379   .     A
C597   N657    1.375   .     A
C597   C983    1.435   .     S
C598   H645    1.083   .     S
Cu599  O666    1.934   .     S
Cu599  N657    2.051   .     S
Cu599  O659    1.938   .     S
Cu599  O668    1.943   .     S
Cu599  O664    1.936   .     S
Cu599  Cu600   2.729   .     S
Cu600  N658    2.051   .     S
Cu600  O669    1.943   .     S
Cu600  O665    1.936   .     S
Cu600  O667    1.934   .     S
Cu600  O663    1.938   .     S
H620   C714    1.082   .     S
H622   C1789   1.110   .     S
H630   C1792   1.112   1_554 S
H636   C990    1.109   .     S
H637   C1794   1.110   1_554 S
H642   C993    1.111   .     S
H646   C1799   1.109   .     S
H649   C1800   1.111   1_554 S
C671   O799    1.300   .     A
C671   C689    1.430   .     S
C671   O793    1.303   .     A
C672   C688    1.395   .     A
C672   H787    1.083   .     S
C672   C406    1.385   1_655 S
C673   C688    1.396   .     A
C673   H788    1.084   .     S
C673   C464    1.386   1_655 S
C674   C689    1.395   .     A
C674   H789    1.084   .     S
C675   C686    1.409   .     A
C675   O804    1.386   .     S
C675   C679    1.398   .     A
C676   O794    1.383   .     S
C676   C687    1.407   .     A
C676   C680    1.391   .     A
C677   C681    1.399   .     A
C677   C687    1.406   .     A
C677   O795    1.386   .     S
C678   C683    1.392   .     A
C678   C686    1.419   .     A
C678   O796    1.391   .     S
C679   C684    1.396   .     A
C679   H735    1.082   .     S
C680   C685    1.399   .     A
C680   H746    1.074   .     S
C681   H757    1.078   .     S
C681   C685    1.402   .     A
C682   O797    1.301   .     A
C682   O798    1.302   .     A
C682   C688    1.430   .     S
C683   H768    1.078   .     S
C683   C684    1.392   .     A
C684   C693    1.450   .     S
C685   C704    1.471   .     S
C686   C1893   1.465   1_554 S
C687   C1892   1.465   .     S
C689   C732    1.396   .     A
C690   C715    1.482   .     S
C690   C696    1.408   .     A
C690   C691    1.405   .     A
C691   H790    1.081   .     S
C691   C692    1.399   .     A
C692   H736    1.082   .     S
C692   C694    1.397   .     A
C693   O803    1.314   .     A
C693   O800    1.298   .     A
C694   H737    1.083   .     S
C694   C695    1.397   .     A
C695   H738    1.083   .     S
C695   C696    1.399   .     A
C696   H739    1.083   .     S
C697   C726    1.484   .     S
C697   C702    1.406   .     A
C697   C698    1.404   .     A
C698   C699    1.398   .     A
C698   H740    1.081   .     S
C699   C700    1.396   .     A
C699   H741    1.083   .     S
C700   C701    1.397   .     A
C700   H742    1.082   .     S
C701   H743    1.082   .     S
C701   C702    1.400   .     A
C702   H744    1.083   .     S
C703   C709    1.398   .     A
C703   C730    1.481   .     S
C703   C705    1.408   .     A
C704   O802    1.311   .     A
C704   O801    1.312   .     A
C705   C706    1.398   .     A
C705   H745    1.083   .     S
C706   C707    1.397   .     A
C706   H479    1.080   1_655 S
C707   C708    1.396   .     A
C707   H480    1.082   1_655 S
C708   H749    1.079   .     S
C708   C709    1.396   .     A
C709   H750    1.073   .     S
C710   C731    1.482   .     S
C710   C711    1.405   .     A
C710   C716    1.407   .     A
C711   C712    1.398   .     A
C711   H751    1.083   .     S
C712   H752    1.082   .     S
C712   C713    1.397   .     A
C713   H753    1.080   .     S
C713   C714    1.396   .     A
C714   C716    1.396   .     A
C715   N792    1.379   .     A
C716   H755    1.083   .     S
C717   C718    1.532   .     S
C717   O804    1.414   .     S
C717   H758    1.117   .     S
C717   H1962   1.110   1_554 S
C718   H760    1.109   .     S
C718   H759    1.108   .     S
C718   C719    1.526   .     S
C719   H763    1.110   .     S
C719   H493    1.109   1_655 S
C719   H494    1.110   1_655 S
C720   H765    1.117   .     S
C720   O794    1.417   .     S
C720   C721    1.529   .     S
C720   H1970   1.112   .     S
C721   H767    1.110   .     S
C721   H766    1.112   .     S
C721   C722    1.527   .     S
C722   H769    1.107   .     S
C722   H1977   1.110   .     S
C723   C724    1.529   .     S
C723   H772    1.111   .     S
C723   O795    1.417   .     S
C723   H773    1.117   .     S
C724   H775    1.112   .     S
C724   C1127   1.527   .     S
C724   H1176   1.112   .     S
C725   H777    1.111   .     S
C725   H778    1.111   .     S
C726   N791    1.377   .     A
C726   C1132   1.433   .     S
C727   H781    1.115   .     S
C727   O796    1.414   .     S
C727   C1934   1.527   1_554 S
C727   H1986   1.109   1_554 S
C728   H782    1.111   .     S
C728   C1933   1.527   .     S
C728   H1989   1.111   .     S
C729   H784    1.109   .     S
C729   H785    1.107   .     S
C729   C460    1.528   1_655 S
C729   H518    1.111   1_655 S
C730   N792    1.379   .     A
C731   N791    1.375   .     A
C731   C1117   1.435   .     S
C732   H779    1.083   .     S
Cu733  O800    1.934   .     S
Cu733  N791    2.051   .     S
Cu733  O793    1.938   .     S
Cu733  O802    1.943   .     S
Cu733  O798    1.936   .     S
Cu733  Cu734   2.729   .     S
Cu734  N792    2.051   .     S
Cu734  O803    1.943   .     S
Cu734  O799    1.936   .     S
Cu734  O801    1.934   .     S
Cu734  O797    1.938   .     S
H754   C446    1.082   1_655 S
H756   C1923   1.110   .     S
H764   C1926   1.112   1_554 S
H770   C1124   1.109   .     S
H771   C1928   1.110   1_554 S
H776   C1127   1.111   .     S
H780   C1933   1.109   .     S
H783   C1934   1.111   1_554 S
C805   O933    1.300   .     A
C805   C823    1.430   .     S
C805   O927    1.303   .     A
C806   C822    1.395   .     A
C806   H921    1.083   .     S
C806   C942    1.385   .     S
C807   C822    1.396   .     A
C807   H922    1.084   .     S
C807   C1000   1.386   .     S
C808   C823    1.395   .     A
C808   H923    1.084   .     S
C808   C1074   1.385   1_455 S
C809   C820    1.409   .     A
C809   O938    1.386   .     S
C809   C813    1.398   .     A
C810   O928    1.383   .     S
C810   C821    1.407   .     A
C810   C814    1.391   .     A
C811   C815    1.399   .     A
C811   C821    1.406   .     A
C811   O929    1.386   .     S
C812   C817    1.392   .     A
C812   C820    1.419   .     A
C812   O930    1.391   .     S
C813   C818    1.396   .     A
C813   H869    1.082   .     S
C814   C819    1.399   .     A
C814   H880    1.074   .     S
C815   H891    1.078   .     S
C815   C819    1.402   .     A
C816   O931    1.301   .     A
C816   O932    1.302   .     A
C816   C822    1.430   .     S
C817   H902    1.078   .     S
C817   C818    1.392   .     A
C818   C827    1.450   .     S
C819   C838    1.471   .     S
C820   C2027   1.465   1_554 S
C821   C2026   1.465   .     S
C823   C866    1.396   .     A
C824   C849    1.482   .     S
C824   C830    1.408   .     A
C824   C825    1.405   .     A
C825   H924    1.081   .     S
C825   C826    1.399   .     A
C826   H870    1.082   .     S
C826   C828    1.397   .     A
C827   O937    1.314   .     A
C827   O934    1.298   .     A
C828   H871    1.083   .     S
C828   C829    1.397   .     A
C829   H872    1.083   .     S
C829   C830    1.399   .     A
C830   H873    1.083   .     S
C831   C860    1.484   .     S
C831   C836    1.406   .     A
C831   C832    1.404   .     A
C832   C833    1.398   .     A
C832   H874    1.081   .     S
C833   C834    1.396   .     A
C833   H875    1.083   .     S
C834   C835    1.397   .     A
C834   H876    1.082   .     S
C835   H877    1.082   .     S
C835   C836    1.400   .     A
C836   H878    1.083   .     S
C837   C843    1.398   .     A
C837   C864    1.481   .     S
C837   C839    1.408   .     A
C838   O936    1.311   .     A
C838   O935    1.312   .     A
C839   C840    1.398   .     A
C839   H879    1.083   .     S
C840   C841    1.397   .     A
C840   H1015   1.080   .     S
C841   C842    1.396   .     A
C841   H1016   1.082   .     S
C842   H883    1.079   .     S
C842   C843    1.396   .     A
C843   H884    1.073   .     S
C844   C865    1.482   .     S
C844   C845    1.405   .     A
C844   C850    1.407   .     A
C845   C846    1.398   .     A
C845   H885    1.083   .     S
C846   H886    1.082   .     S
C846   C847    1.397   .     A
C847   H887    1.080   .     S
C847   C848    1.396   .     A
C848   C850    1.396   .     A
C848   H1156   1.082   1_455 S
C849   N926    1.379   .     A
C850   H889    1.083   .     S
C851   C852    1.532   .     S
C851   O938    1.414   .     S
C851   H892    1.117   .     S
C851   H2096   1.110   1_554 S
C852   H894    1.109   .     S
C852   H893    1.108   .     S
C852   C853    1.526   .     S
C853   H897    1.110   .     S
C853   H1029   1.109   .     S
C853   H1030   1.110   .     S
C854   H899    1.117   .     S
C854   O928    1.417   .     S
C854   C855    1.529   .     S
C854   H2104   1.112   .     S
C855   H901    1.110   .     S
C855   H900    1.112   .     S
C855   C856    1.527   .     S
C856   H903    1.107   .     S
C856   H2111   1.110   .     S
C857   C858    1.529   .     S
C857   H906    1.111   .     S
C857   O929    1.417   .     S
C857   H907    1.117   .     S
C858   H909    1.112   .     S
C858   C55     1.527   1_565 S
C858   H104    1.112   1_565 S
C859   H911    1.111   .     S
C859   H912    1.111   .     S
C860   N925    1.377   .     A
C860   C60     1.433   1_565 S
C861   H915    1.115   .     S
C861   O930    1.414   .     S
C861   C2068   1.527   1_554 S
C861   H2120   1.109   1_554 S
C862   H916    1.111   .     S
C862   C2067   1.527   .     S
C862   C1131   1.528   1_455 S
C862   H2123   1.111   .     S
C863   H918    1.109   .     S
C863   H919    1.107   .     S
C863   C996    1.528   .     S
C863   H1054   1.111   .     S
C864   N926    1.379   .     A
C865   N925    1.375   .     A
C865   C45     1.435   1_565 S
C866   H913    1.083   .     S
C866   C1075   1.386   1_455 S
Cu867  O934    1.934   .     S
Cu867  N925    2.051   .     S
Cu867  O927    1.938   .     S
Cu867  O936    1.943   .     S
Cu867  O932    1.936   .     S
Cu867  Cu868   2.729   .     S
Cu868  N926    2.051   .     S
Cu868  O937    1.943   .     S
Cu868  O933    1.936   .     S
Cu868  O935    1.934   .     S
Cu868  O931    1.938   .     S
H881   C1108   1.080   1_455 S
H882   C1109   1.082   1_455 S
H888   C982    1.082   .     S
H890   C2057   1.110   .     S
H895   C1121   1.109   1_455 S
H896   C1121   1.110   1_455 S
H898   C2060   1.112   1_554 S
H904   C52     1.109   1_565 S
H905   C2062   1.110   1_554 S
H910   C55     1.111   1_565 S
H914   C2067   1.109   .     S
H917   C2068   1.111   1_554 S
H920   C1131   1.111   1_455 S
C939   O1067   1.300   .     A
C939   C957    1.430   .     S
C939   O1061   1.303   .     A
C940   C956    1.395   .     A
C940   H1055   1.083   .     S
C940   C1076   1.385   .     S
C941   C956    1.396   .     A
C941   H1056   1.084   .     S
C941   C1134   1.386   .     S
C942   C957    1.395   .     A
C942   H1057   1.084   .     S
C943   C954    1.409   .     A
C943   O1072   1.386   .     S
C943   C947    1.398   .     A
C944   O1062   1.383   .     S
C944   C955    1.407   .     A
C944   C948    1.391   .     A
C945   C949    1.399   .     A
C945   C955    1.406   .     A
C945   O1063   1.386   .     S
C946   C951    1.392   .     A
C946   C954    1.419   .     A
C946   O1064   1.391   .     S
C947   C952    1.396   .     A
C947   H1003   1.082   .     S
C948   C953    1.399   .     A
C948   H1014   1.074   .     S
C949   H1025   1.078   .     S
C949   C953    1.402   .     A
C950   O1065   1.301   .     A
C950   O1066   1.302   .     A
C950   C956    1.430   .     S
C951   H1036   1.078   .     S
C951   C952    1.392   .     A
C952   C961    1.450   .     S
C953   C972    1.471   .     S
C954   C2161   1.465   1_554 S
C955   C2160   1.465   .     S
C957   C1000   1.396   .     A
C958   C983    1.482   .     S
C958   C964    1.408   .     A
C958   C959    1.405   .     A
C959   H1058   1.081   .     S
C959   C960    1.399   .     A
C960   H1004   1.082   .     S
C960   C962    1.397   .     A
C961   O1071   1.314   .     A
C961   O1068   1.298   .     A
C962   H1005   1.083   .     S
C962   C963    1.397   .     A
C963   H1006   1.083   .     S
C963   C964    1.399   .     A
C964   H1007   1.083   .     S
C965   C994    1.484   .     S
C965   C970    1.406   .     A
C965   C966    1.404   .     A
C966   C967    1.398   .     A
C966   H1008   1.081   .     S
C967   C968    1.396   .     A
C967   H1009   1.083   .     S
C968   C969    1.397   .     A
C968   H1010   1.082   .     S
C969   H1011   1.082   .     S
C969   C970    1.400   .     A
C970   H1012   1.083   .     S
C971   C977    1.398   .     A
C971   C998    1.481   .     S
C971   C973    1.408   .     A
C972   O1070   1.311   .     A
C972   O1069   1.312   .     A
C973   C974    1.398   .     A
C973   H1013   1.083   .     S
C974   C975    1.397   .     A
C974   H1149   1.080   .     S
C975   C976    1.396   .     A
C975   H1150   1.082   .     S
C976   H1017   1.079   .     S
C976   C977    1.396   .     A
C977   H1018   1.073   .     S
C978   C999    1.482   .     S
C978   C979    1.405   .     A
C978   C984    1.407   .     A
C979   C980    1.398   .     A
C979   H1019   1.083   .     S
C980   H1020   1.082   .     S
C980   C981    1.397   .     A
C981   H1021   1.080   .     S
C981   C982    1.396   .     A
C982   C984    1.396   .     A
C983   N1060   1.379   .     A
C984   H1023   1.083   .     S
C985   C986    1.532   .     S
C985   O1072   1.414   .     S
C985   H1026   1.117   .     S
C985   H2230   1.110   1_554 S
C986   H1028   1.109   .     S
C986   H1027   1.108   .     S
C986   C987    1.526   .     S
C987   H1031   1.110   .     S
C987   H1163   1.109   .     S
C987   H1164   1.110   .     S
C988   H1033   1.117   .     S
C988   O1062   1.417   .     S
C988   C989    1.529   .     S
C988   H2238   1.112   .     S
C989   H1035   1.110   .     S
C989   H1034   1.112   .     S
C989   C990    1.527   .     S
C990   H1037   1.107   .     S
C990   H2245   1.110   .     S
C991   C992    1.529   .     S
C991   H1040   1.111   .     S
C991   O1063   1.417   .     S
C991   H1041   1.117   .     S
C992   H1043   1.112   .     S
C992   C189    1.527   1_565 S
C992   H238    1.112   1_565 S
C993   H1045   1.111   .     S
C993   H1046   1.111   .     S
C994   N1059   1.377   .     A
C994   C194    1.433   1_565 S
C995   H1049   1.115   .     S
C995   O1064   1.414   .     S
C995   C2202   1.527   1_554 S
C995   H2254   1.109   1_554 S
C996   H1050   1.111   .     S
C996   C2201   1.527   .     S
C996   H2257   1.111   .     S
C997   H1052   1.109   .     S
C997   H1053   1.107   .     S
C997   C1130   1.528   .     S
C997   H1188   1.111   .     S
C998   N1060   1.379   .     A
C999   N1059   1.375   .     A
C999   C179    1.435   1_565 S
C1000  H1047   1.083   .     S
Cu1001 O1068   1.934   .     S
Cu1001 N1059   2.051   .     S
Cu1001 O1061   1.938   .     S
Cu1001 O1070   1.943   .     S
Cu1001 O1066   1.936   .     S
Cu1001 Cu1002  2.729   .     S
Cu1002 N1060   2.051   .     S
Cu1002 O1071   1.943   .     S
Cu1002 O1067   1.936   .     S
Cu1002 O1069   1.934   .     S
Cu1002 O1065   1.938   .     S
H1022  C1116   1.082   .     S
H1024  C2191   1.110   .     S
H1032  C2194   1.112   1_554 S
H1038  C186    1.109   1_565 S
H1039  C2196   1.110   1_554 S
H1044  C189    1.111   1_565 S
H1048  C2201   1.109   .     S
H1051  C2202   1.111   1_554 S
C1073  O1201   1.300   .     A
C1073  C1091   1.430   .     S
C1073  O1195   1.303   .     A
C1074  C1090   1.395   .     A
C1074  H1189   1.083   .     S
C1074  C808    1.385   1_655 S
C1075  C1090   1.396   .     A
C1075  H1190   1.084   .     S
C1075  C866    1.386   1_655 S
C1076  C1091   1.395   .     A
C1076  H1191   1.084   .     S
C1077  C1088   1.409   .     A
C1077  O1206   1.386   .     S
C1077  C1081   1.398   .     A
C1078  O1196   1.383   .     S
C1078  C1089   1.407   .     A
C1078  C1082   1.391   .     A
C1079  C1083   1.399   .     A
C1079  C1089   1.406   .     A
C1079  O1197   1.386   .     S
C1080  C1085   1.392   .     A
C1080  C1088   1.419   .     A
C1080  O1198   1.391   .     S
C1081  C1086   1.396   .     A
C1081  H1137   1.082   .     S
C1082  C1087   1.399   .     A
C1082  H1148   1.074   .     S
C1083  H1159   1.078   .     S
C1083  C1087   1.402   .     A
C1084  O1199   1.301   .     A
C1084  O1200   1.302   .     A
C1084  C1090   1.430   .     S
C1085  H1170   1.078   .     S
C1085  C1086   1.392   .     A
C1086  C1095   1.450   .     S
C1087  C1106   1.471   .     S
C1088  C2295   1.465   1_554 S
C1089  C2294   1.465   .     S
C1091  C1134   1.396   .     A
C1092  C1117   1.482   .     S
C1092  C1098   1.408   .     A
C1092  C1093   1.405   .     A
C1093  H1192   1.081   .     S
C1093  C1094   1.399   .     A
C1094  H1138   1.082   .     S
C1094  C1096   1.397   .     A
C1095  O1205   1.314   .     A
C1095  O1202   1.298   .     A
C1096  H1139   1.083   .     S
C1096  C1097   1.397   .     A
C1097  H1140   1.083   .     S
C1097  C1098   1.399   .     A
C1098  H1141   1.083   .     S
C1099  C1128   1.484   .     S
C1099  C1104   1.406   .     A
C1099  C1100   1.404   .     A
C1100  C1101   1.398   .     A
C1100  H1142   1.081   .     S
C1101  C1102   1.396   .     A
C1101  H1143   1.083   .     S
C1102  C1103   1.397   .     A
C1102  H1144   1.082   .     S
C1103  H1145   1.082   .     S
C1103  C1104   1.400   .     A
C1104  H1146   1.083   .     S
C1105  C1111   1.398   .     A
C1105  C1132   1.481   .     S
C1105  C1107   1.408   .     A
C1106  O1204   1.311   .     A
C1106  O1203   1.312   .     A
C1107  C1108   1.398   .     A
C1107  H1147   1.083   .     S
C1108  C1109   1.397   .     A
C1108  H881    1.080   1_655 S
C1109  C1110   1.396   .     A
C1109  H882    1.082   1_655 S
C1110  H1151   1.079   .     S
C1110  C1111   1.396   .     A
C1111  H1152   1.073   .     S
C1112  C1133   1.482   .     S
C1112  C1113   1.405   .     A
C1112  C1118   1.407   .     A
C1113  C1114   1.398   .     A
C1113  H1153   1.083   .     S
C1114  H1154   1.082   .     S
C1114  C1115   1.397   .     A
C1115  H1155   1.080   .     S
C1115  C1116   1.396   .     A
C1116  C1118   1.396   .     A
C1117  N1194   1.379   .     A
C1118  H1157   1.083   .     S
C1119  C1120   1.532   .     S
C1119  O1206   1.414   .     S
C1119  H1160   1.117   .     S
C1119  H2364   1.110   1_554 S
C1120  H1162   1.109   .     S
C1120  H1161   1.108   .     S
C1120  C1121   1.526   .     S
C1121  H1165   1.110   .     S
C1121  H895    1.109   1_655 S
C1121  H896    1.110   1_655 S
C1122  H1167   1.117   .     S
C1122  O1196   1.417   .     S
C1122  C1123   1.529   .     S
C1122  H2372   1.112   .     S
C1123  H1169   1.110   .     S
C1123  H1168   1.112   .     S
C1123  C1124   1.527   .     S
C1124  H1171   1.107   .     S
C1124  H2379   1.110   .     S
C1125  C1126   1.529   .     S
C1125  H1174   1.111   .     S
C1125  O1197   1.417   .     S
C1125  H1175   1.117   .     S
C1126  H1177   1.112   .     S
C1126  C323    1.527   1_565 S
C1126  H372    1.112   1_565 S
C1127  H1179   1.111   .     S
C1127  H1180   1.111   .     S
C1128  N1193   1.377   .     A
C1128  C328    1.433   1_565 S
C1129  H1183   1.115   .     S
C1129  O1198   1.414   .     S
C1129  C2336   1.527   1_554 S
C1129  H2388   1.109   1_554 S
C1130  H1184   1.111   .     S
C1130  C2335   1.527   .     S
C1130  H2391   1.111   .     S
C1131  H1186   1.109   .     S
C1131  H1187   1.107   .     S
C1131  C862    1.528   1_655 S
C1131  H920    1.111   1_655 S
C1132  N1194   1.379   .     A
C1133  N1193   1.375   .     A
C1133  C313    1.435   1_565 S
C1134  H1181   1.083   .     S
Cu1135 O1202   1.934   .     S
Cu1135 N1193   2.051   .     S
Cu1135 O1195   1.938   .     S
Cu1135 O1204   1.943   .     S
Cu1135 O1200   1.936   .     S
Cu1135 Cu1136  2.729   .     S
Cu1136 N1194   2.051   .     S
Cu1136 O1205   1.943   .     S
Cu1136 O1201   1.936   .     S
Cu1136 O1203   1.934   .     S
Cu1136 O1199   1.938   .     S
H1156  C848    1.082   1_655 S
H1158  C2325   1.110   .     S
H1166  C2328   1.112   1_554 S
H1172  C320    1.109   1_565 S
H1173  C2330   1.110   1_554 S
H1178  C323    1.111   1_565 S
H1182  C2335   1.109   .     S
H1185  C2336   1.111   1_554 S
C1207  O1335   1.300   .     A
C1207  C1225   1.430   .     S
C1207  O1329   1.303   .     A
C1208  C1224   1.395   .     A
C1208  H1323   1.083   .     S
C1208  C1344   1.385   .     S
C1209  C1224   1.396   .     A
C1209  H1324   1.084   .     S
C1209  C1402   1.386   .     S
C1210  C1225   1.395   .     A
C1210  H1325   1.084   .     S
C1210  C1476   1.385   1_455 S
C1211  C1222   1.409   .     A
C1211  O1340   1.386   .     S
C1211  C1215   1.398   .     A
C1212  O1330   1.383   .     S
C1212  C1223   1.407   .     A
C1212  C1216   1.391   .     A
C1213  C1217   1.399   .     A
C1213  C1223   1.406   .     A
C1213  O1331   1.386   .     S
C1214  C1219   1.392   .     A
C1214  C1222   1.419   .     A
C1214  O1332   1.391   .     S
C1215  C1220   1.396   .     A
C1215  H1271   1.082   .     S
C1216  C1221   1.399   .     A
C1216  H1282   1.074   .     S
C1217  H1293   1.078   .     S
C1217  C1221   1.402   .     A
C1218  O1333   1.301   .     A
C1218  O1334   1.302   .     A
C1218  C1224   1.430   .     S
C1219  H1304   1.078   .     S
C1219  C1220   1.392   .     A
C1220  C1229   1.450   .     S
C1221  C1240   1.471   .     S
C1223  C16     1.465   1_556 S
C1225  C1268   1.396   .     A
C1226  C1251   1.482   .     S
C1226  C1232   1.408   .     A
C1226  C1227   1.405   .     A
C1227  H1326   1.081   .     S
C1227  C1228   1.399   .     A
C1228  H1272   1.082   .     S
C1228  C1230   1.397   .     A
C1229  O1339   1.314   .     A
C1229  O1336   1.298   .     A
C1230  H1273   1.083   .     S
C1230  C1231   1.397   .     A
C1231  H1274   1.083   .     S
C1231  C1232   1.399   .     A
C1232  H1275   1.083   .     S
C1233  C1262   1.484   .     S
C1233  C1238   1.406   .     A
C1233  C1234   1.404   .     A
C1234  C1235   1.398   .     A
C1234  H1276   1.081   .     S
C1235  C1236   1.396   .     A
C1235  H1277   1.083   .     S
C1236  C1237   1.397   .     A
C1236  H1278   1.082   .     S
C1237  H1279   1.082   .     S
C1237  C1238   1.400   .     A
C1238  H1280   1.083   .     S
C1239  C1245   1.398   .     A
C1239  C1266   1.481   .     S
C1239  C1241   1.408   .     A
C1240  O1338   1.311   .     A
C1240  O1337   1.312   .     A
C1241  C1242   1.398   .     A
C1241  H1281   1.083   .     S
C1242  C1243   1.397   .     A
C1242  H1417   1.080   .     S
C1243  C1244   1.396   .     A
C1243  H1418   1.082   .     S
C1244  H1285   1.079   .     S
C1244  C1245   1.396   .     A
C1245  H1286   1.073   .     S
C1246  C1267   1.482   .     S
C1246  C1247   1.405   .     A
C1246  C1252   1.407   .     A
C1247  C1248   1.398   .     A
C1247  H1287   1.083   .     S
C1248  H1288   1.082   .     S
C1248  C1249   1.397   .     A
C1249  H1289   1.080   .     S
C1249  C1250   1.396   .     A
C1250  C1252   1.396   .     A
C1250  H1558   1.082   1_455 S
C1251  N1328   1.379   .     A
C1251  C2071   1.435   1_545 S
C1252  H1291   1.083   .     S
C1253  C1254   1.532   .     S
C1253  O1340   1.414   .     S
C1253  H1294   1.117   .     S
C1254  H1296   1.109   .     S
C1254  H1295   1.108   .     S
C1254  C1255   1.526   .     S
C1255  H1299   1.110   .     S
C1255  H1431   1.109   .     S
C1255  H1432   1.110   .     S
C1256  H1301   1.117   .     S
C1256  O1330   1.417   .     S
C1256  C1257   1.529   .     S
C1256  H94     1.112   1_556 S
C1257  H1303   1.110   .     S
C1257  H1302   1.112   .     S
C1257  C1258   1.527   .     S
C1258  H1305   1.107   .     S
C1258  H2110   1.109   1_545 S
C1258  H101    1.110   1_556 S
C1259  C1260   1.529   .     S
C1259  H1308   1.111   .     S
C1259  O1331   1.417   .     S
C1259  H1309   1.117   .     S
C1260  H1311   1.112   .     S
C1260  C1663   1.527   .     S
C1260  H1712   1.112   .     S
C1261  H1313   1.111   .     S
C1261  H1314   1.111   .     S
C1261  C2064   1.527   1_545 S
C1261  H2116   1.111   1_545 S
C1262  N1327   1.377   .     A
C1262  C1668   1.433   .     S
C1263  H1317   1.115   .     S
C1263  O1332   1.414   .     S
C1264  H1318   1.111   .     S
C1264  C57     1.527   1_556 S
C1264  C1533   1.528   1_455 S
C1264  H113    1.111   1_556 S
C1265  H1320   1.109   .     S
C1265  H1321   1.107   .     S
C1265  C1398   1.528   .     S
C1265  H1456   1.111   .     S
C1266  N1328   1.379   .     A
C1266  C2066   1.433   1_545 S
C1267  N1327   1.375   .     A
C1267  C1653   1.435   .     S
C1268  H1315   1.083   .     S
C1268  C1477   1.386   1_455 S
Cu1269 O1336   1.934   .     S
Cu1269 N1327   2.051   .     S
Cu1269 O1329   1.938   .     S
Cu1269 O1338   1.943   .     S
Cu1269 O1334   1.936   .     S
Cu1269 Cu1270  2.729   .     S
Cu1270 N1328   2.051   .     S
Cu1270 O1339   1.943   .     S
Cu1270 O1335   1.936   .     S
Cu1270 O1337   1.934   .     S
Cu1270 O1333   1.938   .     S
H1283  C1510   1.080   1_455 S
H1284  C1511   1.082   1_455 S
H1290  C1384   1.082   .     S
H1292  C47     1.110   1_556 S
H1297  C1523   1.109   1_455 S
H1298  C1523   1.110   1_455 S
H1306  C1660   1.109   .     S
H1310  C2064   1.112   1_545 S
H1312  C1663   1.111   .     S
H1316  C57     1.109   1_556 S
H1322  C1533   1.111   1_455 S
C1341  O1469   1.300   .     A
C1341  C1359   1.430   .     S
C1341  O1463   1.303   .     A
C1342  C1358   1.395   .     A
C1342  H1457   1.083   .     S
C1342  C1478   1.385   .     S
C1343  C1358   1.396   .     A
C1343  H1458   1.084   .     S
C1343  C1536   1.386   .     S
C1344  C1359   1.395   .     A
C1344  H1459   1.084   .     S
C1345  C1356   1.409   .     A
C1345  O1474   1.386   .     S
C1345  C1349   1.398   .     A
C1346  O1464   1.383   .     S
C1346  C1357   1.407   .     A
C1346  C1350   1.391   .     A
C1347  C1351   1.399   .     A
C1347  C1357   1.406   .     A
C1347  O1465   1.386   .     S
C1348  C1353   1.392   .     A
C1348  C1356   1.419   .     A
C1348  O1466   1.391   .     S
C1349  C1354   1.396   .     A
C1349  H1405   1.082   .     S
C1350  C1355   1.399   .     A
C1350  H1416   1.074   .     S
C1351  H1427   1.078   .     S
C1351  C1355   1.402   .     A
C1352  O1467   1.301   .     A
C1352  O1468   1.302   .     A
C1352  C1358   1.430   .     S
C1353  H1438   1.078   .     S
C1353  C1354   1.392   .     A
C1354  C1363   1.450   .     S
C1355  C1374   1.471   .     S
C1357  C150    1.465   1_556 S
C1359  C1402   1.396   .     A
C1360  C1385   1.482   .     S
C1360  C1366   1.408   .     A
C1360  C1361   1.405   .     A
C1361  H1460   1.081   .     S
C1361  C1362   1.399   .     A
C1362  H1406   1.082   .     S
C1362  C1364   1.397   .     A
C1363  O1473   1.314   .     A
C1363  O1470   1.298   .     A
C1364  H1407   1.083   .     S
C1364  C1365   1.397   .     A
C1365  H1408   1.083   .     S
C1365  C1366   1.399   .     A
C1366  H1409   1.083   .     S
C1367  C1396   1.484   .     S
C1367  C1372   1.406   .     A
C1367  C1368   1.404   .     A
C1368  C1369   1.398   .     A
C1368  H1410   1.081   .     S
C1369  C1370   1.396   .     A
C1369  H1411   1.083   .     S
C1370  C1371   1.397   .     A
C1370  H1412   1.082   .     S
C1371  H1413   1.082   .     S
C1371  C1372   1.400   .     A
C1372  H1414   1.083   .     S
C1373  C1379   1.398   .     A
C1373  C1400   1.481   .     S
C1373  C1375   1.408   .     A
C1374  O1472   1.311   .     A
C1374  O1471   1.312   .     A
C1375  C1376   1.398   .     A
C1375  H1415   1.083   .     S
C1376  C1377   1.397   .     A
C1376  H1551   1.080   .     S
C1377  C1378   1.396   .     A
C1377  H1552   1.082   .     S
C1378  H1419   1.079   .     S
C1378  C1379   1.396   .     A
C1379  H1420   1.073   .     S
C1380  C1401   1.482   .     S
C1380  C1381   1.405   .     A
C1380  C1386   1.407   .     A
C1381  C1382   1.398   .     A
C1381  H1421   1.083   .     S
C1382  H1422   1.082   .     S
C1382  C1383   1.397   .     A
C1383  H1423   1.080   .     S
C1383  C1384   1.396   .     A
C1384  C1386   1.396   .     A
C1385  N1462   1.379   .     A
C1385  C2205   1.435   1_545 S
C1386  H1425   1.083   .     S
C1387  C1388   1.532   .     S
C1387  O1474   1.414   .     S
C1387  H1428   1.117   .     S
C1388  H1430   1.109   .     S
C1388  H1429   1.108   .     S
C1388  C1389   1.526   .     S
C1389  H1433   1.110   .     S
C1389  H1565   1.109   .     S
C1389  H1566   1.110   .     S
C1390  H1435   1.117   .     S
C1390  O1464   1.417   .     S
C1390  C1391   1.529   .     S
C1390  H228    1.112   1_556 S
C1391  H1437   1.110   .     S
C1391  H1436   1.112   .     S
C1391  C1392   1.527   .     S
C1392  H1439   1.107   .     S
C1392  H2244   1.109   1_545 S
C1392  H235    1.110   1_556 S
C1393  C1394   1.529   .     S
C1393  H1442   1.111   .     S
C1393  O1465   1.417   .     S
C1393  H1443   1.117   .     S
C1394  H1445   1.112   .     S
C1394  C1797   1.527   .     S
C1394  H1846   1.112   .     S
C1395  H1447   1.111   .     S
C1395  H1448   1.111   .     S
C1395  C2198   1.527   1_545 S
C1395  H2250   1.111   1_545 S
C1396  N1461   1.377   .     A
C1396  C1802   1.433   .     S
C1397  H1451   1.115   .     S
C1397  O1466   1.414   .     S
C1398  H1452   1.111   .     S
C1398  C191    1.527   1_556 S
C1398  H247    1.111   1_556 S
C1399  H1454   1.109   .     S
C1399  H1455   1.107   .     S
C1399  C1532   1.528   .     S
C1399  H1590   1.111   .     S
C1400  N1462   1.379   .     A
C1400  C2200   1.433   1_545 S
C1401  N1461   1.375   .     A
C1401  C1787   1.435   .     S
C1402  H1449   1.083   .     S
Cu1403 O1470   1.934   .     S
Cu1403 N1461   2.051   .     S
Cu1403 O1463   1.938   .     S
Cu1403 O1472   1.943   .     S
Cu1403 O1468   1.936   .     S
Cu1403 Cu1404  2.729   .     S
Cu1404 N1462   2.051   .     S
Cu1404 O1473   1.943   .     S
Cu1404 O1469   1.936   .     S
Cu1404 O1471   1.934   .     S
Cu1404 O1467   1.938   .     S
H1424  C1518   1.082   .     S
H1426  C181    1.110   1_556 S
H1440  C1794   1.109   .     S
H1444  C2198   1.112   1_545 S
H1446  C1797   1.111   .     S
H1450  C191    1.109   1_556 S
C1475  O1603   1.300   .     A
C1475  C1493   1.430   .     S
C1475  O1597   1.303   .     A
C1476  C1492   1.395   .     A
C1476  H1591   1.083   .     S
C1476  C1210   1.385   1_655 S
C1477  C1492   1.396   .     A
C1477  H1592   1.084   .     S
C1477  C1268   1.386   1_655 S
C1478  C1493   1.395   .     A
C1478  H1593   1.084   .     S
C1479  C1490   1.409   .     A
C1479  O1608   1.386   .     S
C1479  C1483   1.398   .     A
C1480  O1598   1.383   .     S
C1480  C1491   1.407   .     A
C1480  C1484   1.391   .     A
C1481  C1485   1.399   .     A
C1481  C1491   1.406   .     A
C1481  O1599   1.386   .     S
C1482  C1487   1.392   .     A
C1482  C1490   1.419   .     A
C1482  O1600   1.391   .     S
C1483  C1488   1.396   .     A
C1483  H1539   1.082   .     S
C1484  C1489   1.399   .     A
C1484  H1550   1.074   .     S
C1485  H1561   1.078   .     S
C1485  C1489   1.402   .     A
C1486  O1601   1.301   .     A
C1486  O1602   1.302   .     A
C1486  C1492   1.430   .     S
C1487  H1572   1.078   .     S
C1487  C1488   1.392   .     A
C1488  C1497   1.450   .     S
C1489  C1508   1.471   .     S
C1491  C284    1.465   1_556 S
C1493  C1536   1.396   .     A
C1494  C1519   1.482   .     S
C1494  C1500   1.408   .     A
C1494  C1495   1.405   .     A
C1495  H1594   1.081   .     S
C1495  C1496   1.399   .     A
C1496  H1540   1.082   .     S
C1496  C1498   1.397   .     A
C1497  O1607   1.314   .     A
C1497  O1604   1.298   .     A
C1498  H1541   1.083   .     S
C1498  C1499   1.397   .     A
C1499  H1542   1.083   .     S
C1499  C1500   1.399   .     A
C1500  H1543   1.083   .     S
C1501  C1530   1.484   .     S
C1501  C1506   1.406   .     A
C1501  C1502   1.404   .     A
C1502  C1503   1.398   .     A
C1502  H1544   1.081   .     S
C1503  C1504   1.396   .     A
C1503  H1545   1.083   .     S
C1504  C1505   1.397   .     A
C1504  H1546   1.082   .     S
C1505  H1547   1.082   .     S
C1505  C1506   1.400   .     A
C1506  H1548   1.083   .     S
C1507  C1513   1.398   .     A
C1507  C1534   1.481   .     S
C1507  C1509   1.408   .     A
C1508  O1606   1.311   .     A
C1508  O1605   1.312   .     A
C1509  C1510   1.398   .     A
C1509  H1549   1.083   .     S
C1510  C1511   1.397   .     A
C1510  H1283   1.080   1_655 S
C1511  C1512   1.396   .     A
C1511  H1284   1.082   1_655 S
C1512  H1553   1.079   .     S
C1512  C1513   1.396   .     A
C1513  H1554   1.073   .     S
C1514  C1535   1.482   .     S
C1514  C1515   1.405   .     A
C1514  C1520   1.407   .     A
C1515  C1516   1.398   .     A
C1515  H1555   1.083   .     S
C1516  H1556   1.082   .     S
C1516  C1517   1.397   .     A
C1517  H1557   1.080   .     S
C1517  C1518   1.396   .     A
C1518  C1520   1.396   .     A
C1519  N1596   1.379   .     A
C1519  C2339   1.435   1_545 S
C1520  H1559   1.083   .     S
C1521  C1522   1.532   .     S
C1521  O1608   1.414   .     S
C1521  H1562   1.117   .     S
C1522  H1564   1.109   .     S
C1522  H1563   1.108   .     S
C1522  C1523   1.526   .     S
C1523  H1567   1.110   .     S
C1523  H1297   1.109   1_655 S
C1523  H1298   1.110   1_655 S
C1524  H1569   1.117   .     S
C1524  O1598   1.417   .     S
C1524  C1525   1.529   .     S
C1524  H362    1.112   1_556 S
C1525  H1571   1.110   .     S
C1525  H1570   1.112   .     S
C1525  C1526   1.527   .     S
C1526  H1573   1.107   .     S
C1526  H2378   1.109   1_545 S
C1526  H369    1.110   1_556 S
C1527  C1528   1.529   .     S
C1527  H1576   1.111   .     S
C1527  O1599   1.417   .     S
C1527  H1577   1.117   .     S
C1528  H1579   1.112   .     S
C1528  C1931   1.527   .     S
C1528  H1980   1.112   .     S
C1529  H1581   1.111   .     S
C1529  H1582   1.111   .     S
C1529  C2332   1.527   1_545 S
C1529  H2384   1.111   1_545 S
C1530  N1595   1.377   .     A
C1530  C1936   1.433   .     S
C1531  H1585   1.115   .     S
C1531  O1600   1.414   .     S
C1532  H1586   1.111   .     S
C1532  C325    1.527   1_556 S
C1532  H381    1.111   1_556 S
C1533  H1588   1.109   .     S
C1533  H1589   1.107   .     S
C1533  C1264   1.528   1_655 S
C1533  H1322   1.111   1_655 S
C1534  N1596   1.379   .     A
C1534  C2334   1.433   1_545 S
C1535  N1595   1.375   .     A
C1535  C1921   1.435   .     S
C1536  H1583   1.083   .     S
Cu1537 O1604   1.934   .     S
Cu1537 N1595   2.051   .     S
Cu1537 O1597   1.938   .     S
Cu1537 O1606   1.943   .     S
Cu1537 O1602   1.936   .     S
Cu1537 Cu1538  2.729   .     S
Cu1538 N1596   2.051   .     S
Cu1538 O1607   1.943   .     S
Cu1538 O1603   1.936   .     S
Cu1538 O1605   1.934   .     S
Cu1538 O1601   1.938   .     S
H1558  C1250   1.082   1_655 S
H1560  C315    1.110   1_556 S
H1574  C1928   1.109   .     S
H1578  C2332   1.112   1_545 S
H1580  C1931   1.111   .     S
H1584  C325    1.109   1_556 S
C1609  O1737   1.300   .     A
C1609  C1627   1.430   .     S
C1609  O1731   1.303   .     A
C1610  C1626   1.395   .     A
C1610  H1725   1.083   .     S
C1610  C1746   1.385   .     S
C1611  C1626   1.396   .     A
C1611  H1726   1.084   .     S
C1611  C1804   1.386   .     S
C1612  C1627   1.395   .     A
C1612  H1727   1.084   .     S
C1612  C1878   1.385   1_455 S
C1613  C1624   1.409   .     A
C1613  O1742   1.386   .     S
C1613  C1617   1.398   .     A
C1614  O1732   1.383   .     S
C1614  C1625   1.407   .     A
C1614  C1618   1.391   .     A
C1615  C1619   1.399   .     A
C1615  C1625   1.406   .     A
C1615  O1733   1.386   .     S
C1616  C1621   1.392   .     A
C1616  C1624   1.419   .     A
C1616  O1734   1.391   .     S
C1617  C1622   1.396   .     A
C1617  H1673   1.082   .     S
C1618  C1623   1.399   .     A
C1618  H1684   1.074   .     S
C1619  H1695   1.078   .     S
C1619  C1623   1.402   .     A
C1620  O1735   1.301   .     A
C1620  O1736   1.302   .     A
C1620  C1626   1.430   .     S
C1621  H1706   1.078   .     S
C1621  C1622   1.392   .     A
C1622  C1631   1.450   .     S
C1623  C1642   1.471   .     S
C1625  C418    1.465   1_556 S
C1627  C1670   1.396   .     A
C1628  C1653   1.482   .     S
C1628  C1634   1.408   .     A
C1628  C1629   1.405   .     A
C1629  H1728   1.081   .     S
C1629  C1630   1.399   .     A
C1630  H1674   1.082   .     S
C1630  C1632   1.397   .     A
C1631  O1741   1.314   .     A
C1631  O1738   1.298   .     A
C1632  H1675   1.083   .     S
C1632  C1633   1.397   .     A
C1633  H1676   1.083   .     S
C1633  C1634   1.399   .     A
C1634  H1677   1.083   .     S
C1635  C1664   1.484   .     S
C1635  C1640   1.406   .     A
C1635  C1636   1.404   .     A
C1636  C1637   1.398   .     A
C1636  H1678   1.081   .     S
C1637  C1638   1.396   .     A
C1637  H1679   1.083   .     S
C1638  C1639   1.397   .     A
C1638  H1680   1.082   .     S
C1639  H1681   1.082   .     S
C1639  C1640   1.400   .     A
C1640  H1682   1.083   .     S
C1641  C1647   1.398   .     A
C1641  C1668   1.481   .     S
C1641  C1643   1.408   .     A
C1642  O1740   1.311   .     A
C1642  O1739   1.312   .     A
C1643  C1644   1.398   .     A
C1643  H1683   1.083   .     S
C1644  C1645   1.397   .     A
C1644  H1819   1.080   .     S
C1645  C1646   1.396   .     A
C1645  H1820   1.082   .     S
C1646  H1687   1.079   .     S
C1646  C1647   1.396   .     A
C1647  H1688   1.073   .     S
C1648  C1669   1.482   .     S
C1648  C1649   1.405   .     A
C1648  C1654   1.407   .     A
C1649  C1650   1.398   .     A
C1649  H1689   1.083   .     S
C1650  H1690   1.082   .     S
C1650  C1651   1.397   .     A
C1651  H1691   1.080   .     S
C1651  C1652   1.396   .     A
C1652  C1654   1.396   .     A
C1652  H1960   1.082   1_455 S
C1653  N1730   1.379   .     A
C1654  H1693   1.083   .     S
C1655  C1656   1.532   .     S
C1655  O1742   1.414   .     S
C1655  H1696   1.117   .     S
C1656  H1698   1.109   .     S
C1656  H1697   1.108   .     S
C1656  C1657   1.526   .     S
C1657  H1701   1.110   .     S
C1657  H1833   1.109   .     S
C1657  H1834   1.110   .     S
C1658  H1703   1.117   .     S
C1658  O1732   1.417   .     S
C1658  C1659   1.529   .     S
C1658  H496    1.112   1_556 S
C1659  H1705   1.110   .     S
C1659  H1704   1.112   .     S
C1659  C1660   1.527   .     S
C1660  H1707   1.107   .     S
C1660  H503    1.110   1_556 S
C1661  C1662   1.529   .     S
C1661  H1710   1.111   .     S
C1661  O1733   1.417   .     S
C1661  H1711   1.117   .     S
C1662  H1713   1.112   .     S
C1662  C2065   1.527   .     S
C1662  H2114   1.112   .     S
C1663  H1715   1.111   .     S
C1663  H1716   1.111   .     S
C1664  N1729   1.377   .     A
C1664  C2070   1.433   .     S
C1665  H1719   1.115   .     S
C1665  O1734   1.414   .     S
C1666  H1720   1.111   .     S
C1666  C459    1.527   1_556 S
C1666  C1935   1.528   1_455 S
C1666  H515    1.111   1_556 S
C1667  H1722   1.109   .     S
C1667  H1723   1.107   .     S
C1667  C1800   1.528   .     S
C1667  H1858   1.111   .     S
C1668  N1730   1.379   .     A
C1669  N1729   1.375   .     A
C1669  C2055   1.435   .     S
C1670  H1717   1.083   .     S
C1670  C1879   1.386   1_455 S
Cu1671 O1738   1.934   .     S
Cu1671 N1729   2.051   .     S
Cu1671 O1731   1.938   .     S
Cu1671 O1740   1.943   .     S
Cu1671 O1736   1.936   .     S
Cu1671 Cu1672  2.729   .     S
Cu1672 N1730   2.051   .     S
Cu1672 O1741   1.943   .     S
Cu1672 O1737   1.936   .     S
Cu1672 O1739   1.934   .     S
Cu1672 O1735   1.938   .     S
H1685  C1912   1.080   1_455 S
H1686  C1913   1.082   1_455 S
H1692  C1786   1.082   .     S
H1694  C449    1.110   1_556 S
H1699  C1925   1.109   1_455 S
H1700  C1925   1.110   1_455 S
H1708  C2062   1.109   .     S
H1714  C2065   1.111   .     S
H1718  C459    1.109   1_556 S
H1724  C1935   1.111   1_455 S
C1743  O1871   1.300   .     A
C1743  C1761   1.430   .     S
C1743  O1865   1.303   .     A
C1744  C1760   1.395   .     A
C1744  H1859   1.083   .     S
C1744  C1880   1.385   .     S
C1745  C1760   1.396   .     A
C1745  H1860   1.084   .     S
C1745  C1938   1.386   .     S
C1746  C1761   1.395   .     A
C1746  H1861   1.084   .     S
C1747  C1758   1.409   .     A
C1747  O1876   1.386   .     S
C1747  C1751   1.398   .     A
C1748  O1866   1.383   .     S
C1748  C1759   1.407   .     A
C1748  C1752   1.391   .     A
C1749  C1753   1.399   .     A
C1749  C1759   1.406   .     A
C1749  O1867   1.386   .     S
C1750  C1755   1.392   .     A
C1750  C1758   1.419   .     A
C1750  O1868   1.391   .     S
C1751  C1756   1.396   .     A
C1751  H1807   1.082   .     S
C1752  C1757   1.399   .     A
C1752  H1818   1.074   .     S
C1753  H1829   1.078   .     S
C1753  C1757   1.402   .     A
C1754  O1869   1.301   .     A
C1754  O1870   1.302   .     A
C1754  C1760   1.430   .     S
C1755  H1840   1.078   .     S
C1755  C1756   1.392   .     A
C1756  C1765   1.450   .     S
C1757  C1776   1.471   .     S
C1759  C552    1.465   1_556 S
C1761  C1804   1.396   .     A
C1762  C1787   1.482   .     S
C1762  C1768   1.408   .     A
C1762  C1763   1.405   .     A
C1763  H1862   1.081   .     S
C1763  C1764   1.399   .     A
C1764  H1808   1.082   .     S
C1764  C1766   1.397   .     A
C1765  O1875   1.314   .     A
C1765  O1872   1.298   .     A
C1766  H1809   1.083   .     S
C1766  C1767   1.397   .     A
C1767  H1810   1.083   .     S
C1767  C1768   1.399   .     A
C1768  H1811   1.083   .     S
C1769  C1798   1.484   .     S
C1769  C1774   1.406   .     A
C1769  C1770   1.404   .     A
C1770  C1771   1.398   .     A
C1770  H1812   1.081   .     S
C1771  C1772   1.396   .     A
C1771  H1813   1.083   .     S
C1772  C1773   1.397   .     A
C1772  H1814   1.082   .     S
C1773  H1815   1.082   .     S
C1773  C1774   1.400   .     A
C1774  H1816   1.083   .     S
C1775  C1781   1.398   .     A
C1775  C1802   1.481   .     S
C1775  C1777   1.408   .     A
C1776  O1874   1.311   .     A
C1776  O1873   1.312   .     A
C1777  C1778   1.398   .     A
C1777  H1817   1.083   .     S
C1778  C1779   1.397   .     A
C1778  H1953   1.080   .     S
C1779  C1780   1.396   .     A
C1779  H1954   1.082   .     S
C1780  H1821   1.079   .     S
C1780  C1781   1.396   .     A
C1781  H1822   1.073   .     S
C1782  C1803   1.482   .     S
C1782  C1783   1.405   .     A
C1782  C1788   1.407   .     A
C1783  C1784   1.398   .     A
C1783  H1823   1.083   .     S
C1784  H1824   1.082   .     S
C1784  C1785   1.397   .     A
C1785  H1825   1.080   .     S
C1785  C1786   1.396   .     A
C1786  C1788   1.396   .     A
C1787  N1864   1.379   .     A
C1788  H1827   1.083   .     S
C1789  C1790   1.532   .     S
C1789  O1876   1.414   .     S
C1789  H1830   1.117   .     S
C1790  H1832   1.109   .     S
C1790  H1831   1.108   .     S
C1790  C1791   1.526   .     S
C1791  H1835   1.110   .     S
C1791  H1967   1.109   .     S
C1791  H1968   1.110   .     S
C1792  H1837   1.117   .     S
C1792  O1866   1.417   .     S
C1792  C1793   1.529   .     S
C1792  H630    1.112   1_556 S
C1793  H1839   1.110   .     S
C1793  H1838   1.112   .     S
C1793  C1794   1.527   .     S
C1794  H1841   1.107   .     S
C1794  H637    1.110   1_556 S
C1795  C1796   1.529   .     S
C1795  H1844   1.111   .     S
C1795  O1867   1.417   .     S
C1795  H1845   1.117   .     S
C1796  H1847   1.112   .     S
C1796  C2199   1.527   .     S
C1796  H2248   1.112   .     S
C1797  H1849   1.111   .     S
C1797  H1850   1.111   .     S
C1798  N1863   1.377   .     A
C1798  C2204   1.433   .     S
C1799  H1853   1.115   .     S
C1799  O1868   1.414   .     S
C1800  H1854   1.111   .     S
C1800  C593    1.527   1_556 S
C1800  H649    1.111   1_556 S
C1801  H1856   1.109   .     S
C1801  H1857   1.107   .     S
C1801  C1934   1.528   .     S
C1801  H1992   1.111   .     S
C1802  N1864   1.379   .     A
C1803  N1863   1.375   .     A
C1803  C2189   1.435   .     S
C1804  H1851   1.083   .     S
Cu1805 O1872   1.934   .     S
Cu1805 N1863   2.051   .     S
Cu1805 O1865   1.938   .     S
Cu1805 O1874   1.943   .     S
Cu1805 O1870   1.936   .     S
Cu1805 Cu1806  2.729   .     S
Cu1806 N1864   2.051   .     S
Cu1806 O1875   1.943   .     S
Cu1806 O1871   1.936   .     S
Cu1806 O1873   1.934   .     S
Cu1806 O1869   1.938   .     S
H1826  C1920   1.082   .     S
H1828  C583    1.110   1_556 S
H1842  C2196   1.109   .     S
H1848  C2199   1.111   .     S
H1852  C593    1.109   1_556 S
C1877  O2005   1.300   .     A
C1877  C1895   1.430   .     S
C1877  O1999   1.303   .     A
C1878  C1894   1.395   .     A
C1878  H1993   1.083   .     S
C1878  C1612   1.385   1_655 S
C1879  C1894   1.396   .     A
C1879  H1994   1.084   .     S
C1879  C1670   1.386   1_655 S
C1880  C1895   1.395   .     A
C1880  H1995   1.084   .     S
C1881  C1892   1.409   .     A
C1881  O2010   1.386   .     S
C1881  C1885   1.398   .     A
C1882  O2000   1.383   .     S
C1882  C1893   1.407   .     A
C1882  C1886   1.391   .     A
C1883  C1887   1.399   .     A
C1883  C1893   1.406   .     A
C1883  O2001   1.386   .     S
C1884  C1889   1.392   .     A
C1884  C1892   1.419   .     A
C1884  O2002   1.391   .     S
C1885  C1890   1.396   .     A
C1885  H1941   1.082   .     S
C1886  C1891   1.399   .     A
C1886  H1952   1.074   .     S
C1887  H1963   1.078   .     S
C1887  C1891   1.402   .     A
C1888  O2003   1.301   .     A
C1888  O2004   1.302   .     A
C1888  C1894   1.430   .     S
C1889  H1974   1.078   .     S
C1889  C1890   1.392   .     A
C1890  C1899   1.450   .     S
C1891  C1910   1.471   .     S
C1893  C686    1.465   1_556 S
C1895  C1938   1.396   .     A
C1896  C1921   1.482   .     S
C1896  C1902   1.408   .     A
C1896  C1897   1.405   .     A
C1897  H1996   1.081   .     S
C1897  C1898   1.399   .     A
C1898  H1942   1.082   .     S
C1898  C1900   1.397   .     A
C1899  O2009   1.314   .     A
C1899  O2006   1.298   .     A
C1900  H1943   1.083   .     S
C1900  C1901   1.397   .     A
C1901  H1944   1.083   .     S
C1901  C1902   1.399   .     A
C1902  H1945   1.083   .     S
C1903  C1932   1.484   .     S
C1903  C1908   1.406   .     A
C1903  C1904   1.404   .     A
C1904  C1905   1.398   .     A
C1904  H1946   1.081   .     S
C1905  C1906   1.396   .     A
C1905  H1947   1.083   .     S
C1906  C1907   1.397   .     A
C1906  H1948   1.082   .     S
C1907  H1949   1.082   .     S
C1907  C1908   1.400   .     A
C1908  H1950   1.083   .     S
C1909  C1915   1.398   .     A
C1909  C1936   1.481   .     S
C1909  C1911   1.408   .     A
C1910  O2008   1.311   .     A
C1910  O2007   1.312   .     A
C1911  C1912   1.398   .     A
C1911  H1951   1.083   .     S
C1912  C1913   1.397   .     A
C1912  H1685   1.080   1_655 S
C1913  C1914   1.396   .     A
C1913  H1686   1.082   1_655 S
C1914  H1955   1.079   .     S
C1914  C1915   1.396   .     A
C1915  H1956   1.073   .     S
C1916  C1937   1.482   .     S
C1916  C1917   1.405   .     A
C1916  C1922   1.407   .     A
C1917  C1918   1.398   .     A
C1917  H1957   1.083   .     S
C1918  H1958   1.082   .     S
C1918  C1919   1.397   .     A
C1919  H1959   1.080   .     S
C1919  C1920   1.396   .     A
C1920  C1922   1.396   .     A
C1921  N1998   1.379   .     A
C1922  H1961   1.083   .     S
C1923  C1924   1.532   .     S
C1923  O2010   1.414   .     S
C1923  H1964   1.117   .     S
C1924  H1966   1.109   .     S
C1924  H1965   1.108   .     S
C1924  C1925   1.526   .     S
C1925  H1969   1.110   .     S
C1925  H1699   1.109   1_655 S
C1925  H1700   1.110   1_655 S
C1926  H1971   1.117   .     S
C1926  O2000   1.417   .     S
C1926  C1927   1.529   .     S
C1926  H764    1.112   1_556 S
C1927  H1973   1.110   .     S
C1927  H1972   1.112   .     S
C1927  C1928   1.527   .     S
C1928  H1975   1.107   .     S
C1928  H771    1.110   1_556 S
C1929  C1930   1.529   .     S
C1929  H1978   1.111   .     S
C1929  O2001   1.417   .     S
C1929  H1979   1.117   .     S
C1930  H1981   1.112   .     S
C1930  C2333   1.527   .     S
C1930  H2382   1.112   .     S
C1931  H1983   1.111   .     S
C1931  H1984   1.111   .     S
C1932  N1997   1.377   .     A
C1932  C2338   1.433   .     S
C1933  H1987   1.115   .     S
C1933  O2002   1.414   .     S
C1934  H1988   1.111   .     S
C1934  C727    1.527   1_556 S
C1934  H783    1.111   1_556 S
C1935  H1990   1.109   .     S
C1935  H1991   1.107   .     S
C1935  C1666   1.528   1_655 S
C1935  H1724   1.111   1_655 S
C1936  N1998   1.379   .     A
C1937  N1997   1.375   .     A
C1937  C2323   1.435   .     S
C1938  H1985   1.083   .     S
Cu1939 O2006   1.934   .     S
Cu1939 N1997   2.051   .     S
Cu1939 O1999   1.938   .     S
Cu1939 O2008   1.943   .     S
Cu1939 O2004   1.936   .     S
Cu1939 Cu1940  2.729   .     S
Cu1940 N1998   2.051   .     S
Cu1940 O2009   1.943   .     S
Cu1940 O2005   1.936   .     S
Cu1940 O2007   1.934   .     S
Cu1940 O2003   1.938   .     S
H1960  C1652   1.082   1_655 S
H1962  C717    1.110   1_556 S
H1976  C2330   1.109   .     S
H1982  C2333   1.111   .     S
H1986  C727    1.109   1_556 S
C2011  O2139   1.300   .     A
C2011  C2029   1.430   .     S
C2011  O2133   1.303   .     A
C2012  C2028   1.395   .     A
C2012  H2127   1.083   .     S
C2012  C2148   1.385   .     S
C2013  C2028   1.396   .     A
C2013  H2128   1.084   .     S
C2013  C2206   1.386   .     S
C2014  C2029   1.395   .     A
C2014  H2129   1.084   .     S
C2014  C2280   1.385   1_455 S
C2015  C2026   1.409   .     A
C2015  O2144   1.386   .     S
C2015  C2019   1.398   .     A
C2016  O2134   1.383   .     S
C2016  C2027   1.407   .     A
C2016  C2020   1.391   .     A
C2017  C2021   1.399   .     A
C2017  C2027   1.406   .     A
C2017  O2135   1.386   .     S
C2018  C2023   1.392   .     A
C2018  C2026   1.419   .     A
C2018  O2136   1.391   .     S
C2019  C2024   1.396   .     A
C2019  H2075   1.082   .     S
C2020  C2025   1.399   .     A
C2020  H2086   1.074   .     S
C2021  H2097   1.078   .     S
C2021  C2025   1.402   .     A
C2022  O2137   1.301   .     A
C2022  O2138   1.302   .     A
C2022  C2028   1.430   .     S
C2023  H2108   1.078   .     S
C2023  C2024   1.392   .     A
C2024  C2033   1.450   .     S
C2025  C2044   1.471   .     S
C2027  C820    1.465   1_556 S
C2029  C2072   1.396   .     A
C2030  C2055   1.482   .     S
C2030  C2036   1.408   .     A
C2030  C2031   1.405   .     A
C2031  H2130   1.081   .     S
C2031  C2032   1.399   .     A
C2032  H2076   1.082   .     S
C2032  C2034   1.397   .     A
C2033  O2143   1.314   .     A
C2033  O2140   1.298   .     A
C2034  H2077   1.083   .     S
C2034  C2035   1.397   .     A
C2035  H2078   1.083   .     S
C2035  C2036   1.399   .     A
C2036  H2079   1.083   .     S
C2037  C2066   1.484   .     S
C2037  C2042   1.406   .     A
C2037  C2038   1.404   .     A
C2038  C2039   1.398   .     A
C2038  H2080   1.081   .     S
C2039  C2040   1.396   .     A
C2039  H2081   1.083   .     S
C2040  C2041   1.397   .     A
C2040  H2082   1.082   .     S
C2041  H2083   1.082   .     S
C2041  C2042   1.400   .     A
C2042  H2084   1.083   .     S
C2043  C2049   1.398   .     A
C2043  C2070   1.481   .     S
C2043  C2045   1.408   .     A
C2044  O2142   1.311   .     A
C2044  O2141   1.312   .     A
C2045  C2046   1.398   .     A
C2045  H2085   1.083   .     S
C2046  C2047   1.397   .     A
C2046  H2221   1.080   .     S
C2047  C2048   1.396   .     A
C2047  H2222   1.082   .     S
C2048  H2089   1.079   .     S
C2048  C2049   1.396   .     A
C2049  H2090   1.073   .     S
C2050  C2071   1.482   .     S
C2050  C2051   1.405   .     A
C2050  C2056   1.407   .     A
C2051  C2052   1.398   .     A
C2051  H2091   1.083   .     S
C2052  H2092   1.082   .     S
C2052  C2053   1.397   .     A
C2053  H2093   1.080   .     S
C2053  C2054   1.396   .     A
C2054  C2056   1.396   .     A
C2054  H2362   1.082   1_455 S
C2055  N2132   1.379   .     A
C2056  H2095   1.083   .     S
C2057  C2058   1.532   .     S
C2057  O2144   1.414   .     S
C2057  H2098   1.117   .     S
C2058  H2100   1.109   .     S
C2058  H2099   1.108   .     S
C2058  C2059   1.526   .     S
C2059  H2103   1.110   .     S
C2059  H2235   1.109   .     S
C2059  H2236   1.110   .     S
C2060  H2105   1.117   .     S
C2060  O2134   1.417   .     S
C2060  C2061   1.529   .     S
C2060  H898    1.112   1_556 S
C2061  H2107   1.110   .     S
C2061  H2106   1.112   .     S
C2061  C2062   1.527   .     S
C2062  H2109   1.107   .     S
C2062  H905    1.110   1_556 S
C2063  C2064   1.529   .     S
C2063  H2112   1.111   .     S
C2063  O2135   1.417   .     S
C2063  H2113   1.117   .     S
C2064  H2115   1.112   .     S
C2064  C1261   1.527   1_565 S
C2064  H1310   1.112   1_565 S
C2065  H2117   1.111   .     S
C2065  H2118   1.111   .     S
C2066  N2131   1.377   .     A
C2066  C1266   1.433   1_565 S
C2067  H2121   1.115   .     S
C2067  O2136   1.414   .     S
C2068  H2122   1.111   .     S
C2068  C861    1.527   1_556 S
C2068  C2337   1.528   1_455 S
C2068  H917    1.111   1_556 S
C2069  H2124   1.109   .     S
C2069  H2125   1.107   .     S
C2069  C2202   1.528   .     S
C2069  H2260   1.111   .     S
C2070  N2132   1.379   .     A
C2071  N2131   1.375   .     A
C2071  C1251   1.435   1_565 S
C2072  H2119   1.083   .     S
C2072  C2281   1.386   1_455 S
Cu2073 O2140   1.934   .     S
Cu2073 N2131   2.051   .     S
Cu2073 O2133   1.938   .     S
Cu2073 O2142   1.943   .     S
Cu2073 O2138   1.936   .     S
Cu2073 Cu2074  2.729   .     S
Cu2074 N2132   2.051   .     S
Cu2074 O2143   1.943   .     S
Cu2074 O2139   1.936   .     S
Cu2074 O2141   1.934   .     S
Cu2074 O2137   1.938   .     S
H2087  C2314   1.080   1_455 S
H2088  C2315   1.082   1_455 S
H2094  C2188   1.082   .     S
H2096  C851    1.110   1_556 S
H2101  C2327   1.109   1_455 S
H2102  C2327   1.110   1_455 S
H2110  C1258   1.109   1_565 S
H2116  C1261   1.111   1_565 S
H2120  C861    1.109   1_556 S
H2126  C2337   1.111   1_455 S
C2145  O2273   1.300   .     A
C2145  C2163   1.430   .     S
C2145  O2267   1.303   .     A
C2146  C2162   1.395   .     A
C2146  H2261   1.083   .     S
C2146  C2282   1.385   .     S
C2147  C2162   1.396   .     A
C2147  H2262   1.084   .     S
C2147  C2340   1.386   .     S
C2148  C2163   1.395   .     A
C2148  H2263   1.084   .     S
C2149  C2160   1.409   .     A
C2149  O2278   1.386   .     S
C2149  C2153   1.398   .     A
C2150  O2268   1.383   .     S
C2150  C2161   1.407   .     A
C2150  C2154   1.391   .     A
C2151  C2155   1.399   .     A
C2151  C2161   1.406   .     A
C2151  O2269   1.386   .     S
C2152  C2157   1.392   .     A
C2152  C2160   1.419   .     A
C2152  O2270   1.391   .     S
C2153  C2158   1.396   .     A
C2153  H2209   1.082   .     S
C2154  C2159   1.399   .     A
C2154  H2220   1.074   .     S
C2155  H2231   1.078   .     S
C2155  C2159   1.402   .     A
C2156  O2271   1.301   .     A
C2156  O2272   1.302   .     A
C2156  C2162   1.430   .     S
C2157  H2242   1.078   .     S
C2157  C2158   1.392   .     A
C2158  C2167   1.450   .     S
C2159  C2178   1.471   .     S
C2161  C954    1.465   1_556 S
C2163  C2206   1.396   .     A
C2164  C2189   1.482   .     S
C2164  C2170   1.408   .     A
C2164  C2165   1.405   .     A
C2165  H2264   1.081   .     S
C2165  C2166   1.399   .     A
C2166  H2210   1.082   .     S
C2166  C2168   1.397   .     A
C2167  O2277   1.314   .     A
C2167  O2274   1.298   .     A
C2168  H2211   1.083   .     S
C2168  C2169   1.397   .     A
C2169  H2212   1.083   .     S
C2169  C2170   1.399   .     A
C2170  H2213   1.083   .     S
C2171  C2200   1.484   .     S
C2171  C2176   1.406   .     A
C2171  C2172   1.404   .     A
C2172  C2173   1.398   .     A
C2172  H2214   1.081   .     S
C2173  C2174   1.396   .     A
C2173  H2215   1.083   .     S
C2174  C2175   1.397   .     A
C2174  H2216   1.082   .     S
C2175  H2217   1.082   .     S
C2175  C2176   1.400   .     A
C2176  H2218   1.083   .     S
C2177  C2183   1.398   .     A
C2177  C2204   1.481   .     S
C2177  C2179   1.408   .     A
C2178  O2276   1.311   .     A
C2178  O2275   1.312   .     A
C2179  C2180   1.398   .     A
C2179  H2219   1.083   .     S
C2180  C2181   1.397   .     A
C2180  H2355   1.080   .     S
C2181  C2182   1.396   .     A
C2181  H2356   1.082   .     S
C2182  H2223   1.079   .     S
C2182  C2183   1.396   .     A
C2183  H2224   1.073   .     S
C2184  C2205   1.482   .     S
C2184  C2185   1.405   .     A
C2184  C2190   1.407   .     A
C2185  C2186   1.398   .     A
C2185  H2225   1.083   .     S
C2186  H2226   1.082   .     S
C2186  C2187   1.397   .     A
C2187  H2227   1.080   .     S
C2187  C2188   1.396   .     A
C2188  C2190   1.396   .     A
C2189  N2266   1.379   .     A
C2190  H2229   1.083   .     S
C2191  C2192   1.532   .     S
C2191  O2278   1.414   .     S
C2191  H2232   1.117   .     S
C2192  H2234   1.109   .     S
C2192  H2233   1.108   .     S
C2192  C2193   1.526   .     S
C2193  H2237   1.110   .     S
C2193  H2369   1.109   .     S
C2193  H2370   1.110   .     S
C2194  H2239   1.117   .     S
C2194  O2268   1.417   .     S
C2194  C2195   1.529   .     S
C2194  H1032   1.112   1_556 S
C2195  H2241   1.110   .     S
C2195  H2240   1.112   .     S
C2195  C2196   1.527   .     S
C2196  H2243   1.107   .     S
C2196  H1039   1.110   1_556 S
C2197  C2198   1.529   .     S
C2197  H2246   1.111   .     S
C2197  O2269   1.417   .     S
C2197  H2247   1.117   .     S
C2198  H2249   1.112   .     S
C2198  C1395   1.527   1_565 S
C2198  H1444   1.112   1_565 S
C2199  H2251   1.111   .     S
C2199  H2252   1.111   .     S
C2200  N2265   1.377   .     A
C2200  C1400   1.433   1_565 S
C2201  H2255   1.115   .     S
C2201  O2270   1.414   .     S
C2202  H2256   1.111   .     S
C2202  C995    1.527   1_556 S
C2202  H1051   1.111   1_556 S
C2203  H2258   1.109   .     S
C2203  H2259   1.107   .     S
C2203  C2336   1.528   .     S
C2203  H2394   1.111   .     S
C2204  N2266   1.379   .     A
C2205  N2265   1.375   .     A
C2205  C1385   1.435   1_565 S
C2206  H2253   1.083   .     S
Cu2207 O2274   1.934   .     S
Cu2207 N2265   2.051   .     S
Cu2207 O2267   1.938   .     S
Cu2207 O2276   1.943   .     S
Cu2207 O2272   1.936   .     S
Cu2207 Cu2208  2.729   .     S
Cu2208 N2266   2.051   .     S
Cu2208 O2277   1.943   .     S
Cu2208 O2273   1.936   .     S
Cu2208 O2275   1.934   .     S
Cu2208 O2271   1.938   .     S
H2228  C2322   1.082   .     S
H2230  C985    1.110   1_556 S
H2244  C1392   1.109   1_565 S
H2250  C1395   1.111   1_565 S
H2254  C995    1.109   1_556 S
C2279  O2407   1.300   .     A
C2279  C2297   1.430   .     S
C2279  O2401   1.303   .     A
C2280  C2296   1.395   .     A
C2280  H2395   1.083   .     S
C2280  C2014   1.385   1_655 S
C2281  C2296   1.396   .     A
C2281  H2396   1.084   .     S
C2281  C2072   1.386   1_655 S
C2282  C2297   1.395   .     A
C2282  H2397   1.084   .     S
C2283  C2294   1.409   .     A
C2283  O2412   1.386   .     S
C2283  C2287   1.398   .     A
C2284  O2402   1.383   .     S
C2284  C2295   1.407   .     A
C2284  C2288   1.391   .     A
C2285  C2289   1.399   .     A
C2285  C2295   1.406   .     A
C2285  O2403   1.386   .     S
C2286  C2291   1.392   .     A
C2286  C2294   1.419   .     A
C2286  O2404   1.391   .     S
C2287  C2292   1.396   .     A
C2287  H2343   1.082   .     S
C2288  C2293   1.399   .     A
C2288  H2354   1.074   .     S
C2289  H2365   1.078   .     S
C2289  C2293   1.402   .     A
C2290  O2405   1.301   .     A
C2290  O2406   1.302   .     A
C2290  C2296   1.430   .     S
C2291  H2376   1.078   .     S
C2291  C2292   1.392   .     A
C2292  C2301   1.450   .     S
C2293  C2312   1.471   .     S
C2295  C1088   1.465   1_556 S
C2297  C2340   1.396   .     A
C2298  C2323   1.482   .     S
C2298  C2304   1.408   .     A
C2298  C2299   1.405   .     A
C2299  H2398   1.081   .     S
C2299  C2300   1.399   .     A
C2300  H2344   1.082   .     S
C2300  C2302   1.397   .     A
C2301  O2411   1.314   .     A
C2301  O2408   1.298   .     A
C2302  H2345   1.083   .     S
C2302  C2303   1.397   .     A
C2303  H2346   1.083   .     S
C2303  C2304   1.399   .     A
C2304  H2347   1.083   .     S
C2305  C2334   1.484   .     S
C2305  C2310   1.406   .     A
C2305  C2306   1.404   .     A
C2306  C2307   1.398   .     A
C2306  H2348   1.081   .     S
C2307  C2308   1.396   .     A
C2307  H2349   1.083   .     S
C2308  C2309   1.397   .     A
C2308  H2350   1.082   .     S
C2309  H2351   1.082   .     S
C2309  C2310   1.400   .     A
C2310  H2352   1.083   .     S
C2311  C2317   1.398   .     A
C2311  C2338   1.481   .     S
C2311  C2313   1.408   .     A
C2312  O2410   1.311   .     A
C2312  O2409   1.312   .     A
C2313  C2314   1.398   .     A
C2313  H2353   1.083   .     S
C2314  C2315   1.397   .     A
C2314  H2087   1.080   1_655 S
C2315  C2316   1.396   .     A
C2315  H2088   1.082   1_655 S
C2316  H2357   1.079   .     S
C2316  C2317   1.396   .     A
C2317  H2358   1.073   .     S
C2318  C2339   1.482   .     S
C2318  C2319   1.405   .     A
C2318  C2324   1.407   .     A
C2319  C2320   1.398   .     A
C2319  H2359   1.083   .     S
C2320  H2360   1.082   .     S
C2320  C2321   1.397   .     A
C2321  H2361   1.080   .     S
C2321  C2322   1.396   .     A
C2322  C2324   1.396   .     A
C2323  N2400   1.379   .     A
C2324  H2363   1.083   .     S
C2325  C2326   1.532   .     S
C2325  O2412   1.414   .     S
C2325  H2366   1.117   .     S
C2326  H2368   1.109   .     S
C2326  H2367   1.108   .     S
C2326  C2327   1.526   .     S
C2327  H2371   1.110   .     S
C2327  H2101   1.109   1_655 S
C2327  H2102   1.110   1_655 S
C2328  H2373   1.117   .     S
C2328  O2402   1.417   .     S
C2328  C2329   1.529   .     S
C2328  H1166   1.112   1_556 S
C2329  H2375   1.110   .     S
C2329  H2374   1.112   .     S
C2329  C2330   1.527   .     S
C2330  H2377   1.107   .     S
C2330  H1173   1.110   1_556 S
C2331  C2332   1.529   .     S
C2331  H2380   1.111   .     S
C2331  O2403   1.417   .     S
C2331  H2381   1.117   .     S
C2332  H2383   1.112   .     S
C2332  C1529   1.527   1_565 S
C2332  H1578   1.112   1_565 S
C2333  H2385   1.111   .     S
C2333  H2386   1.111   .     S
C2334  N2399   1.377   .     A
C2334  C1534   1.433   1_565 S
C2335  H2389   1.115   .     S
C2335  O2404   1.414   .     S
C2336  H2390   1.111   .     S
C2336  C1129   1.527   1_556 S
C2336  H1185   1.111   1_556 S
C2337  H2392   1.109   .     S
C2337  H2393   1.107   .     S
C2337  C2068   1.528   1_655 S
C2337  H2126   1.111   1_655 S
C2338  N2400   1.379   .     A
C2339  N2399   1.375   .     A
C2339  C1519   1.435   1_565 S
C2340  H2387   1.083   .     S
Cu2341 O2408   1.934   .     S
Cu2341 N2399   2.051   .     S
Cu2341 O2401   1.938   .     S
Cu2341 O2410   1.943   .     S
Cu2341 O2406   1.936   .     S
Cu2341 Cu2342  2.729   .     S
Cu2342 N2400   2.051   .     S
Cu2342 O2411   1.943   .     S
Cu2342 O2407   1.936   .     S
Cu2342 O2409   1.934   .     S
Cu2342 O2405   1.938   .     S
H2362  C2054   1.082   1_655 S
H2364  C1119   1.110   1_556 S
H2378  C1526   1.109   1_565 S
H2384  C1529   1.111   1_565 S
H2388  C1129   1.109   1_556 S
