data_str_m2_o10_o17_pcu_sym.54
_audit_creation_date              2020-01-03
_audit_creation_method            'Materials Studio'
_symmetry_space_group_name_H-M    'P1'
_symmetry_Int_Tables_number       1
_symmetry_cell_setting            triclinic
loop_
_symmetry_equiv_pos_as_xyz
  x,y,z
_cell_length_a                    29.9852
_cell_length_b                    26.0270
_cell_length_c                    22.3483
_cell_angle_alpha                 102.8400
_cell_angle_beta                  93.6907
_cell_angle_gamma                 91.7690
loop_
_atom_site_label
_atom_site_type_symbol
_atom_site_fract_x
_atom_site_fract_y
_atom_site_fract_z
_atom_site_U_iso_or_equiv
_atom_site_adp_type
_atom_site_occupancy
O1     O     0.25325   0.09538   0.20659   0.00000  Uiso   1.00
O2     O     0.24674   0.23796   0.12674   0.00000  Uiso   1.00
O3     O     0.24480   0.08559   0.10279   0.00000  Uiso   1.00
O4     O     0.25520   0.24774   0.23055   0.00000  Uiso   1.00
C5     C     0.24892   0.06663   0.15113   0.00000  Uiso   1.00
C6     C     0.25108   0.26671   0.18220   0.00000  Uiso   1.00
O7     O     0.18935   0.17155   0.21857   0.00000  Uiso   1.00
O8     O     0.31064   0.16179   0.11476   0.00000  Uiso   1.00
O9     O     0.18090   0.16176   0.11477   0.00000  Uiso   1.00
O10    O     0.31910   0.17157   0.21857   0.00000  Uiso   1.00
C11    C     0.16463   0.16671   0.16779   0.00000  Uiso   1.00
C12    C     0.33537   0.16662   0.16554   0.00000  Uiso   1.00
Cu13   Cu    0.25500   0.17246   0.22813   0.00000  Uiso   1.00
Cu14   Cu    0.24499   0.16087   0.10521   0.00000  Uiso   1.00
C15    C     0.40889   0.21402   0.19258   0.00000  Uiso   1.00
C16    C     0.09111   0.11931   0.14076   0.00000  Uiso   1.00
C17    C     0.38345   0.16817   0.16350   0.00000  Uiso   1.00
C18    C     0.11655   0.16516   0.16983   0.00000  Uiso   1.00
C19    C     0.40369   0.12224   0.13619   0.00000  Uiso   1.00
C20    C     0.09630   0.21109   0.19714   0.00000  Uiso   1.00
C21    C     0.45030   0.12010   0.13937   0.00000  Uiso   1.00
C22    C     0.04970   0.21323   0.19396   0.00000  Uiso   1.00
C23    C     0.47652   0.16680   0.16641   0.00000  Uiso   1.00
C24    C     0.02348   0.16653   0.16692   0.00000  Uiso   1.00
C25    C     0.45576   0.21383   0.19287   0.00000  Uiso   1.00
C26    C     0.04424   0.11950   0.14046   0.00000  Uiso   1.00
C27    C     0.47138   0.07275   0.11558   0.00000  Uiso   1.00
C28    C     0.02862   0.26058   0.21776   0.00000  Uiso   1.00
C29    C     0.01791   0.07326   0.11579   0.00000  Uiso   1.00
C30    C     0.48209   0.26007   0.21755   0.00000  Uiso   1.00
H31    H     0.38248   0.08819   0.11350   0.00000  Uiso   1.00
H32    H     0.11752   0.24515   0.21982   0.00000  Uiso   1.00
C33    C     0.24829   0.01068   0.14238   0.00000  Uiso   1.00
C34    C     0.25171   0.32266   0.19096   0.00000  Uiso   1.00
N35    N     0.23744   0.15214   0.01284   0.00000  Uiso   1.00
N36    N     0.26255   0.18119   0.32049   0.00000  Uiso   1.00
N37    N     0.38689   0.26056   0.22094   0.00000  Uiso   1.00
O38    O     0.35733   0.28089   0.18895   0.00000  Uiso   1.00
O39    O     0.39290   0.27925   0.28004   0.00000  Uiso   1.00
N40    N     0.11311   0.07277   0.11241   0.00000  Uiso   1.00
O41    O     0.14268   0.05245   0.14439   0.00000  Uiso   1.00
O42    O     0.10710   0.05406   0.05331   0.00000  Uiso   1.00
N43    N     0.44651   0.02332   0.09315   0.00000  Uiso   1.00
O44    O     0.41697   0.00797   0.12643   0.00000  Uiso   1.00
O45    O     0.45999   0.32236   0.04691   0.00000  Uiso   1.00
N46    N     0.05349   0.31001   0.24018   0.00000  Uiso   1.00
O47    O     0.08301   0.32537   0.20690   0.00000  Uiso   1.00
O48    O     0.04002   0.01095   0.28643   0.00000  Uiso   1.00
H49    H     0.03341   0.03646   0.09820   0.00000  Uiso   1.00
H50    H     0.46659   0.29687   0.23514   0.00000  Uiso   1.00
H51    H     0.24490   0.32027   0.09552   0.00000  Uiso   1.00
H52    H     0.25510   0.01306   0.23781   0.00000  Uiso   1.00
H53    H     0.21523   0.12622   0.31630   0.00000  Uiso   1.00
H54    H     0.28477   0.20711   0.01703   0.00000  Uiso   1.00
O55    O     0.75325   0.09538   0.20659   0.00000  Uiso   1.00
O56    O     0.74674   0.23796   0.12674   0.00000  Uiso   1.00
O57    O     0.74480   0.08559   0.10279   0.00000  Uiso   1.00
O58    O     0.75520   0.24774   0.23055   0.00000  Uiso   1.00
C59    C     0.74892   0.06663   0.15113   0.00000  Uiso   1.00
C60    C     0.75108   0.26671   0.18220   0.00000  Uiso   1.00
O61    O     0.68935   0.17155   0.21857   0.00000  Uiso   1.00
O62    O     0.81064   0.16179   0.11476   0.00000  Uiso   1.00
O63    O     0.68090   0.16176   0.11477   0.00000  Uiso   1.00
O64    O     0.81910   0.17157   0.21857   0.00000  Uiso   1.00
C65    C     0.66463   0.16671   0.16779   0.00000  Uiso   1.00
C66    C     0.83537   0.16662   0.16554   0.00000  Uiso   1.00
Cu67   Cu    0.75500   0.17246   0.22813   0.00000  Uiso   1.00
Cu68   Cu    0.74499   0.16087   0.10521   0.00000  Uiso   1.00
C69    C     0.90889   0.21402   0.19258   0.00000  Uiso   1.00
C70    C     0.59111   0.11931   0.14076   0.00000  Uiso   1.00
C71    C     0.88345   0.16817   0.16350   0.00000  Uiso   1.00
C72    C     0.61655   0.16516   0.16983   0.00000  Uiso   1.00
C73    C     0.90369   0.12224   0.13619   0.00000  Uiso   1.00
C74    C     0.59630   0.21109   0.19714   0.00000  Uiso   1.00
C75    C     0.95030   0.12010   0.13937   0.00000  Uiso   1.00
C76    C     0.54970   0.21323   0.19396   0.00000  Uiso   1.00
C77    C     0.97652   0.16680   0.16641   0.00000  Uiso   1.00
C78    C     0.52348   0.16653   0.16692   0.00000  Uiso   1.00
C79    C     0.95576   0.21383   0.19287   0.00000  Uiso   1.00
C80    C     0.54424   0.11950   0.14046   0.00000  Uiso   1.00
C81    C     0.97138   0.07275   0.11558   0.00000  Uiso   1.00
C82    C     0.52862   0.26058   0.21776   0.00000  Uiso   1.00
C83    C     0.51791   0.07326   0.11579   0.00000  Uiso   1.00
C84    C     0.98209   0.26007   0.21755   0.00000  Uiso   1.00
H85    H     0.88248   0.08819   0.11350   0.00000  Uiso   1.00
H86    H     0.61752   0.24515   0.21982   0.00000  Uiso   1.00
C87    C     0.74829   0.01068   0.14238   0.00000  Uiso   1.00
C88    C     0.75171   0.32266   0.19096   0.00000  Uiso   1.00
N89    N     0.73744   0.15214   0.01284   0.00000  Uiso   1.00
N90    N     0.76255   0.18119   0.32049   0.00000  Uiso   1.00
N91    N     0.88689   0.26056   0.22094   0.00000  Uiso   1.00
O92    O     0.85733   0.28089   0.18895   0.00000  Uiso   1.00
O93    O     0.89290   0.27925   0.28004   0.00000  Uiso   1.00
N94    N     0.61311   0.07277   0.11241   0.00000  Uiso   1.00
O95    O     0.64268   0.05245   0.14439   0.00000  Uiso   1.00
O96    O     0.60710   0.05406   0.05331   0.00000  Uiso   1.00
N97    N     0.94651   0.02332   0.09315   0.00000  Uiso   1.00
O98    O     0.91697   0.00797   0.12643   0.00000  Uiso   1.00
O99    O     0.95999   0.32236   0.04691   0.00000  Uiso   1.00
N100   N     0.55349   0.31001   0.24018   0.00000  Uiso   1.00
O101   O     0.58301   0.32537   0.20690   0.00000  Uiso   1.00
O102   O     0.54002   0.01095   0.28643   0.00000  Uiso   1.00
H103   H     0.53341   0.03646   0.09820   0.00000  Uiso   1.00
H104   H     0.96659   0.29687   0.23514   0.00000  Uiso   1.00
H105   H     0.74490   0.32027   0.09552   0.00000  Uiso   1.00
H106   H     0.75510   0.01306   0.23781   0.00000  Uiso   1.00
H107   H     0.71523   0.12622   0.31630   0.00000  Uiso   1.00
H108   H     0.78477   0.20711   0.01703   0.00000  Uiso   1.00
O109   O     0.25325   0.42871   0.20659   0.00000  Uiso   1.00
O110   O     0.24674   0.57129   0.12674   0.00000  Uiso   1.00
O111   O     0.24480   0.41892   0.10279   0.00000  Uiso   1.00
O112   O     0.25520   0.58108   0.23055   0.00000  Uiso   1.00
C113   C     0.24892   0.39996   0.15113   0.00000  Uiso   1.00
C114   C     0.25108   0.60004   0.18220   0.00000  Uiso   1.00
O115   O     0.18935   0.50488   0.21857   0.00000  Uiso   1.00
O116   O     0.31064   0.49512   0.11476   0.00000  Uiso   1.00
O117   O     0.18090   0.49510   0.11477   0.00000  Uiso   1.00
O118   O     0.31910   0.50490   0.21857   0.00000  Uiso   1.00
C119   C     0.16463   0.50004   0.16779   0.00000  Uiso   1.00
C120   C     0.33537   0.49996   0.16554   0.00000  Uiso   1.00
Cu121  Cu    0.25500   0.50579   0.22813   0.00000  Uiso   1.00
Cu122  Cu    0.24499   0.49421   0.10521   0.00000  Uiso   1.00
C123   C     0.40889   0.54736   0.19258   0.00000  Uiso   1.00
C124   C     0.09111   0.45264   0.14076   0.00000  Uiso   1.00
C125   C     0.38345   0.50150   0.16350   0.00000  Uiso   1.00
C126   C     0.11655   0.49849   0.16983   0.00000  Uiso   1.00
C127   C     0.40369   0.45557   0.13619   0.00000  Uiso   1.00
C128   C     0.09630   0.54443   0.19714   0.00000  Uiso   1.00
C129   C     0.45030   0.45343   0.13937   0.00000  Uiso   1.00
C130   C     0.04970   0.54657   0.19396   0.00000  Uiso   1.00
C131   C     0.47652   0.50013   0.16641   0.00000  Uiso   1.00
C132   C     0.02348   0.49987   0.16692   0.00000  Uiso   1.00
C133   C     0.45576   0.54716   0.19287   0.00000  Uiso   1.00
C134   C     0.04424   0.45283   0.14046   0.00000  Uiso   1.00
C135   C     0.47138   0.40608   0.11558   0.00000  Uiso   1.00
C136   C     0.02862   0.59392   0.21776   0.00000  Uiso   1.00
C137   C     0.01791   0.40659   0.11579   0.00000  Uiso   1.00
C138   C     0.48209   0.59340   0.21755   0.00000  Uiso   1.00
H139   H     0.38248   0.42152   0.11350   0.00000  Uiso   1.00
H140   H     0.11752   0.57848   0.21982   0.00000  Uiso   1.00
C141   C     0.24829   0.34401   0.14238   0.00000  Uiso   1.00
C142   C     0.25171   0.65599   0.19096   0.00000  Uiso   1.00
N143   N     0.23744   0.48547   0.01284   0.00000  Uiso   1.00
N144   N     0.26255   0.51453   0.32049   0.00000  Uiso   1.00
N145   N     0.38689   0.59389   0.22094   0.00000  Uiso   1.00
O146   O     0.35733   0.61422   0.18895   0.00000  Uiso   1.00
O147   O     0.39290   0.61259   0.28004   0.00000  Uiso   1.00
N148   N     0.11311   0.40611   0.11241   0.00000  Uiso   1.00
O149   O     0.14268   0.38579   0.14439   0.00000  Uiso   1.00
O150   O     0.10710   0.38739   0.05331   0.00000  Uiso   1.00
N151   N     0.44651   0.35665   0.09315   0.00000  Uiso   1.00
O152   O     0.41697   0.34130   0.12643   0.00000  Uiso   1.00
O153   O     0.45999   0.65570   0.04691   0.00000  Uiso   1.00
N154   N     0.05349   0.64334   0.24018   0.00000  Uiso   1.00
O155   O     0.08301   0.65870   0.20690   0.00000  Uiso   1.00
O156   O     0.04002   0.34428   0.28643   0.00000  Uiso   1.00
H157   H     0.03341   0.36979   0.09820   0.00000  Uiso   1.00
H158   H     0.46659   0.63020   0.23514   0.00000  Uiso   1.00
H159   H     0.24490   0.65361   0.09552   0.00000  Uiso   1.00
H160   H     0.25510   0.34639   0.23781   0.00000  Uiso   1.00
H161   H     0.21523   0.45956   0.31630   0.00000  Uiso   1.00
H162   H     0.28477   0.54044   0.01703   0.00000  Uiso   1.00
O163   O     0.75325   0.42871   0.20659   0.00000  Uiso   1.00
O164   O     0.74674   0.57129   0.12674   0.00000  Uiso   1.00
O165   O     0.74480   0.41892   0.10279   0.00000  Uiso   1.00
O166   O     0.75520   0.58108   0.23055   0.00000  Uiso   1.00
C167   C     0.74892   0.39996   0.15113   0.00000  Uiso   1.00
C168   C     0.75108   0.60004   0.18220   0.00000  Uiso   1.00
O169   O     0.68935   0.50488   0.21857   0.00000  Uiso   1.00
O170   O     0.81064   0.49512   0.11476   0.00000  Uiso   1.00
O171   O     0.68090   0.49510   0.11477   0.00000  Uiso   1.00
O172   O     0.81910   0.50490   0.21857   0.00000  Uiso   1.00
C173   C     0.66463   0.50004   0.16779   0.00000  Uiso   1.00
C174   C     0.83537   0.49996   0.16554   0.00000  Uiso   1.00
Cu175  Cu    0.75500   0.50579   0.22813   0.00000  Uiso   1.00
Cu176  Cu    0.74499   0.49421   0.10521   0.00000  Uiso   1.00
C177   C     0.90889   0.54736   0.19258   0.00000  Uiso   1.00
C178   C     0.59111   0.45264   0.14076   0.00000  Uiso   1.00
C179   C     0.88345   0.50150   0.16350   0.00000  Uiso   1.00
C180   C     0.61655   0.49849   0.16983   0.00000  Uiso   1.00
C181   C     0.90369   0.45557   0.13619   0.00000  Uiso   1.00
C182   C     0.59630   0.54443   0.19714   0.00000  Uiso   1.00
C183   C     0.95030   0.45343   0.13937   0.00000  Uiso   1.00
C184   C     0.54970   0.54657   0.19396   0.00000  Uiso   1.00
C185   C     0.97652   0.50013   0.16641   0.00000  Uiso   1.00
C186   C     0.52348   0.49987   0.16692   0.00000  Uiso   1.00
C187   C     0.95576   0.54716   0.19287   0.00000  Uiso   1.00
C188   C     0.54424   0.45283   0.14046   0.00000  Uiso   1.00
C189   C     0.97138   0.40608   0.11558   0.00000  Uiso   1.00
C190   C     0.52862   0.59392   0.21776   0.00000  Uiso   1.00
C191   C     0.51791   0.40659   0.11579   0.00000  Uiso   1.00
C192   C     0.98209   0.59340   0.21755   0.00000  Uiso   1.00
H193   H     0.88248   0.42152   0.11350   0.00000  Uiso   1.00
H194   H     0.61752   0.57848   0.21982   0.00000  Uiso   1.00
C195   C     0.74829   0.34401   0.14238   0.00000  Uiso   1.00
C196   C     0.75171   0.65599   0.19096   0.00000  Uiso   1.00
N197   N     0.73744   0.48547   0.01284   0.00000  Uiso   1.00
N198   N     0.76255   0.51453   0.32049   0.00000  Uiso   1.00
N199   N     0.88689   0.59389   0.22094   0.00000  Uiso   1.00
O200   O     0.85733   0.61422   0.18895   0.00000  Uiso   1.00
O201   O     0.89290   0.61259   0.28004   0.00000  Uiso   1.00
N202   N     0.61311   0.40611   0.11241   0.00000  Uiso   1.00
O203   O     0.64268   0.38579   0.14439   0.00000  Uiso   1.00
O204   O     0.60710   0.38739   0.05331   0.00000  Uiso   1.00
N205   N     0.94651   0.35665   0.09315   0.00000  Uiso   1.00
O206   O     0.91697   0.34130   0.12643   0.00000  Uiso   1.00
O207   O     0.95999   0.65570   0.04691   0.00000  Uiso   1.00
N208   N     0.55349   0.64334   0.24018   0.00000  Uiso   1.00
O209   O     0.58301   0.65870   0.20690   0.00000  Uiso   1.00
O210   O     0.54002   0.34428   0.28643   0.00000  Uiso   1.00
H211   H     0.53341   0.36979   0.09820   0.00000  Uiso   1.00
H212   H     0.96659   0.63020   0.23514   0.00000  Uiso   1.00
H213   H     0.74490   0.65361   0.09552   0.00000  Uiso   1.00
H214   H     0.75510   0.34639   0.23781   0.00000  Uiso   1.00
H215   H     0.71523   0.45956   0.31630   0.00000  Uiso   1.00
H216   H     0.78477   0.54044   0.01703   0.00000  Uiso   1.00
O217   O     0.25325   0.76204   0.20659   0.00000  Uiso   1.00
O218   O     0.24674   0.90462   0.12674   0.00000  Uiso   1.00
O219   O     0.24480   0.75226   0.10279   0.00000  Uiso   1.00
O220   O     0.25520   0.91441   0.23055   0.00000  Uiso   1.00
C221   C     0.24892   0.73329   0.15113   0.00000  Uiso   1.00
C222   C     0.25108   0.93337   0.18220   0.00000  Uiso   1.00
O223   O     0.18935   0.83821   0.21857   0.00000  Uiso   1.00
O224   O     0.31064   0.82845   0.11476   0.00000  Uiso   1.00
O225   O     0.18090   0.82843   0.11477   0.00000  Uiso   1.00
O226   O     0.31910   0.83824   0.21857   0.00000  Uiso   1.00
C227   C     0.16463   0.83338   0.16779   0.00000  Uiso   1.00
C228   C     0.33537   0.83329   0.16554   0.00000  Uiso   1.00
Cu229  Cu    0.25500   0.83913   0.22813   0.00000  Uiso   1.00
Cu230  Cu    0.24499   0.82754   0.10521   0.00000  Uiso   1.00
C231   C     0.40889   0.88069   0.19258   0.00000  Uiso   1.00
C232   C     0.09111   0.78597   0.14076   0.00000  Uiso   1.00
C233   C     0.38345   0.83484   0.16350   0.00000  Uiso   1.00
C234   C     0.11655   0.83183   0.16983   0.00000  Uiso   1.00
C235   C     0.40369   0.78891   0.13619   0.00000  Uiso   1.00
C236   C     0.09630   0.87776   0.19714   0.00000  Uiso   1.00
C237   C     0.45030   0.78676   0.13937   0.00000  Uiso   1.00
C238   C     0.04970   0.87990   0.19396   0.00000  Uiso   1.00
C239   C     0.47652   0.83346   0.16641   0.00000  Uiso   1.00
C240   C     0.02348   0.83320   0.16692   0.00000  Uiso   1.00
C241   C     0.45576   0.88050   0.19287   0.00000  Uiso   1.00
C242   C     0.04424   0.78616   0.14046   0.00000  Uiso   1.00
C243   C     0.47138   0.73941   0.11558   0.00000  Uiso   1.00
C244   C     0.02862   0.92725   0.21776   0.00000  Uiso   1.00
C245   C     0.01791   0.73993   0.11579   0.00000  Uiso   1.00
C246   C     0.48209   0.92673   0.21755   0.00000  Uiso   1.00
H247   H     0.38248   0.75486   0.11350   0.00000  Uiso   1.00
H248   H     0.11752   0.91181   0.21982   0.00000  Uiso   1.00
C249   C     0.24829   0.67734   0.14238   0.00000  Uiso   1.00
C250   C     0.25171   0.98932   0.19096   0.00000  Uiso   1.00
N251   N     0.23744   0.81881   0.01284   0.00000  Uiso   1.00
N252   N     0.26255   0.84786   0.32049   0.00000  Uiso   1.00
N253   N     0.38689   0.92722   0.22094   0.00000  Uiso   1.00
O254   O     0.35733   0.94755   0.18895   0.00000  Uiso   1.00
O255   O     0.39290   0.94592   0.28004   0.00000  Uiso   1.00
N256   N     0.11311   0.73944   0.11241   0.00000  Uiso   1.00
O257   O     0.14268   0.71912   0.14439   0.00000  Uiso   1.00
O258   O     0.10710   0.72073   0.05331   0.00000  Uiso   1.00
N259   N     0.44651   0.68998   0.09315   0.00000  Uiso   1.00
O260   O     0.41697   0.67464   0.12643   0.00000  Uiso   1.00
O261   O     0.45999   0.98903   0.04691   0.00000  Uiso   1.00
N262   N     0.05349   0.97667   0.24018   0.00000  Uiso   1.00
O263   O     0.08301   0.99203   0.20690   0.00000  Uiso   1.00
O264   O     0.04002   0.67762   0.28643   0.00000  Uiso   1.00
H265   H     0.03341   0.70313   0.09820   0.00000  Uiso   1.00
H266   H     0.46659   0.96353   0.23514   0.00000  Uiso   1.00
H267   H     0.24490   0.98694   0.09552   0.00000  Uiso   1.00
H268   H     0.25510   0.67973   0.23781   0.00000  Uiso   1.00
H269   H     0.21523   0.79289   0.31630   0.00000  Uiso   1.00
H270   H     0.28477   0.87378   0.01703   0.00000  Uiso   1.00
O271   O     0.75325   0.76204   0.20659   0.00000  Uiso   1.00
O272   O     0.74674   0.90462   0.12674   0.00000  Uiso   1.00
O273   O     0.74480   0.75226   0.10279   0.00000  Uiso   1.00
O274   O     0.75520   0.91441   0.23055   0.00000  Uiso   1.00
C275   C     0.74892   0.73329   0.15113   0.00000  Uiso   1.00
C276   C     0.75108   0.93337   0.18220   0.00000  Uiso   1.00
O277   O     0.68935   0.83821   0.21857   0.00000  Uiso   1.00
O278   O     0.81064   0.82845   0.11476   0.00000  Uiso   1.00
O279   O     0.68090   0.82843   0.11477   0.00000  Uiso   1.00
O280   O     0.81910   0.83824   0.21857   0.00000  Uiso   1.00
C281   C     0.66463   0.83338   0.16779   0.00000  Uiso   1.00
C282   C     0.83537   0.83329   0.16554   0.00000  Uiso   1.00
Cu283  Cu    0.75500   0.83913   0.22813   0.00000  Uiso   1.00
Cu284  Cu    0.74499   0.82754   0.10521   0.00000  Uiso   1.00
C285   C     0.90889   0.88069   0.19258   0.00000  Uiso   1.00
C286   C     0.59111   0.78597   0.14076   0.00000  Uiso   1.00
C287   C     0.88345   0.83484   0.16350   0.00000  Uiso   1.00
C288   C     0.61655   0.83183   0.16983   0.00000  Uiso   1.00
C289   C     0.90369   0.78891   0.13619   0.00000  Uiso   1.00
C290   C     0.59630   0.87776   0.19714   0.00000  Uiso   1.00
C291   C     0.95030   0.78676   0.13937   0.00000  Uiso   1.00
C292   C     0.54970   0.87990   0.19396   0.00000  Uiso   1.00
C293   C     0.97652   0.83346   0.16641   0.00000  Uiso   1.00
C294   C     0.52348   0.83320   0.16692   0.00000  Uiso   1.00
C295   C     0.95576   0.88050   0.19287   0.00000  Uiso   1.00
C296   C     0.54424   0.78616   0.14046   0.00000  Uiso   1.00
C297   C     0.97138   0.73941   0.11558   0.00000  Uiso   1.00
C298   C     0.52862   0.92725   0.21776   0.00000  Uiso   1.00
C299   C     0.51791   0.73993   0.11579   0.00000  Uiso   1.00
C300   C     0.98209   0.92673   0.21755   0.00000  Uiso   1.00
H301   H     0.88248   0.75486   0.11350   0.00000  Uiso   1.00
H302   H     0.61752   0.91181   0.21982   0.00000  Uiso   1.00
C303   C     0.74829   0.67734   0.14238   0.00000  Uiso   1.00
C304   C     0.75171   0.98932   0.19096   0.00000  Uiso   1.00
N305   N     0.73744   0.81881   0.01284   0.00000  Uiso   1.00
N306   N     0.76255   0.84786   0.32049   0.00000  Uiso   1.00
N307   N     0.88689   0.92722   0.22094   0.00000  Uiso   1.00
O308   O     0.85733   0.94755   0.18895   0.00000  Uiso   1.00
O309   O     0.89290   0.94592   0.28004   0.00000  Uiso   1.00
N310   N     0.61311   0.73944   0.11241   0.00000  Uiso   1.00
O311   O     0.64268   0.71912   0.14439   0.00000  Uiso   1.00
O312   O     0.60710   0.72073   0.05331   0.00000  Uiso   1.00
N313   N     0.94651   0.68998   0.09315   0.00000  Uiso   1.00
O314   O     0.91697   0.67464   0.12643   0.00000  Uiso   1.00
O315   O     0.95999   0.98903   0.04691   0.00000  Uiso   1.00
N316   N     0.55349   0.97667   0.24018   0.00000  Uiso   1.00
O317   O     0.58301   0.99203   0.20690   0.00000  Uiso   1.00
O318   O     0.54002   0.67762   0.28643   0.00000  Uiso   1.00
H319   H     0.53341   0.70313   0.09820   0.00000  Uiso   1.00
H320   H     0.96659   0.96353   0.23514   0.00000  Uiso   1.00
H321   H     0.74490   0.98694   0.09552   0.00000  Uiso   1.00
H322   H     0.75510   0.67973   0.23781   0.00000  Uiso   1.00
H323   H     0.71523   0.79289   0.31630   0.00000  Uiso   1.00
H324   H     0.78477   0.87378   0.01703   0.00000  Uiso   1.00
O325   O     0.25325   0.09538   0.53992   0.00000  Uiso   1.00
O326   O     0.24674   0.23796   0.46008   0.00000  Uiso   1.00
O327   O     0.24480   0.08559   0.43612   0.00000  Uiso   1.00
O328   O     0.25520   0.24774   0.56388   0.00000  Uiso   1.00
C329   C     0.24892   0.06663   0.48447   0.00000  Uiso   1.00
C330   C     0.25108   0.26671   0.51553   0.00000  Uiso   1.00
O331   O     0.18935   0.17155   0.55191   0.00000  Uiso   1.00
O332   O     0.31064   0.16179   0.44809   0.00000  Uiso   1.00
O333   O     0.18090   0.16176   0.44810   0.00000  Uiso   1.00
O334   O     0.31910   0.17157   0.55190   0.00000  Uiso   1.00
C335   C     0.16463   0.16671   0.50112   0.00000  Uiso   1.00
C336   C     0.33537   0.16662   0.49888   0.00000  Uiso   1.00
Cu337  Cu    0.25500   0.17246   0.56146   0.00000  Uiso   1.00
Cu338  Cu    0.24499   0.16087   0.43854   0.00000  Uiso   1.00
C339   C     0.40889   0.21402   0.52591   0.00000  Uiso   1.00
C340   C     0.09111   0.11931   0.47409   0.00000  Uiso   1.00
C341   C     0.38345   0.16817   0.49683   0.00000  Uiso   1.00
C342   C     0.11655   0.16516   0.50317   0.00000  Uiso   1.00
C343   C     0.40369   0.12224   0.46952   0.00000  Uiso   1.00
C344   C     0.09630   0.21109   0.53047   0.00000  Uiso   1.00
C345   C     0.45030   0.12010   0.47270   0.00000  Uiso   1.00
C346   C     0.04970   0.21323   0.52729   0.00000  Uiso   1.00
C347   C     0.47652   0.16680   0.49974   0.00000  Uiso   1.00
C348   C     0.02348   0.16653   0.50026   0.00000  Uiso   1.00
C349   C     0.45576   0.21383   0.52621   0.00000  Uiso   1.00
C350   C     0.04424   0.11950   0.47380   0.00000  Uiso   1.00
C351   C     0.47138   0.07275   0.44891   0.00000  Uiso   1.00
C352   C     0.02862   0.26058   0.55109   0.00000  Uiso   1.00
C353   C     0.01791   0.07326   0.44912   0.00000  Uiso   1.00
C354   C     0.48209   0.26007   0.55089   0.00000  Uiso   1.00
H355   H     0.38248   0.08819   0.44684   0.00000  Uiso   1.00
H356   H     0.11752   0.24515   0.55315   0.00000  Uiso   1.00
C357   C     0.24829   0.01068   0.47571   0.00000  Uiso   1.00
C358   C     0.25171   0.32266   0.52429   0.00000  Uiso   1.00
N359   N     0.23744   0.15214   0.34617   0.00000  Uiso   1.00
N360   N     0.26255   0.18119   0.65383   0.00000  Uiso   1.00
N361   N     0.38689   0.26056   0.55427   0.00000  Uiso   1.00
O362   O     0.35733   0.28089   0.52229   0.00000  Uiso   1.00
O363   O     0.39290   0.27925   0.61337   0.00000  Uiso   1.00
N364   N     0.11311   0.07277   0.44574   0.00000  Uiso   1.00
O365   O     0.14268   0.05245   0.47772   0.00000  Uiso   1.00
O366   O     0.10710   0.05406   0.38664   0.00000  Uiso   1.00
N367   N     0.44651   0.02332   0.42648   0.00000  Uiso   1.00
O368   O     0.41697   0.00797   0.45976   0.00000  Uiso   1.00
O369   O     0.45999   0.32236   0.38024   0.00000  Uiso   1.00
N370   N     0.05349   0.31001   0.57351   0.00000  Uiso   1.00
O371   O     0.08301   0.32537   0.54023   0.00000  Uiso   1.00
O372   O     0.04002   0.01095   0.61977   0.00000  Uiso   1.00
H373   H     0.03341   0.03646   0.43154   0.00000  Uiso   1.00
H374   H     0.46659   0.29687   0.56847   0.00000  Uiso   1.00
H375   H     0.24490   0.32027   0.42886   0.00000  Uiso   1.00
H376   H     0.25510   0.01306   0.57114   0.00000  Uiso   1.00
H377   H     0.21523   0.12622   0.64964   0.00000  Uiso   1.00
H378   H     0.28477   0.20711   0.35036   0.00000  Uiso   1.00
O379   O     0.75325   0.09538   0.53992   0.00000  Uiso   1.00
O380   O     0.74674   0.23796   0.46008   0.00000  Uiso   1.00
O381   O     0.74480   0.08559   0.43612   0.00000  Uiso   1.00
O382   O     0.75520   0.24774   0.56388   0.00000  Uiso   1.00
C383   C     0.74892   0.06663   0.48447   0.00000  Uiso   1.00
C384   C     0.75108   0.26671   0.51553   0.00000  Uiso   1.00
O385   O     0.68935   0.17155   0.55191   0.00000  Uiso   1.00
O386   O     0.81064   0.16179   0.44809   0.00000  Uiso   1.00
O387   O     0.68090   0.16176   0.44810   0.00000  Uiso   1.00
O388   O     0.81910   0.17157   0.55190   0.00000  Uiso   1.00
C389   C     0.66463   0.16671   0.50112   0.00000  Uiso   1.00
C390   C     0.83537   0.16662   0.49888   0.00000  Uiso   1.00
Cu391  Cu    0.75500   0.17246   0.56146   0.00000  Uiso   1.00
Cu392  Cu    0.74499   0.16087   0.43854   0.00000  Uiso   1.00
C393   C     0.90889   0.21402   0.52591   0.00000  Uiso   1.00
C394   C     0.59111   0.11931   0.47409   0.00000  Uiso   1.00
C395   C     0.88345   0.16817   0.49683   0.00000  Uiso   1.00
C396   C     0.61655   0.16516   0.50317   0.00000  Uiso   1.00
C397   C     0.90369   0.12224   0.46952   0.00000  Uiso   1.00
C398   C     0.59630   0.21109   0.53047   0.00000  Uiso   1.00
C399   C     0.95030   0.12010   0.47270   0.00000  Uiso   1.00
C400   C     0.54970   0.21323   0.52729   0.00000  Uiso   1.00
C401   C     0.97652   0.16680   0.49974   0.00000  Uiso   1.00
C402   C     0.52348   0.16653   0.50026   0.00000  Uiso   1.00
C403   C     0.95576   0.21383   0.52621   0.00000  Uiso   1.00
C404   C     0.54424   0.11950   0.47380   0.00000  Uiso   1.00
C405   C     0.97138   0.07275   0.44891   0.00000  Uiso   1.00
C406   C     0.52862   0.26058   0.55109   0.00000  Uiso   1.00
C407   C     0.51791   0.07326   0.44912   0.00000  Uiso   1.00
C408   C     0.98209   0.26007   0.55089   0.00000  Uiso   1.00
H409   H     0.88248   0.08819   0.44684   0.00000  Uiso   1.00
H410   H     0.61752   0.24515   0.55315   0.00000  Uiso   1.00
C411   C     0.74829   0.01068   0.47571   0.00000  Uiso   1.00
C412   C     0.75171   0.32266   0.52429   0.00000  Uiso   1.00
N413   N     0.73744   0.15214   0.34617   0.00000  Uiso   1.00
N414   N     0.76255   0.18119   0.65383   0.00000  Uiso   1.00
N415   N     0.88689   0.26056   0.55427   0.00000  Uiso   1.00
O416   O     0.85733   0.28089   0.52229   0.00000  Uiso   1.00
O417   O     0.89290   0.27925   0.61337   0.00000  Uiso   1.00
N418   N     0.61311   0.07277   0.44574   0.00000  Uiso   1.00
O419   O     0.64268   0.05245   0.47772   0.00000  Uiso   1.00
O420   O     0.60710   0.05406   0.38664   0.00000  Uiso   1.00
N421   N     0.94651   0.02332   0.42648   0.00000  Uiso   1.00
O422   O     0.91697   0.00797   0.45976   0.00000  Uiso   1.00
O423   O     0.95999   0.32236   0.38024   0.00000  Uiso   1.00
N424   N     0.55349   0.31001   0.57351   0.00000  Uiso   1.00
O425   O     0.58301   0.32537   0.54023   0.00000  Uiso   1.00
O426   O     0.54002   0.01095   0.61977   0.00000  Uiso   1.00
H427   H     0.53341   0.03646   0.43154   0.00000  Uiso   1.00
H428   H     0.96659   0.29687   0.56847   0.00000  Uiso   1.00
H429   H     0.74490   0.32027   0.42886   0.00000  Uiso   1.00
H430   H     0.75510   0.01306   0.57114   0.00000  Uiso   1.00
H431   H     0.71523   0.12622   0.64964   0.00000  Uiso   1.00
H432   H     0.78477   0.20711   0.35036   0.00000  Uiso   1.00
O433   O     0.25325   0.42871   0.53992   0.00000  Uiso   1.00
O434   O     0.24674   0.57129   0.46008   0.00000  Uiso   1.00
O435   O     0.24480   0.41892   0.43612   0.00000  Uiso   1.00
O436   O     0.25520   0.58108   0.56388   0.00000  Uiso   1.00
C437   C     0.24892   0.39996   0.48447   0.00000  Uiso   1.00
C438   C     0.25108   0.60004   0.51553   0.00000  Uiso   1.00
O439   O     0.18935   0.50488   0.55191   0.00000  Uiso   1.00
O440   O     0.31064   0.49512   0.44809   0.00000  Uiso   1.00
O441   O     0.18090   0.49510   0.44810   0.00000  Uiso   1.00
O442   O     0.31910   0.50490   0.55190   0.00000  Uiso   1.00
C443   C     0.16463   0.50004   0.50112   0.00000  Uiso   1.00
C444   C     0.33537   0.49996   0.49888   0.00000  Uiso   1.00
Cu445  Cu    0.25500   0.50579   0.56146   0.00000  Uiso   1.00
Cu446  Cu    0.24499   0.49421   0.43854   0.00000  Uiso   1.00
C447   C     0.40889   0.54736   0.52591   0.00000  Uiso   1.00
C448   C     0.09111   0.45264   0.47409   0.00000  Uiso   1.00
C449   C     0.38345   0.50150   0.49683   0.00000  Uiso   1.00
C450   C     0.11655   0.49849   0.50317   0.00000  Uiso   1.00
C451   C     0.40369   0.45557   0.46952   0.00000  Uiso   1.00
C452   C     0.09630   0.54443   0.53047   0.00000  Uiso   1.00
C453   C     0.45030   0.45343   0.47270   0.00000  Uiso   1.00
C454   C     0.04970   0.54657   0.52729   0.00000  Uiso   1.00
C455   C     0.47652   0.50013   0.49974   0.00000  Uiso   1.00
C456   C     0.02348   0.49987   0.50026   0.00000  Uiso   1.00
C457   C     0.45576   0.54716   0.52621   0.00000  Uiso   1.00
C458   C     0.04424   0.45283   0.47380   0.00000  Uiso   1.00
C459   C     0.47138   0.40608   0.44891   0.00000  Uiso   1.00
C460   C     0.02862   0.59392   0.55109   0.00000  Uiso   1.00
C461   C     0.01791   0.40659   0.44912   0.00000  Uiso   1.00
C462   C     0.48209   0.59340   0.55089   0.00000  Uiso   1.00
H463   H     0.38248   0.42152   0.44684   0.00000  Uiso   1.00
H464   H     0.11752   0.57848   0.55315   0.00000  Uiso   1.00
C465   C     0.24829   0.34401   0.47571   0.00000  Uiso   1.00
C466   C     0.25171   0.65599   0.52429   0.00000  Uiso   1.00
N467   N     0.23744   0.48547   0.34617   0.00000  Uiso   1.00
N468   N     0.26255   0.51453   0.65383   0.00000  Uiso   1.00
N469   N     0.38689   0.59389   0.55427   0.00000  Uiso   1.00
O470   O     0.35733   0.61422   0.52229   0.00000  Uiso   1.00
O471   O     0.39290   0.61259   0.61337   0.00000  Uiso   1.00
N472   N     0.11311   0.40611   0.44574   0.00000  Uiso   1.00
O473   O     0.14268   0.38579   0.47772   0.00000  Uiso   1.00
O474   O     0.10710   0.38739   0.38664   0.00000  Uiso   1.00
N475   N     0.44651   0.35665   0.42648   0.00000  Uiso   1.00
O476   O     0.41697   0.34130   0.45976   0.00000  Uiso   1.00
O477   O     0.45999   0.65570   0.38024   0.00000  Uiso   1.00
N478   N     0.05349   0.64334   0.57351   0.00000  Uiso   1.00
O479   O     0.08301   0.65870   0.54023   0.00000  Uiso   1.00
O480   O     0.04002   0.34428   0.61977   0.00000  Uiso   1.00
H481   H     0.03341   0.36979   0.43154   0.00000  Uiso   1.00
H482   H     0.46659   0.63020   0.56847   0.00000  Uiso   1.00
H483   H     0.24490   0.65361   0.42886   0.00000  Uiso   1.00
H484   H     0.25510   0.34639   0.57114   0.00000  Uiso   1.00
H485   H     0.21523   0.45956   0.64964   0.00000  Uiso   1.00
H486   H     0.28477   0.54044   0.35036   0.00000  Uiso   1.00
O487   O     0.75325   0.42871   0.53992   0.00000  Uiso   1.00
O488   O     0.74674   0.57129   0.46008   0.00000  Uiso   1.00
O489   O     0.74480   0.41892   0.43612   0.00000  Uiso   1.00
O490   O     0.75520   0.58108   0.56388   0.00000  Uiso   1.00
C491   C     0.74892   0.39996   0.48447   0.00000  Uiso   1.00
C492   C     0.75108   0.60004   0.51553   0.00000  Uiso   1.00
O493   O     0.68935   0.50488   0.55191   0.00000  Uiso   1.00
O494   O     0.81064   0.49512   0.44809   0.00000  Uiso   1.00
O495   O     0.68090   0.49510   0.44810   0.00000  Uiso   1.00
O496   O     0.81910   0.50490   0.55190   0.00000  Uiso   1.00
C497   C     0.66463   0.50004   0.50112   0.00000  Uiso   1.00
C498   C     0.83537   0.49996   0.49888   0.00000  Uiso   1.00
Cu499  Cu    0.75500   0.50579   0.56146   0.00000  Uiso   1.00
Cu500  Cu    0.74499   0.49421   0.43854   0.00000  Uiso   1.00
C501   C     0.90889   0.54736   0.52591   0.00000  Uiso   1.00
C502   C     0.59111   0.45264   0.47409   0.00000  Uiso   1.00
C503   C     0.88345   0.50150   0.49683   0.00000  Uiso   1.00
C504   C     0.61655   0.49849   0.50317   0.00000  Uiso   1.00
C505   C     0.90369   0.45557   0.46952   0.00000  Uiso   1.00
C506   C     0.59630   0.54443   0.53047   0.00000  Uiso   1.00
C507   C     0.95030   0.45343   0.47270   0.00000  Uiso   1.00
C508   C     0.54970   0.54657   0.52729   0.00000  Uiso   1.00
C509   C     0.97652   0.50013   0.49974   0.00000  Uiso   1.00
C510   C     0.52348   0.49987   0.50026   0.00000  Uiso   1.00
C511   C     0.95576   0.54716   0.52621   0.00000  Uiso   1.00
C512   C     0.54424   0.45283   0.47380   0.00000  Uiso   1.00
C513   C     0.97138   0.40608   0.44891   0.00000  Uiso   1.00
C514   C     0.52862   0.59392   0.55109   0.00000  Uiso   1.00
C515   C     0.51791   0.40659   0.44912   0.00000  Uiso   1.00
C516   C     0.98209   0.59340   0.55089   0.00000  Uiso   1.00
H517   H     0.88248   0.42152   0.44684   0.00000  Uiso   1.00
H518   H     0.61752   0.57848   0.55315   0.00000  Uiso   1.00
C519   C     0.74829   0.34401   0.47571   0.00000  Uiso   1.00
C520   C     0.75171   0.65599   0.52429   0.00000  Uiso   1.00
N521   N     0.73744   0.48547   0.34617   0.00000  Uiso   1.00
N522   N     0.76255   0.51453   0.65383   0.00000  Uiso   1.00
N523   N     0.88689   0.59389   0.55427   0.00000  Uiso   1.00
O524   O     0.85733   0.61422   0.52229   0.00000  Uiso   1.00
O525   O     0.89290   0.61259   0.61337   0.00000  Uiso   1.00
N526   N     0.61311   0.40611   0.44574   0.00000  Uiso   1.00
O527   O     0.64268   0.38579   0.47772   0.00000  Uiso   1.00
O528   O     0.60710   0.38739   0.38664   0.00000  Uiso   1.00
N529   N     0.94651   0.35665   0.42648   0.00000  Uiso   1.00
O530   O     0.91697   0.34130   0.45976   0.00000  Uiso   1.00
O531   O     0.95999   0.65570   0.38024   0.00000  Uiso   1.00
N532   N     0.55349   0.64334   0.57351   0.00000  Uiso   1.00
O533   O     0.58301   0.65870   0.54023   0.00000  Uiso   1.00
O534   O     0.54002   0.34428   0.61977   0.00000  Uiso   1.00
H535   H     0.53341   0.36979   0.43154   0.00000  Uiso   1.00
H536   H     0.96659   0.63020   0.56847   0.00000  Uiso   1.00
H537   H     0.74490   0.65361   0.42886   0.00000  Uiso   1.00
H538   H     0.75510   0.34639   0.57114   0.00000  Uiso   1.00
H539   H     0.71523   0.45956   0.64964   0.00000  Uiso   1.00
H540   H     0.78477   0.54044   0.35036   0.00000  Uiso   1.00
O541   O     0.25325   0.76204   0.53992   0.00000  Uiso   1.00
O542   O     0.24674   0.90462   0.46008   0.00000  Uiso   1.00
O543   O     0.24480   0.75226   0.43612   0.00000  Uiso   1.00
O544   O     0.25520   0.91441   0.56388   0.00000  Uiso   1.00
C545   C     0.24892   0.73329   0.48447   0.00000  Uiso   1.00
C546   C     0.25108   0.93337   0.51553   0.00000  Uiso   1.00
O547   O     0.18935   0.83821   0.55191   0.00000  Uiso   1.00
O548   O     0.31064   0.82845   0.44809   0.00000  Uiso   1.00
O549   O     0.18090   0.82843   0.44810   0.00000  Uiso   1.00
O550   O     0.31910   0.83824   0.55190   0.00000  Uiso   1.00
C551   C     0.16463   0.83338   0.50112   0.00000  Uiso   1.00
C552   C     0.33537   0.83329   0.49888   0.00000  Uiso   1.00
Cu553  Cu    0.25500   0.83913   0.56146   0.00000  Uiso   1.00
Cu554  Cu    0.24499   0.82754   0.43854   0.00000  Uiso   1.00
C555   C     0.40889   0.88069   0.52591   0.00000  Uiso   1.00
C556   C     0.09111   0.78597   0.47409   0.00000  Uiso   1.00
C557   C     0.38345   0.83484   0.49683   0.00000  Uiso   1.00
C558   C     0.11655   0.83183   0.50317   0.00000  Uiso   1.00
C559   C     0.40369   0.78891   0.46952   0.00000  Uiso   1.00
C560   C     0.09630   0.87776   0.53047   0.00000  Uiso   1.00
C561   C     0.45030   0.78676   0.47270   0.00000  Uiso   1.00
C562   C     0.04970   0.87990   0.52729   0.00000  Uiso   1.00
C563   C     0.47652   0.83346   0.49974   0.00000  Uiso   1.00
C564   C     0.02348   0.83320   0.50026   0.00000  Uiso   1.00
C565   C     0.45576   0.88050   0.52621   0.00000  Uiso   1.00
C566   C     0.04424   0.78616   0.47380   0.00000  Uiso   1.00
C567   C     0.47138   0.73941   0.44891   0.00000  Uiso   1.00
C568   C     0.02862   0.92725   0.55109   0.00000  Uiso   1.00
C569   C     0.01791   0.73993   0.44912   0.00000  Uiso   1.00
C570   C     0.48209   0.92673   0.55089   0.00000  Uiso   1.00
H571   H     0.38248   0.75486   0.44684   0.00000  Uiso   1.00
H572   H     0.11752   0.91181   0.55315   0.00000  Uiso   1.00
C573   C     0.24829   0.67734   0.47571   0.00000  Uiso   1.00
C574   C     0.25171   0.98932   0.52429   0.00000  Uiso   1.00
N575   N     0.23744   0.81881   0.34617   0.00000  Uiso   1.00
N576   N     0.26255   0.84786   0.65383   0.00000  Uiso   1.00
N577   N     0.38689   0.92722   0.55427   0.00000  Uiso   1.00
O578   O     0.35733   0.94755   0.52229   0.00000  Uiso   1.00
O579   O     0.39290   0.94592   0.61337   0.00000  Uiso   1.00
N580   N     0.11311   0.73944   0.44574   0.00000  Uiso   1.00
O581   O     0.14268   0.71912   0.47772   0.00000  Uiso   1.00
O582   O     0.10710   0.72073   0.38664   0.00000  Uiso   1.00
N583   N     0.44651   0.68998   0.42648   0.00000  Uiso   1.00
O584   O     0.41697   0.67464   0.45976   0.00000  Uiso   1.00
O585   O     0.45999   0.98903   0.38024   0.00000  Uiso   1.00
N586   N     0.05349   0.97667   0.57351   0.00000  Uiso   1.00
O587   O     0.08301   0.99203   0.54023   0.00000  Uiso   1.00
O588   O     0.04002   0.67762   0.61977   0.00000  Uiso   1.00
H589   H     0.03341   0.70313   0.43154   0.00000  Uiso   1.00
H590   H     0.46659   0.96353   0.56847   0.00000  Uiso   1.00
H591   H     0.24490   0.98694   0.42886   0.00000  Uiso   1.00
H592   H     0.25510   0.67973   0.57114   0.00000  Uiso   1.00
H593   H     0.21523   0.79289   0.64964   0.00000  Uiso   1.00
H594   H     0.28477   0.87378   0.35036   0.00000  Uiso   1.00
O595   O     0.75325   0.76204   0.53992   0.00000  Uiso   1.00
O596   O     0.74674   0.90462   0.46008   0.00000  Uiso   1.00
O597   O     0.74480   0.75226   0.43612   0.00000  Uiso   1.00
O598   O     0.75520   0.91441   0.56388   0.00000  Uiso   1.00
C599   C     0.74892   0.73329   0.48447   0.00000  Uiso   1.00
C600   C     0.75108   0.93337   0.51553   0.00000  Uiso   1.00
O601   O     0.68935   0.83821   0.55191   0.00000  Uiso   1.00
O602   O     0.81064   0.82845   0.44809   0.00000  Uiso   1.00
O603   O     0.68090   0.82843   0.44810   0.00000  Uiso   1.00
O604   O     0.81910   0.83824   0.55190   0.00000  Uiso   1.00
C605   C     0.66463   0.83338   0.50112   0.00000  Uiso   1.00
C606   C     0.83537   0.83329   0.49888   0.00000  Uiso   1.00
Cu607  Cu    0.75500   0.83913   0.56146   0.00000  Uiso   1.00
Cu608  Cu    0.74499   0.82754   0.43854   0.00000  Uiso   1.00
C609   C     0.90889   0.88069   0.52591   0.00000  Uiso   1.00
C610   C     0.59111   0.78597   0.47409   0.00000  Uiso   1.00
C611   C     0.88345   0.83484   0.49683   0.00000  Uiso   1.00
C612   C     0.61655   0.83183   0.50317   0.00000  Uiso   1.00
C613   C     0.90369   0.78891   0.46952   0.00000  Uiso   1.00
C614   C     0.59630   0.87776   0.53047   0.00000  Uiso   1.00
C615   C     0.95030   0.78676   0.47270   0.00000  Uiso   1.00
C616   C     0.54970   0.87990   0.52729   0.00000  Uiso   1.00
C617   C     0.97652   0.83346   0.49974   0.00000  Uiso   1.00
C618   C     0.52348   0.83320   0.50026   0.00000  Uiso   1.00
C619   C     0.95576   0.88050   0.52621   0.00000  Uiso   1.00
C620   C     0.54424   0.78616   0.47380   0.00000  Uiso   1.00
C621   C     0.97138   0.73941   0.44891   0.00000  Uiso   1.00
C622   C     0.52862   0.92725   0.55109   0.00000  Uiso   1.00
C623   C     0.51791   0.73993   0.44912   0.00000  Uiso   1.00
C624   C     0.98209   0.92673   0.55089   0.00000  Uiso   1.00
H625   H     0.88248   0.75486   0.44684   0.00000  Uiso   1.00
H626   H     0.61752   0.91181   0.55315   0.00000  Uiso   1.00
C627   C     0.74829   0.67734   0.47571   0.00000  Uiso   1.00
C628   C     0.75171   0.98932   0.52429   0.00000  Uiso   1.00
N629   N     0.73744   0.81881   0.34617   0.00000  Uiso   1.00
N630   N     0.76255   0.84786   0.65383   0.00000  Uiso   1.00
N631   N     0.88689   0.92722   0.55427   0.00000  Uiso   1.00
O632   O     0.85733   0.94755   0.52229   0.00000  Uiso   1.00
O633   O     0.89290   0.94592   0.61337   0.00000  Uiso   1.00
N634   N     0.61311   0.73944   0.44574   0.00000  Uiso   1.00
O635   O     0.64268   0.71912   0.47772   0.00000  Uiso   1.00
O636   O     0.60710   0.72073   0.38664   0.00000  Uiso   1.00
N637   N     0.94651   0.68998   0.42648   0.00000  Uiso   1.00
O638   O     0.91697   0.67464   0.45976   0.00000  Uiso   1.00
O639   O     0.95999   0.98903   0.38024   0.00000  Uiso   1.00
N640   N     0.55349   0.97667   0.57351   0.00000  Uiso   1.00
O641   O     0.58301   0.99203   0.54023   0.00000  Uiso   1.00
O642   O     0.54002   0.67762   0.61977   0.00000  Uiso   1.00
H643   H     0.53341   0.70313   0.43154   0.00000  Uiso   1.00
H644   H     0.96659   0.96353   0.56847   0.00000  Uiso   1.00
H645   H     0.74490   0.98694   0.42886   0.00000  Uiso   1.00
H646   H     0.75510   0.67973   0.57114   0.00000  Uiso   1.00
H647   H     0.71523   0.79289   0.64964   0.00000  Uiso   1.00
H648   H     0.78477   0.87378   0.35036   0.00000  Uiso   1.00
O649   O     0.25325   0.09538   0.87326   0.00000  Uiso   1.00
O650   O     0.24674   0.23796   0.79341   0.00000  Uiso   1.00
O651   O     0.24480   0.08559   0.76945   0.00000  Uiso   1.00
O652   O     0.25520   0.24774   0.89721   0.00000  Uiso   1.00
C653   C     0.24892   0.06663   0.81780   0.00000  Uiso   1.00
C654   C     0.25108   0.26671   0.84887   0.00000  Uiso   1.00
O655   O     0.18935   0.17155   0.88524   0.00000  Uiso   1.00
O656   O     0.31064   0.16179   0.78143   0.00000  Uiso   1.00
O657   O     0.18090   0.16176   0.78143   0.00000  Uiso   1.00
O658   O     0.31910   0.17157   0.88523   0.00000  Uiso   1.00
C659   C     0.16463   0.16671   0.83446   0.00000  Uiso   1.00
C660   C     0.33537   0.16662   0.83221   0.00000  Uiso   1.00
Cu661  Cu    0.25500   0.17246   0.89479   0.00000  Uiso   1.00
Cu662  Cu    0.24499   0.16087   0.77187   0.00000  Uiso   1.00
C663   C     0.40889   0.21402   0.85925   0.00000  Uiso   1.00
C664   C     0.09111   0.11931   0.80743   0.00000  Uiso   1.00
C665   C     0.38345   0.16817   0.83017   0.00000  Uiso   1.00
C666   C     0.11655   0.16516   0.83650   0.00000  Uiso   1.00
C667   C     0.40369   0.12224   0.80286   0.00000  Uiso   1.00
C668   C     0.09630   0.21109   0.86380   0.00000  Uiso   1.00
C669   C     0.45030   0.12010   0.80604   0.00000  Uiso   1.00
C670   C     0.04970   0.21323   0.86063   0.00000  Uiso   1.00
C671   C     0.47652   0.16680   0.83308   0.00000  Uiso   1.00
C672   C     0.02348   0.16653   0.83359   0.00000  Uiso   1.00
C673   C     0.45576   0.21383   0.85954   0.00000  Uiso   1.00
C674   C     0.04424   0.11950   0.80713   0.00000  Uiso   1.00
C675   C     0.47138   0.07275   0.78224   0.00000  Uiso   1.00
C676   C     0.02862   0.26058   0.88442   0.00000  Uiso   1.00
C677   C     0.01791   0.07326   0.78245   0.00000  Uiso   1.00
C678   C     0.48209   0.26007   0.88422   0.00000  Uiso   1.00
H679   H     0.38248   0.08819   0.78017   0.00000  Uiso   1.00
H680   H     0.11752   0.24515   0.88649   0.00000  Uiso   1.00
C681   C     0.24829   0.01068   0.80904   0.00000  Uiso   1.00
C682   C     0.25171   0.32266   0.85762   0.00000  Uiso   1.00
N683   N     0.23744   0.15214   0.67951   0.00000  Uiso   1.00
N684   N     0.26255   0.18119   0.98716   0.00000  Uiso   1.00
N685   N     0.38689   0.26056   0.88760   0.00000  Uiso   1.00
O686   O     0.35733   0.28089   0.85562   0.00000  Uiso   1.00
O687   O     0.39290   0.27925   0.94670   0.00000  Uiso   1.00
N688   N     0.11311   0.07277   0.77907   0.00000  Uiso   1.00
O689   O     0.14268   0.05245   0.81106   0.00000  Uiso   1.00
O690   O     0.10710   0.05406   0.71997   0.00000  Uiso   1.00
N691   N     0.44651   0.02332   0.75982   0.00000  Uiso   1.00
O692   O     0.41697   0.00797   0.79309   0.00000  Uiso   1.00
O693   O     0.45999   0.32236   0.71357   0.00000  Uiso   1.00
N694   N     0.05349   0.31001   0.90685   0.00000  Uiso   1.00
O695   O     0.08301   0.32537   0.87356   0.00000  Uiso   1.00
O696   O     0.04002   0.01095   0.95310   0.00000  Uiso   1.00
H697   H     0.03341   0.03646   0.76487   0.00000  Uiso   1.00
H698   H     0.46659   0.29687   0.90181   0.00000  Uiso   1.00
H699   H     0.24490   0.32027   0.76219   0.00000  Uiso   1.00
H700   H     0.25510   0.01306   0.90448   0.00000  Uiso   1.00
H701   H     0.21523   0.12622   0.98297   0.00000  Uiso   1.00
H702   H     0.28477   0.20711   0.68370   0.00000  Uiso   1.00
O703   O     0.75325   0.09538   0.87326   0.00000  Uiso   1.00
O704   O     0.74674   0.23796   0.79341   0.00000  Uiso   1.00
O705   O     0.74480   0.08559   0.76945   0.00000  Uiso   1.00
O706   O     0.75520   0.24774   0.89721   0.00000  Uiso   1.00
C707   C     0.74892   0.06663   0.81780   0.00000  Uiso   1.00
C708   C     0.75108   0.26671   0.84887   0.00000  Uiso   1.00
O709   O     0.68935   0.17155   0.88524   0.00000  Uiso   1.00
O710   O     0.81064   0.16179   0.78143   0.00000  Uiso   1.00
O711   O     0.68090   0.16176   0.78143   0.00000  Uiso   1.00
O712   O     0.81910   0.17157   0.88523   0.00000  Uiso   1.00
C713   C     0.66463   0.16671   0.83446   0.00000  Uiso   1.00
C714   C     0.83537   0.16662   0.83221   0.00000  Uiso   1.00
Cu715  Cu    0.75500   0.17246   0.89479   0.00000  Uiso   1.00
Cu716  Cu    0.74499   0.16087   0.77187   0.00000  Uiso   1.00
C717   C     0.90889   0.21402   0.85925   0.00000  Uiso   1.00
C718   C     0.59111   0.11931   0.80743   0.00000  Uiso   1.00
C719   C     0.88345   0.16817   0.83017   0.00000  Uiso   1.00
C720   C     0.61655   0.16516   0.83650   0.00000  Uiso   1.00
C721   C     0.90369   0.12224   0.80286   0.00000  Uiso   1.00
C722   C     0.59630   0.21109   0.86380   0.00000  Uiso   1.00
C723   C     0.95030   0.12010   0.80604   0.00000  Uiso   1.00
C724   C     0.54970   0.21323   0.86063   0.00000  Uiso   1.00
C725   C     0.97652   0.16680   0.83308   0.00000  Uiso   1.00
C726   C     0.52348   0.16653   0.83359   0.00000  Uiso   1.00
C727   C     0.95576   0.21383   0.85954   0.00000  Uiso   1.00
C728   C     0.54424   0.11950   0.80713   0.00000  Uiso   1.00
C729   C     0.97138   0.07275   0.78224   0.00000  Uiso   1.00
C730   C     0.52862   0.26058   0.88442   0.00000  Uiso   1.00
C731   C     0.51791   0.07326   0.78245   0.00000  Uiso   1.00
C732   C     0.98209   0.26007   0.88422   0.00000  Uiso   1.00
H733   H     0.88248   0.08819   0.78017   0.00000  Uiso   1.00
H734   H     0.61752   0.24515   0.88649   0.00000  Uiso   1.00
C735   C     0.74829   0.01068   0.80904   0.00000  Uiso   1.00
C736   C     0.75171   0.32266   0.85762   0.00000  Uiso   1.00
N737   N     0.73744   0.15214   0.67951   0.00000  Uiso   1.00
N738   N     0.76255   0.18119   0.98716   0.00000  Uiso   1.00
N739   N     0.88689   0.26056   0.88760   0.00000  Uiso   1.00
O740   O     0.85733   0.28089   0.85562   0.00000  Uiso   1.00
O741   O     0.89290   0.27925   0.94670   0.00000  Uiso   1.00
N742   N     0.61311   0.07277   0.77907   0.00000  Uiso   1.00
O743   O     0.64268   0.05245   0.81106   0.00000  Uiso   1.00
O744   O     0.60710   0.05406   0.71997   0.00000  Uiso   1.00
N745   N     0.94651   0.02332   0.75982   0.00000  Uiso   1.00
O746   O     0.91697   0.00797   0.79309   0.00000  Uiso   1.00
O747   O     0.95999   0.32236   0.71357   0.00000  Uiso   1.00
N748   N     0.55349   0.31001   0.90685   0.00000  Uiso   1.00
O749   O     0.58301   0.32537   0.87356   0.00000  Uiso   1.00
O750   O     0.54002   0.01095   0.95310   0.00000  Uiso   1.00
H751   H     0.53341   0.03646   0.76487   0.00000  Uiso   1.00
H752   H     0.96659   0.29687   0.90181   0.00000  Uiso   1.00
H753   H     0.74490   0.32027   0.76219   0.00000  Uiso   1.00
H754   H     0.75510   0.01306   0.90448   0.00000  Uiso   1.00
H755   H     0.71523   0.12622   0.98297   0.00000  Uiso   1.00
H756   H     0.78477   0.20711   0.68370   0.00000  Uiso   1.00
O757   O     0.25325   0.42871   0.87326   0.00000  Uiso   1.00
O758   O     0.24674   0.57129   0.79341   0.00000  Uiso   1.00
O759   O     0.24480   0.41892   0.76945   0.00000  Uiso   1.00
O760   O     0.25520   0.58108   0.89721   0.00000  Uiso   1.00
C761   C     0.24892   0.39996   0.81780   0.00000  Uiso   1.00
C762   C     0.25108   0.60004   0.84887   0.00000  Uiso   1.00
O763   O     0.18935   0.50488   0.88524   0.00000  Uiso   1.00
O764   O     0.31064   0.49512   0.78143   0.00000  Uiso   1.00
O765   O     0.18090   0.49510   0.78143   0.00000  Uiso   1.00
O766   O     0.31910   0.50490   0.88523   0.00000  Uiso   1.00
C767   C     0.16463   0.50004   0.83446   0.00000  Uiso   1.00
C768   C     0.33537   0.49996   0.83221   0.00000  Uiso   1.00
Cu769  Cu    0.25500   0.50579   0.89479   0.00000  Uiso   1.00
Cu770  Cu    0.24499   0.49421   0.77187   0.00000  Uiso   1.00
C771   C     0.40889   0.54736   0.85925   0.00000  Uiso   1.00
C772   C     0.09111   0.45264   0.80743   0.00000  Uiso   1.00
C773   C     0.38345   0.50150   0.83017   0.00000  Uiso   1.00
C774   C     0.11655   0.49849   0.83650   0.00000  Uiso   1.00
C775   C     0.40369   0.45557   0.80286   0.00000  Uiso   1.00
C776   C     0.09630   0.54443   0.86380   0.00000  Uiso   1.00
C777   C     0.45030   0.45343   0.80604   0.00000  Uiso   1.00
C778   C     0.04970   0.54657   0.86063   0.00000  Uiso   1.00
C779   C     0.47652   0.50013   0.83308   0.00000  Uiso   1.00
C780   C     0.02348   0.49987   0.83359   0.00000  Uiso   1.00
C781   C     0.45576   0.54716   0.85954   0.00000  Uiso   1.00
C782   C     0.04424   0.45283   0.80713   0.00000  Uiso   1.00
C783   C     0.47138   0.40608   0.78224   0.00000  Uiso   1.00
C784   C     0.02862   0.59392   0.88442   0.00000  Uiso   1.00
C785   C     0.01791   0.40659   0.78245   0.00000  Uiso   1.00
C786   C     0.48209   0.59340   0.88422   0.00000  Uiso   1.00
H787   H     0.38248   0.42152   0.78017   0.00000  Uiso   1.00
H788   H     0.11752   0.57848   0.88649   0.00000  Uiso   1.00
C789   C     0.24829   0.34401   0.80904   0.00000  Uiso   1.00
C790   C     0.25171   0.65599   0.85762   0.00000  Uiso   1.00
N791   N     0.23744   0.48547   0.67951   0.00000  Uiso   1.00
N792   N     0.26255   0.51453   0.98716   0.00000  Uiso   1.00
N793   N     0.38689   0.59389   0.88760   0.00000  Uiso   1.00
O794   O     0.35733   0.61422   0.85562   0.00000  Uiso   1.00
O795   O     0.39290   0.61259   0.94670   0.00000  Uiso   1.00
N796   N     0.11311   0.40611   0.77907   0.00000  Uiso   1.00
O797   O     0.14268   0.38579   0.81106   0.00000  Uiso   1.00
O798   O     0.10710   0.38739   0.71997   0.00000  Uiso   1.00
N799   N     0.44651   0.35665   0.75982   0.00000  Uiso   1.00
O800   O     0.41697   0.34130   0.79309   0.00000  Uiso   1.00
O801   O     0.45999   0.65570   0.71357   0.00000  Uiso   1.00
N802   N     0.05349   0.64334   0.90685   0.00000  Uiso   1.00
O803   O     0.08301   0.65870   0.87356   0.00000  Uiso   1.00
O804   O     0.04002   0.34428   0.95310   0.00000  Uiso   1.00
H805   H     0.03341   0.36979   0.76487   0.00000  Uiso   1.00
H806   H     0.46659   0.63020   0.90181   0.00000  Uiso   1.00
H807   H     0.24490   0.65361   0.76219   0.00000  Uiso   1.00
H808   H     0.25510   0.34639   0.90448   0.00000  Uiso   1.00
H809   H     0.21523   0.45956   0.98297   0.00000  Uiso   1.00
H810   H     0.28477   0.54044   0.68370   0.00000  Uiso   1.00
O811   O     0.75325   0.42871   0.87326   0.00000  Uiso   1.00
O812   O     0.74674   0.57129   0.79341   0.00000  Uiso   1.00
O813   O     0.74480   0.41892   0.76945   0.00000  Uiso   1.00
O814   O     0.75520   0.58108   0.89721   0.00000  Uiso   1.00
C815   C     0.74892   0.39996   0.81780   0.00000  Uiso   1.00
C816   C     0.75108   0.60004   0.84887   0.00000  Uiso   1.00
O817   O     0.68935   0.50488   0.88524   0.00000  Uiso   1.00
O818   O     0.81064   0.49512   0.78143   0.00000  Uiso   1.00
O819   O     0.68090   0.49510   0.78143   0.00000  Uiso   1.00
O820   O     0.81910   0.50490   0.88523   0.00000  Uiso   1.00
C821   C     0.66463   0.50004   0.83446   0.00000  Uiso   1.00
C822   C     0.83537   0.49996   0.83221   0.00000  Uiso   1.00
Cu823  Cu    0.75500   0.50579   0.89479   0.00000  Uiso   1.00
Cu824  Cu    0.74499   0.49421   0.77187   0.00000  Uiso   1.00
C825   C     0.90889   0.54736   0.85925   0.00000  Uiso   1.00
C826   C     0.59111   0.45264   0.80743   0.00000  Uiso   1.00
C827   C     0.88345   0.50150   0.83017   0.00000  Uiso   1.00
C828   C     0.61655   0.49849   0.83650   0.00000  Uiso   1.00
C829   C     0.90369   0.45557   0.80286   0.00000  Uiso   1.00
C830   C     0.59630   0.54443   0.86380   0.00000  Uiso   1.00
C831   C     0.95030   0.45343   0.80604   0.00000  Uiso   1.00
C832   C     0.54970   0.54657   0.86063   0.00000  Uiso   1.00
C833   C     0.97652   0.50013   0.83308   0.00000  Uiso   1.00
C834   C     0.52348   0.49987   0.83359   0.00000  Uiso   1.00
C835   C     0.95576   0.54716   0.85954   0.00000  Uiso   1.00
C836   C     0.54424   0.45283   0.80713   0.00000  Uiso   1.00
C837   C     0.97138   0.40608   0.78224   0.00000  Uiso   1.00
C838   C     0.52862   0.59392   0.88442   0.00000  Uiso   1.00
C839   C     0.51791   0.40659   0.78245   0.00000  Uiso   1.00
C840   C     0.98209   0.59340   0.88422   0.00000  Uiso   1.00
H841   H     0.88248   0.42152   0.78017   0.00000  Uiso   1.00
H842   H     0.61752   0.57848   0.88649   0.00000  Uiso   1.00
C843   C     0.74829   0.34401   0.80904   0.00000  Uiso   1.00
C844   C     0.75171   0.65599   0.85762   0.00000  Uiso   1.00
N845   N     0.73744   0.48547   0.67951   0.00000  Uiso   1.00
N846   N     0.76255   0.51453   0.98716   0.00000  Uiso   1.00
N847   N     0.88689   0.59389   0.88760   0.00000  Uiso   1.00
O848   O     0.85733   0.61422   0.85562   0.00000  Uiso   1.00
O849   O     0.89290   0.61259   0.94670   0.00000  Uiso   1.00
N850   N     0.61311   0.40611   0.77907   0.00000  Uiso   1.00
O851   O     0.64268   0.38579   0.81106   0.00000  Uiso   1.00
O852   O     0.60710   0.38739   0.71997   0.00000  Uiso   1.00
N853   N     0.94651   0.35665   0.75982   0.00000  Uiso   1.00
O854   O     0.91697   0.34130   0.79309   0.00000  Uiso   1.00
O855   O     0.95999   0.65570   0.71357   0.00000  Uiso   1.00
N856   N     0.55349   0.64334   0.90685   0.00000  Uiso   1.00
O857   O     0.58301   0.65870   0.87356   0.00000  Uiso   1.00
O858   O     0.54002   0.34428   0.95310   0.00000  Uiso   1.00
H859   H     0.53341   0.36979   0.76487   0.00000  Uiso   1.00
H860   H     0.96659   0.63020   0.90181   0.00000  Uiso   1.00
H861   H     0.74490   0.65361   0.76219   0.00000  Uiso   1.00
H862   H     0.75510   0.34639   0.90448   0.00000  Uiso   1.00
H863   H     0.71523   0.45956   0.98297   0.00000  Uiso   1.00
H864   H     0.78477   0.54044   0.68370   0.00000  Uiso   1.00
O865   O     0.25325   0.76204   0.87326   0.00000  Uiso   1.00
O866   O     0.24674   0.90462   0.79341   0.00000  Uiso   1.00
O867   O     0.24480   0.75226   0.76945   0.00000  Uiso   1.00
O868   O     0.25520   0.91441   0.89721   0.00000  Uiso   1.00
C869   C     0.24892   0.73329   0.81780   0.00000  Uiso   1.00
C870   C     0.25108   0.93337   0.84887   0.00000  Uiso   1.00
O871   O     0.18935   0.83821   0.88524   0.00000  Uiso   1.00
O872   O     0.31064   0.82845   0.78143   0.00000  Uiso   1.00
O873   O     0.18090   0.82843   0.78143   0.00000  Uiso   1.00
O874   O     0.31910   0.83824   0.88523   0.00000  Uiso   1.00
C875   C     0.16463   0.83338   0.83446   0.00000  Uiso   1.00
C876   C     0.33537   0.83329   0.83221   0.00000  Uiso   1.00
Cu877  Cu    0.25500   0.83913   0.89479   0.00000  Uiso   1.00
Cu878  Cu    0.24499   0.82754   0.77187   0.00000  Uiso   1.00
C879   C     0.40889   0.88069   0.85925   0.00000  Uiso   1.00
C880   C     0.09111   0.78597   0.80743   0.00000  Uiso   1.00
C881   C     0.38345   0.83484   0.83017   0.00000  Uiso   1.00
C882   C     0.11655   0.83183   0.83650   0.00000  Uiso   1.00
C883   C     0.40369   0.78891   0.80286   0.00000  Uiso   1.00
C884   C     0.09630   0.87776   0.86380   0.00000  Uiso   1.00
C885   C     0.45030   0.78676   0.80604   0.00000  Uiso   1.00
C886   C     0.04970   0.87990   0.86063   0.00000  Uiso   1.00
C887   C     0.47652   0.83346   0.83308   0.00000  Uiso   1.00
C888   C     0.02348   0.83320   0.83359   0.00000  Uiso   1.00
C889   C     0.45576   0.88050   0.85954   0.00000  Uiso   1.00
C890   C     0.04424   0.78616   0.80713   0.00000  Uiso   1.00
C891   C     0.47138   0.73941   0.78224   0.00000  Uiso   1.00
C892   C     0.02862   0.92725   0.88442   0.00000  Uiso   1.00
C893   C     0.01791   0.73993   0.78245   0.00000  Uiso   1.00
C894   C     0.48209   0.92673   0.88422   0.00000  Uiso   1.00
H895   H     0.38248   0.75486   0.78017   0.00000  Uiso   1.00
H896   H     0.11752   0.91181   0.88649   0.00000  Uiso   1.00
C897   C     0.24829   0.67734   0.80904   0.00000  Uiso   1.00
C898   C     0.25171   0.98932   0.85762   0.00000  Uiso   1.00
N899   N     0.23744   0.81881   0.67951   0.00000  Uiso   1.00
N900   N     0.26255   0.84786   0.98716   0.00000  Uiso   1.00
N901   N     0.38689   0.92722   0.88760   0.00000  Uiso   1.00
O902   O     0.35733   0.94755   0.85562   0.00000  Uiso   1.00
O903   O     0.39290   0.94592   0.94670   0.00000  Uiso   1.00
N904   N     0.11311   0.73944   0.77907   0.00000  Uiso   1.00
O905   O     0.14268   0.71912   0.81106   0.00000  Uiso   1.00
O906   O     0.10710   0.72073   0.71997   0.00000  Uiso   1.00
N907   N     0.44651   0.68998   0.75982   0.00000  Uiso   1.00
O908   O     0.41697   0.67464   0.79309   0.00000  Uiso   1.00
O909   O     0.45999   0.98903   0.71357   0.00000  Uiso   1.00
N910   N     0.05349   0.97667   0.90685   0.00000  Uiso   1.00
O911   O     0.08301   0.99203   0.87356   0.00000  Uiso   1.00
O912   O     0.04002   0.67762   0.95310   0.00000  Uiso   1.00
H913   H     0.03341   0.70313   0.76487   0.00000  Uiso   1.00
H914   H     0.46659   0.96353   0.90181   0.00000  Uiso   1.00
H915   H     0.24490   0.98694   0.76219   0.00000  Uiso   1.00
H916   H     0.25510   0.67973   0.90448   0.00000  Uiso   1.00
H917   H     0.21523   0.79289   0.98297   0.00000  Uiso   1.00
H918   H     0.28477   0.87378   0.68370   0.00000  Uiso   1.00
O919   O     0.75325   0.76204   0.87326   0.00000  Uiso   1.00
O920   O     0.74674   0.90462   0.79341   0.00000  Uiso   1.00
O921   O     0.74480   0.75226   0.76945   0.00000  Uiso   1.00
O922   O     0.75520   0.91441   0.89721   0.00000  Uiso   1.00
C923   C     0.74892   0.73329   0.81780   0.00000  Uiso   1.00
C924   C     0.75108   0.93337   0.84887   0.00000  Uiso   1.00
O925   O     0.68935   0.83821   0.88524   0.00000  Uiso   1.00
O926   O     0.81064   0.82845   0.78143   0.00000  Uiso   1.00
O927   O     0.68090   0.82843   0.78143   0.00000  Uiso   1.00
O928   O     0.81910   0.83824   0.88523   0.00000  Uiso   1.00
C929   C     0.66463   0.83338   0.83446   0.00000  Uiso   1.00
C930   C     0.83537   0.83329   0.83221   0.00000  Uiso   1.00
Cu931  Cu    0.75500   0.83913   0.89479   0.00000  Uiso   1.00
Cu932  Cu    0.74499   0.82754   0.77187   0.00000  Uiso   1.00
C933   C     0.90889   0.88069   0.85925   0.00000  Uiso   1.00
C934   C     0.59111   0.78597   0.80743   0.00000  Uiso   1.00
C935   C     0.88345   0.83484   0.83017   0.00000  Uiso   1.00
C936   C     0.61655   0.83183   0.83650   0.00000  Uiso   1.00
C937   C     0.90369   0.78891   0.80286   0.00000  Uiso   1.00
C938   C     0.59630   0.87776   0.86380   0.00000  Uiso   1.00
C939   C     0.95030   0.78676   0.80604   0.00000  Uiso   1.00
C940   C     0.54970   0.87990   0.86063   0.00000  Uiso   1.00
C941   C     0.97652   0.83346   0.83308   0.00000  Uiso   1.00
C942   C     0.52348   0.83320   0.83359   0.00000  Uiso   1.00
C943   C     0.95576   0.88050   0.85954   0.00000  Uiso   1.00
C944   C     0.54424   0.78616   0.80713   0.00000  Uiso   1.00
C945   C     0.97138   0.73941   0.78224   0.00000  Uiso   1.00
C946   C     0.52862   0.92725   0.88442   0.00000  Uiso   1.00
C947   C     0.51791   0.73993   0.78245   0.00000  Uiso   1.00
C948   C     0.98209   0.92673   0.88422   0.00000  Uiso   1.00
H949   H     0.88248   0.75486   0.78017   0.00000  Uiso   1.00
H950   H     0.61752   0.91181   0.88649   0.00000  Uiso   1.00
C951   C     0.74829   0.67734   0.80904   0.00000  Uiso   1.00
C952   C     0.75171   0.98932   0.85762   0.00000  Uiso   1.00
N953   N     0.73744   0.81881   0.67951   0.00000  Uiso   1.00
N954   N     0.76255   0.84786   0.98716   0.00000  Uiso   1.00
N955   N     0.88689   0.92722   0.88760   0.00000  Uiso   1.00
O956   O     0.85733   0.94755   0.85562   0.00000  Uiso   1.00
O957   O     0.89290   0.94592   0.94670   0.00000  Uiso   1.00
N958   N     0.61311   0.73944   0.77907   0.00000  Uiso   1.00
O959   O     0.64268   0.71912   0.81106   0.00000  Uiso   1.00
O960   O     0.60710   0.72073   0.71997   0.00000  Uiso   1.00
N961   N     0.94651   0.68998   0.75982   0.00000  Uiso   1.00
O962   O     0.91697   0.67464   0.79309   0.00000  Uiso   1.00
O963   O     0.95999   0.98903   0.71357   0.00000  Uiso   1.00
N964   N     0.55349   0.97667   0.90685   0.00000  Uiso   1.00
O965   O     0.58301   0.99203   0.87356   0.00000  Uiso   1.00
O966   O     0.54002   0.67762   0.95310   0.00000  Uiso   1.00
H967   H     0.53341   0.70313   0.76487   0.00000  Uiso   1.00
H968   H     0.96659   0.96353   0.90181   0.00000  Uiso   1.00
H969   H     0.74490   0.98694   0.76219   0.00000  Uiso   1.00
H970   H     0.75510   0.67973   0.90448   0.00000  Uiso   1.00
H971   H     0.71523   0.79289   0.98297   0.00000  Uiso   1.00
H972   H     0.78477   0.87378   0.68370   0.00000  Uiso   1.00
loop_
_geom_bond_atom_site_label_1
_geom_bond_atom_site_label_2
_geom_bond_distance
_geom_bond_site_symmetry_2
_ccdc_geom_bond_type
O1     C5      1.294   .     A
O1     Cu13    1.955   .     S
O2     Cu14    1.955   .     S
O2     C6      1.294   .     A
O3     Cu14    1.948   .     S
O3     C5      1.284   .     A
O4     C6      1.284   .     A
O4     Cu13    1.948   .     S
C5     C33     1.425   .     S
C6     C34     1.425   .     S
O7     C11     1.295   .     A
O7     Cu13    1.965   .     S
O8     Cu14    1.965   .     S
O8     C12     1.295   .     A
O9     Cu14    1.948   .     S
O9     C11     1.292   .     A
O10    C12     1.292   .     A
O10    Cu13    1.948   .     S
C11    C18     1.445   .     S
C12    C17     1.445   .     S
Cu13   Cu14    2.692   .     S
Cu13   N36     2.023   .     S
Cu14   N35     2.023   .     S
C15    C25     1.405   .     A
C15    C17     1.401   .     A
C15    N37     1.437   .     S
C16    C18     1.401   .     A
C16    N40     1.437   .     S
C16    C26     1.405   .     A
C17    C19     1.392   .     A
C18    C20     1.392   .     A
C19    H31     1.082   .     S
C19    C21     1.398   .     A
C20    C22     1.398   .     A
C20    H32     1.082   .     S
C21    C27     1.415   .     A
C21    C23     1.419   .     A
C22    C24     1.419   .     A
C22    C28     1.415   .     A
C23    C25     1.417   .     A
C23    C78     1.408   .     S
C24    C26     1.417   .     A
C24    C77     1.408   1_455 S
C25    C30     1.402   .     A
C26    C29     1.402   .     A
C27    N43     1.438   .     S
C27    C83     1.395   .     S
C28    N46     1.438   .     S
C28    C84     1.395   1_455 S
C29    H49     1.082   .     S
C29    C81     1.395   1_455 S
C30    H50     1.082   .     S
C30    C82     1.395   .     S
C33    C250    1.325   1_545 S
C33    H267    1.088   1_545 S
C34    C141    1.325   .     S
C34    H160    1.088   .     S
N35    N684    1.297   1_554 S
N35    H701    1.029   1_554 S
N36    N359    1.297   .     S
N36    H378    1.029   .     S
N37    O38     1.301   .     A
N37    O39     1.301   .     A
N40    O42     1.301   .     A
N40    O41     1.301   .     A
N43    O44     1.301   .     A
N43    O261    1.301   1_545 S
O45    N151    1.301   .     S
N46    O47     1.301   .     A
N46    O156    1.301   .     S
O48    N262    1.301   1_545 S
H51    C141    1.088   .     S
H52    C250    1.088   1_545 S
H53    N359    1.029   .     S
H54    N684    1.029   1_554 S
O55    C59     1.294   .     A
O55    Cu67    1.955   .     S
O56    Cu68    1.955   .     S
O56    C60     1.294   .     A
O57    Cu68    1.948   .     S
O57    C59     1.284   .     A
O58    C60     1.284   .     A
O58    Cu67    1.948   .     S
C59    C87     1.425   .     S
C60    C88     1.425   .     S
O61    C65     1.295   .     A
O61    Cu67    1.965   .     S
O62    Cu68    1.965   .     S
O62    C66     1.295   .     A
O63    Cu68    1.948   .     S
O63    C65     1.292   .     A
O64    C66     1.292   .     A
O64    Cu67    1.948   .     S
C65    C72     1.445   .     S
C66    C71     1.445   .     S
Cu67   Cu68    2.692   .     S
Cu67   N90     2.023   .     S
Cu68   N89     2.023   .     S
C69    C79     1.405   .     A
C69    C71     1.401   .     A
C69    N91     1.437   .     S
C70    C72     1.401   .     A
C70    N94     1.437   .     S
C70    C80     1.405   .     A
C71    C73     1.392   .     A
C72    C74     1.392   .     A
C73    H85     1.082   .     S
C73    C75     1.398   .     A
C74    C76     1.398   .     A
C74    H86     1.082   .     S
C75    C81     1.415   .     A
C75    C77     1.419   .     A
C76    C78     1.419   .     A
C76    C82     1.415   .     A
C77    C79     1.417   .     A
C77    C24     1.408   1_655 S
C78    C80     1.417   .     A
C79    C84     1.402   .     A
C80    C83     1.402   .     A
C81    N97     1.438   .     S
C81    C29     1.395   1_655 S
C82    N100    1.438   .     S
C83    H103    1.082   .     S
C84    H104    1.082   .     S
C84    C28     1.395   1_655 S
C87    C304    1.325   1_545 S
C87    H321    1.088   1_545 S
C88    C195    1.325   .     S
C88    H214    1.088   .     S
N89    N738    1.297   1_554 S
N89    H755    1.029   1_554 S
N90    N413    1.297   .     S
N90    H432    1.029   .     S
N91    O92     1.301   .     A
N91    O93     1.301   .     A
N94    O96     1.301   .     A
N94    O95     1.301   .     A
N97    O98     1.301   .     A
N97    O315    1.301   1_545 S
O99    N205    1.301   .     S
N100   O101    1.301   .     A
N100   O210    1.301   .     S
O102   N316    1.301   1_545 S
H105   C195    1.088   .     S
H106   C304    1.088   1_545 S
H107   N413    1.029   .     S
H108   N738    1.029   1_554 S
O109   C113    1.294   .     A
O109   Cu121   1.955   .     S
O110   Cu122   1.955   .     S
O110   C114    1.294   .     A
O111   Cu122   1.948   .     S
O111   C113    1.284   .     A
O112   C114    1.284   .     A
O112   Cu121   1.948   .     S
C113   C141    1.425   .     S
C114   C142    1.425   .     S
O115   C119    1.295   .     A
O115   Cu121   1.965   .     S
O116   Cu122   1.965   .     S
O116   C120    1.295   .     A
O117   Cu122   1.948   .     S
O117   C119    1.292   .     A
O118   C120    1.292   .     A
O118   Cu121   1.948   .     S
C119   C126    1.445   .     S
C120   C125    1.445   .     S
Cu121  Cu122   2.692   .     S
Cu121  N144    2.023   .     S
Cu122  N143    2.023   .     S
C123   C133    1.405   .     A
C123   C125    1.401   .     A
C123   N145    1.437   .     S
C124   C126    1.401   .     A
C124   N148    1.437   .     S
C124   C134    1.405   .     A
C125   C127    1.392   .     A
C126   C128    1.392   .     A
C127   H139    1.082   .     S
C127   C129    1.398   .     A
C128   C130    1.398   .     A
C128   H140    1.082   .     S
C129   C135    1.415   .     A
C129   C131    1.419   .     A
C130   C132    1.419   .     A
C130   C136    1.415   .     A
C131   C133    1.417   .     A
C131   C186    1.408   .     S
C132   C134    1.417   .     A
C132   C185    1.408   1_455 S
C133   C138    1.402   .     A
C134   C137    1.402   .     A
C135   N151    1.438   .     S
C135   C191    1.395   .     S
C136   N154    1.438   .     S
C136   C192    1.395   1_455 S
C137   H157    1.082   .     S
C137   C189    1.395   1_455 S
C138   H158    1.082   .     S
C138   C190    1.395   .     S
C142   C249    1.325   .     S
C142   H268    1.088   .     S
N143   N792    1.297   1_554 S
N143   H809    1.029   1_554 S
N144   N467    1.297   .     S
N144   H486    1.029   .     S
N145   O146    1.301   .     A
N145   O147    1.301   .     A
N148   O150    1.301   .     A
N148   O149    1.301   .     A
N151   O152    1.301   .     A
O153   N259    1.301   .     S
N154   O155    1.301   .     A
N154   O264    1.301   .     S
H159   C249    1.088   .     S
H161   N467    1.029   .     S
H162   N792    1.029   1_554 S
O163   C167    1.294   .     A
O163   Cu175   1.955   .     S
O164   Cu176   1.955   .     S
O164   C168    1.294   .     A
O165   Cu176   1.948   .     S
O165   C167    1.284   .     A
O166   C168    1.284   .     A
O166   Cu175   1.948   .     S
C167   C195    1.425   .     S
C168   C196    1.425   .     S
O169   C173    1.295   .     A
O169   Cu175   1.965   .     S
O170   Cu176   1.965   .     S
O170   C174    1.295   .     A
O171   Cu176   1.948   .     S
O171   C173    1.292   .     A
O172   C174    1.292   .     A
O172   Cu175   1.948   .     S
C173   C180    1.445   .     S
C174   C179    1.445   .     S
Cu175  Cu176   2.692   .     S
Cu175  N198    2.023   .     S
Cu176  N197    2.023   .     S
C177   C187    1.405   .     A
C177   C179    1.401   .     A
C177   N199    1.437   .     S
C178   C180    1.401   .     A
C178   N202    1.437   .     S
C178   C188    1.405   .     A
C179   C181    1.392   .     A
C180   C182    1.392   .     A
C181   H193    1.082   .     S
C181   C183    1.398   .     A
C182   C184    1.398   .     A
C182   H194    1.082   .     S
C183   C189    1.415   .     A
C183   C185    1.419   .     A
C184   C186    1.419   .     A
C184   C190    1.415   .     A
C185   C187    1.417   .     A
C185   C132    1.408   1_655 S
C186   C188    1.417   .     A
C187   C192    1.402   .     A
C188   C191    1.402   .     A
C189   N205    1.438   .     S
C189   C137    1.395   1_655 S
C190   N208    1.438   .     S
C191   H211    1.082   .     S
C192   H212    1.082   .     S
C192   C136    1.395   1_655 S
C196   C303    1.325   .     S
C196   H322    1.088   .     S
N197   N846    1.297   1_554 S
N197   H863    1.029   1_554 S
N198   N521    1.297   .     S
N198   H540    1.029   .     S
N199   O200    1.301   .     A
N199   O201    1.301   .     A
N202   O204    1.301   .     A
N202   O203    1.301   .     A
N205   O206    1.301   .     A
O207   N313    1.301   .     S
N208   O209    1.301   .     A
N208   O318    1.301   .     S
H213   C303    1.088   .     S
H215   N521    1.029   .     S
H216   N846    1.029   1_554 S
O217   C221    1.294   .     A
O217   Cu229   1.955   .     S
O218   Cu230   1.955   .     S
O218   C222    1.294   .     A
O219   Cu230   1.948   .     S
O219   C221    1.284   .     A
O220   C222    1.284   .     A
O220   Cu229   1.948   .     S
C221   C249    1.425   .     S
C222   C250    1.425   .     S
O223   C227    1.295   .     A
O223   Cu229   1.965   .     S
O224   Cu230   1.965   .     S
O224   C228    1.295   .     A
O225   Cu230   1.948   .     S
O225   C227    1.292   .     A
O226   C228    1.292   .     A
O226   Cu229   1.948   .     S
C227   C234    1.445   .     S
C228   C233    1.445   .     S
Cu229  Cu230   2.692   .     S
Cu229  N252    2.023   .     S
Cu230  N251    2.023   .     S
C231   C241    1.405   .     A
C231   C233    1.401   .     A
C231   N253    1.437   .     S
C232   C234    1.401   .     A
C232   N256    1.437   .     S
C232   C242    1.405   .     A
C233   C235    1.392   .     A
C234   C236    1.392   .     A
C235   H247    1.082   .     S
C235   C237    1.398   .     A
C236   C238    1.398   .     A
C236   H248    1.082   .     S
C237   C243    1.415   .     A
C237   C239    1.419   .     A
C238   C240    1.419   .     A
C238   C244    1.415   .     A
C239   C241    1.417   .     A
C239   C294    1.408   .     S
C240   C242    1.417   .     A
C240   C293    1.408   1_455 S
C241   C246    1.402   .     A
C242   C245    1.402   .     A
C243   N259    1.438   .     S
C243   C299    1.395   .     S
C244   N262    1.438   .     S
C244   C300    1.395   1_455 S
C245   H265    1.082   .     S
C245   C297    1.395   1_455 S
C246   H266    1.082   .     S
C246   C298    1.395   .     S
C250   C33     1.325   1_565 S
C250   H52     1.088   1_565 S
N251   N900    1.297   1_554 S
N251   H917    1.029   1_554 S
N252   N575    1.297   .     S
N252   H594    1.029   .     S
N253   O254    1.301   .     A
N253   O255    1.301   .     A
N256   O258    1.301   .     A
N256   O257    1.301   .     A
N259   O260    1.301   .     A
O261   N43     1.301   1_565 S
N262   O263    1.301   .     A
N262   O48     1.301   1_565 S
H267   C33     1.088   1_565 S
H269   N575    1.029   .     S
H270   N900    1.029   1_554 S
O271   C275    1.294   .     A
O271   Cu283   1.955   .     S
O272   Cu284   1.955   .     S
O272   C276    1.294   .     A
O273   Cu284   1.948   .     S
O273   C275    1.284   .     A
O274   C276    1.284   .     A
O274   Cu283   1.948   .     S
C275   C303    1.425   .     S
C276   C304    1.425   .     S
O277   C281    1.295   .     A
O277   Cu283   1.965   .     S
O278   Cu284   1.965   .     S
O278   C282    1.295   .     A
O279   Cu284   1.948   .     S
O279   C281    1.292   .     A
O280   C282    1.292   .     A
O280   Cu283   1.948   .     S
C281   C288    1.445   .     S
C282   C287    1.445   .     S
Cu283  Cu284   2.692   .     S
Cu283  N306    2.023   .     S
Cu284  N305    2.023   .     S
C285   C295    1.405   .     A
C285   C287    1.401   .     A
C285   N307    1.437   .     S
C286   C288    1.401   .     A
C286   N310    1.437   .     S
C286   C296    1.405   .     A
C287   C289    1.392   .     A
C288   C290    1.392   .     A
C289   H301    1.082   .     S
C289   C291    1.398   .     A
C290   C292    1.398   .     A
C290   H302    1.082   .     S
C291   C297    1.415   .     A
C291   C293    1.419   .     A
C292   C294    1.419   .     A
C292   C298    1.415   .     A
C293   C295    1.417   .     A
C293   C240    1.408   1_655 S
C294   C296    1.417   .     A
C295   C300    1.402   .     A
C296   C299    1.402   .     A
C297   N313    1.438   .     S
C297   C245    1.395   1_655 S
C298   N316    1.438   .     S
C299   H319    1.082   .     S
C300   H320    1.082   .     S
C300   C244    1.395   1_655 S
C304   C87     1.325   1_565 S
C304   H106    1.088   1_565 S
N305   N954    1.297   1_554 S
N305   H971    1.029   1_554 S
N306   N629    1.297   .     S
N306   H648    1.029   .     S
N307   O308    1.301   .     A
N307   O309    1.301   .     A
N310   O312    1.301   .     A
N310   O311    1.301   .     A
N313   O314    1.301   .     A
O315   N97     1.301   1_565 S
N316   O317    1.301   .     A
N316   O102    1.301   1_565 S
H321   C87     1.088   1_565 S
H323   N629    1.029   .     S
H324   N954    1.029   1_554 S
O325   C329    1.294   .     A
O325   Cu337   1.955   .     S
O326   Cu338   1.955   .     S
O326   C330    1.294   .     A
O327   Cu338   1.948   .     S
O327   C329    1.284   .     A
O328   C330    1.284   .     A
O328   Cu337   1.948   .     S
C329   C357    1.425   .     S
C330   C358    1.425   .     S
O331   C335    1.295   .     A
O331   Cu337   1.965   .     S
O332   Cu338   1.965   .     S
O332   C336    1.295   .     A
O333   Cu338   1.948   .     S
O333   C335    1.292   .     A
O334   C336    1.292   .     A
O334   Cu337   1.948   .     S
C335   C342    1.445   .     S
C336   C341    1.445   .     S
Cu337  Cu338   2.692   .     S
Cu337  N360    2.023   .     S
Cu338  N359    2.023   .     S
C339   C349    1.405   .     A
C339   C341    1.401   .     A
C339   N361    1.437   .     S
C340   C342    1.401   .     A
C340   N364    1.437   .     S
C340   C350    1.405   .     A
C341   C343    1.392   .     A
C342   C344    1.392   .     A
C343   H355    1.082   .     S
C343   C345    1.398   .     A
C344   C346    1.398   .     A
C344   H356    1.082   .     S
C345   C351    1.415   .     A
C345   C347    1.419   .     A
C346   C348    1.419   .     A
C346   C352    1.415   .     A
C347   C349    1.417   .     A
C347   C402    1.408   .     S
C348   C350    1.417   .     A
C348   C401    1.408   1_455 S
C349   C354    1.402   .     A
C350   C353    1.402   .     A
C351   N367    1.438   .     S
C351   C407    1.395   .     S
C352   N370    1.438   .     S
C352   C408    1.395   1_455 S
C353   H373    1.082   .     S
C353   C405    1.395   1_455 S
C354   H374    1.082   .     S
C354   C406    1.395   .     S
C357   C574    1.325   1_545 S
C357   H591    1.088   1_545 S
C358   C465    1.325   .     S
C358   H484    1.088   .     S
N360   N683    1.297   .     S
N360   H702    1.029   .     S
N361   O362    1.301   .     A
N361   O363    1.301   .     A
N364   O366    1.301   .     A
N364   O365    1.301   .     A
N367   O368    1.301   .     A
N367   O585    1.301   1_545 S
O369   N475    1.301   .     S
N370   O371    1.301   .     A
N370   O480    1.301   .     S
O372   N586    1.301   1_545 S
H375   C465    1.088   .     S
H376   C574    1.088   1_545 S
H377   N683    1.029   .     S
O379   C383    1.294   .     A
O379   Cu391   1.955   .     S
O380   Cu392   1.955   .     S
O380   C384    1.294   .     A
O381   Cu392   1.948   .     S
O381   C383    1.284   .     A
O382   C384    1.284   .     A
O382   Cu391   1.948   .     S
C383   C411    1.425   .     S
C384   C412    1.425   .     S
O385   C389    1.295   .     A
O385   Cu391   1.965   .     S
O386   Cu392   1.965   .     S
O386   C390    1.295   .     A
O387   Cu392   1.948   .     S
O387   C389    1.292   .     A
O388   C390    1.292   .     A
O388   Cu391   1.948   .     S
C389   C396    1.445   .     S
C390   C395    1.445   .     S
Cu391  Cu392   2.692   .     S
Cu391  N414    2.023   .     S
Cu392  N413    2.023   .     S
C393   C403    1.405   .     A
C393   C395    1.401   .     A
C393   N415    1.437   .     S
C394   C396    1.401   .     A
C394   N418    1.437   .     S
C394   C404    1.405   .     A
C395   C397    1.392   .     A
C396   C398    1.392   .     A
C397   H409    1.082   .     S
C397   C399    1.398   .     A
C398   C400    1.398   .     A
C398   H410    1.082   .     S
C399   C405    1.415   .     A
C399   C401    1.419   .     A
C400   C402    1.419   .     A
C400   C406    1.415   .     A
C401   C403    1.417   .     A
C401   C348    1.408   1_655 S
C402   C404    1.417   .     A
C403   C408    1.402   .     A
C404   C407    1.402   .     A
C405   N421    1.438   .     S
C405   C353    1.395   1_655 S
C406   N424    1.438   .     S
C407   H427    1.082   .     S
C408   H428    1.082   .     S
C408   C352    1.395   1_655 S
C411   C628    1.325   1_545 S
C411   H645    1.088   1_545 S
C412   C519    1.325   .     S
C412   H538    1.088   .     S
N414   N737    1.297   .     S
N414   H756    1.029   .     S
N415   O416    1.301   .     A
N415   O417    1.301   .     A
N418   O420    1.301   .     A
N418   O419    1.301   .     A
N421   O422    1.301   .     A
N421   O639    1.301   1_545 S
O423   N529    1.301   .     S
N424   O425    1.301   .     A
N424   O534    1.301   .     S
O426   N640    1.301   1_545 S
H429   C519    1.088   .     S
H430   C628    1.088   1_545 S
H431   N737    1.029   .     S
O433   C437    1.294   .     A
O433   Cu445   1.955   .     S
O434   Cu446   1.955   .     S
O434   C438    1.294   .     A
O435   Cu446   1.948   .     S
O435   C437    1.284   .     A
O436   C438    1.284   .     A
O436   Cu445   1.948   .     S
C437   C465    1.425   .     S
C438   C466    1.425   .     S
O439   C443    1.295   .     A
O439   Cu445   1.965   .     S
O440   Cu446   1.965   .     S
O440   C444    1.295   .     A
O441   Cu446   1.948   .     S
O441   C443    1.292   .     A
O442   C444    1.292   .     A
O442   Cu445   1.948   .     S
C443   C450    1.445   .     S
C444   C449    1.445   .     S
Cu445  Cu446   2.692   .     S
Cu445  N468    2.023   .     S
Cu446  N467    2.023   .     S
C447   C457    1.405   .     A
C447   C449    1.401   .     A
C447   N469    1.437   .     S
C448   C450    1.401   .     A
C448   N472    1.437   .     S
C448   C458    1.405   .     A
C449   C451    1.392   .     A
C450   C452    1.392   .     A
C451   H463    1.082   .     S
C451   C453    1.398   .     A
C452   C454    1.398   .     A
C452   H464    1.082   .     S
C453   C459    1.415   .     A
C453   C455    1.419   .     A
C454   C456    1.419   .     A
C454   C460    1.415   .     A
C455   C457    1.417   .     A
C455   C510    1.408   .     S
C456   C458    1.417   .     A
C456   C509    1.408   1_455 S
C457   C462    1.402   .     A
C458   C461    1.402   .     A
C459   N475    1.438   .     S
C459   C515    1.395   .     S
C460   N478    1.438   .     S
C460   C516    1.395   1_455 S
C461   H481    1.082   .     S
C461   C513    1.395   1_455 S
C462   H482    1.082   .     S
C462   C514    1.395   .     S
C466   C573    1.325   .     S
C466   H592    1.088   .     S
N468   N791    1.297   .     S
N468   H810    1.029   .     S
N469   O470    1.301   .     A
N469   O471    1.301   .     A
N472   O474    1.301   .     A
N472   O473    1.301   .     A
N475   O476    1.301   .     A
O477   N583    1.301   .     S
N478   O479    1.301   .     A
N478   O588    1.301   .     S
H483   C573    1.088   .     S
H485   N791    1.029   .     S
O487   C491    1.294   .     A
O487   Cu499   1.955   .     S
O488   Cu500   1.955   .     S
O488   C492    1.294   .     A
O489   Cu500   1.948   .     S
O489   C491    1.284   .     A
O490   C492    1.284   .     A
O490   Cu499   1.948   .     S
C491   C519    1.425   .     S
C492   C520    1.425   .     S
O493   C497    1.295   .     A
O493   Cu499   1.965   .     S
O494   Cu500   1.965   .     S
O494   C498    1.295   .     A
O495   Cu500   1.948   .     S
O495   C497    1.292   .     A
O496   C498    1.292   .     A
O496   Cu499   1.948   .     S
C497   C504    1.445   .     S
C498   C503    1.445   .     S
Cu499  Cu500   2.692   .     S
Cu499  N522    2.023   .     S
Cu500  N521    2.023   .     S
C501   C511    1.405   .     A
C501   C503    1.401   .     A
C501   N523    1.437   .     S
C502   C504    1.401   .     A
C502   N526    1.437   .     S
C502   C512    1.405   .     A
C503   C505    1.392   .     A
C504   C506    1.392   .     A
C505   H517    1.082   .     S
C505   C507    1.398   .     A
C506   C508    1.398   .     A
C506   H518    1.082   .     S
C507   C513    1.415   .     A
C507   C509    1.419   .     A
C508   C510    1.419   .     A
C508   C514    1.415   .     A
C509   C511    1.417   .     A
C509   C456    1.408   1_655 S
C510   C512    1.417   .     A
C511   C516    1.402   .     A
C512   C515    1.402   .     A
C513   N529    1.438   .     S
C513   C461    1.395   1_655 S
C514   N532    1.438   .     S
C515   H535    1.082   .     S
C516   H536    1.082   .     S
C516   C460    1.395   1_655 S
C520   C627    1.325   .     S
C520   H646    1.088   .     S
N522   N845    1.297   .     S
N522   H864    1.029   .     S
N523   O524    1.301   .     A
N523   O525    1.301   .     A
N526   O528    1.301   .     A
N526   O527    1.301   .     A
N529   O530    1.301   .     A
O531   N637    1.301   .     S
N532   O533    1.301   .     A
N532   O642    1.301   .     S
H537   C627    1.088   .     S
H539   N845    1.029   .     S
O541   C545    1.294   .     A
O541   Cu553   1.955   .     S
O542   Cu554   1.955   .     S
O542   C546    1.294   .     A
O543   Cu554   1.948   .     S
O543   C545    1.284   .     A
O544   C546    1.284   .     A
O544   Cu553   1.948   .     S
C545   C573    1.425   .     S
C546   C574    1.425   .     S
O547   C551    1.295   .     A
O547   Cu553   1.965   .     S
O548   Cu554   1.965   .     S
O548   C552    1.295   .     A
O549   Cu554   1.948   .     S
O549   C551    1.292   .     A
O550   C552    1.292   .     A
O550   Cu553   1.948   .     S
C551   C558    1.445   .     S
C552   C557    1.445   .     S
Cu553  Cu554   2.692   .     S
Cu553  N576    2.023   .     S
Cu554  N575    2.023   .     S
C555   C565    1.405   .     A
C555   C557    1.401   .     A
C555   N577    1.437   .     S
C556   C558    1.401   .     A
C556   N580    1.437   .     S
C556   C566    1.405   .     A
C557   C559    1.392   .     A
C558   C560    1.392   .     A
C559   H571    1.082   .     S
C559   C561    1.398   .     A
C560   C562    1.398   .     A
C560   H572    1.082   .     S
C561   C567    1.415   .     A
C561   C563    1.419   .     A
C562   C564    1.419   .     A
C562   C568    1.415   .     A
C563   C565    1.417   .     A
C563   C618    1.408   .     S
C564   C566    1.417   .     A
C564   C617    1.408   1_455 S
C565   C570    1.402   .     A
C566   C569    1.402   .     A
C567   N583    1.438   .     S
C567   C623    1.395   .     S
C568   N586    1.438   .     S
C568   C624    1.395   1_455 S
C569   H589    1.082   .     S
C569   C621    1.395   1_455 S
C570   H590    1.082   .     S
C570   C622    1.395   .     S
C574   C357    1.325   1_565 S
C574   H376    1.088   1_565 S
N576   N899    1.297   .     S
N576   H918    1.029   .     S
N577   O578    1.301   .     A
N577   O579    1.301   .     A
N580   O582    1.301   .     A
N580   O581    1.301   .     A
N583   O584    1.301   .     A
O585   N367    1.301   1_565 S
N586   O587    1.301   .     A
N586   O372    1.301   1_565 S
H591   C357    1.088   1_565 S
H593   N899    1.029   .     S
O595   C599    1.294   .     A
O595   Cu607   1.955   .     S
O596   Cu608   1.955   .     S
O596   C600    1.294   .     A
O597   Cu608   1.948   .     S
O597   C599    1.284   .     A
O598   C600    1.284   .     A
O598   Cu607   1.948   .     S
C599   C627    1.425   .     S
C600   C628    1.425   .     S
O601   C605    1.295   .     A
O601   Cu607   1.965   .     S
O602   Cu608   1.965   .     S
O602   C606    1.295   .     A
O603   Cu608   1.948   .     S
O603   C605    1.292   .     A
O604   C606    1.292   .     A
O604   Cu607   1.948   .     S
C605   C612    1.445   .     S
C606   C611    1.445   .     S
Cu607  Cu608   2.692   .     S
Cu607  N630    2.023   .     S
Cu608  N629    2.023   .     S
C609   C619    1.405   .     A
C609   C611    1.401   .     A
C609   N631    1.437   .     S
C610   C612    1.401   .     A
C610   N634    1.437   .     S
C610   C620    1.405   .     A
C611   C613    1.392   .     A
C612   C614    1.392   .     A
C613   H625    1.082   .     S
C613   C615    1.398   .     A
C614   C616    1.398   .     A
C614   H626    1.082   .     S
C615   C621    1.415   .     A
C615   C617    1.419   .     A
C616   C618    1.419   .     A
C616   C622    1.415   .     A
C617   C619    1.417   .     A
C617   C564    1.408   1_655 S
C618   C620    1.417   .     A
C619   C624    1.402   .     A
C620   C623    1.402   .     A
C621   N637    1.438   .     S
C621   C569    1.395   1_655 S
C622   N640    1.438   .     S
C623   H643    1.082   .     S
C624   H644    1.082   .     S
C624   C568    1.395   1_655 S
C628   C411    1.325   1_565 S
C628   H430    1.088   1_565 S
N630   N953    1.297   .     S
N630   H972    1.029   .     S
N631   O632    1.301   .     A
N631   O633    1.301   .     A
N634   O636    1.301   .     A
N634   O635    1.301   .     A
N637   O638    1.301   .     A
O639   N421    1.301   1_565 S
N640   O641    1.301   .     A
N640   O426    1.301   1_565 S
H645   C411    1.088   1_565 S
H647   N953    1.029   .     S
O649   C653    1.294   .     A
O649   Cu661   1.955   .     S
O650   Cu662   1.955   .     S
O650   C654    1.294   .     A
O651   Cu662   1.948   .     S
O651   C653    1.284   .     A
O652   C654    1.284   .     A
O652   Cu661   1.948   .     S
C653   C681    1.425   .     S
C654   C682    1.425   .     S
O655   C659    1.295   .     A
O655   Cu661   1.965   .     S
O656   Cu662   1.965   .     S
O656   C660    1.295   .     A
O657   Cu662   1.948   .     S
O657   C659    1.292   .     A
O658   C660    1.292   .     A
O658   Cu661   1.948   .     S
C659   C666    1.445   .     S
C660   C665    1.445   .     S
Cu661  Cu662   2.692   .     S
Cu661  N684    2.023   .     S
Cu662  N683    2.023   .     S
C663   C673    1.405   .     A
C663   C665    1.401   .     A
C663   N685    1.437   .     S
C664   C666    1.401   .     A
C664   N688    1.437   .     S
C664   C674    1.405   .     A
C665   C667    1.392   .     A
C666   C668    1.392   .     A
C667   H679    1.082   .     S
C667   C669    1.398   .     A
C668   C670    1.398   .     A
C668   H680    1.082   .     S
C669   C675    1.415   .     A
C669   C671    1.419   .     A
C670   C672    1.419   .     A
C670   C676    1.415   .     A
C671   C673    1.417   .     A
C671   C726    1.408   .     S
C672   C674    1.417   .     A
C672   C725    1.408   1_455 S
C673   C678    1.402   .     A
C674   C677    1.402   .     A
C675   N691    1.438   .     S
C675   C731    1.395   .     S
C676   N694    1.438   .     S
C676   C732    1.395   1_455 S
C677   H697    1.082   .     S
C677   C729    1.395   1_455 S
C678   H698    1.082   .     S
C678   C730    1.395   .     S
C681   C898    1.325   1_545 S
C681   H915    1.088   1_545 S
C682   C789    1.325   .     S
C682   H808    1.088   .     S
N684   N35     1.297   1_556 S
N684   H54     1.029   1_556 S
N685   O686    1.301   .     A
N685   O687    1.301   .     A
N688   O690    1.301   .     A
N688   O689    1.301   .     A
N691   O692    1.301   .     A
N691   O909    1.301   1_545 S
O693   N799    1.301   .     S
N694   O695    1.301   .     A
N694   O804    1.301   .     S
O696   N910    1.301   1_545 S
H699   C789    1.088   .     S
H700   C898    1.088   1_545 S
H701   N35     1.029   1_556 S
O703   C707    1.294   .     A
O703   Cu715   1.955   .     S
O704   Cu716   1.955   .     S
O704   C708    1.294   .     A
O705   Cu716   1.948   .     S
O705   C707    1.284   .     A
O706   C708    1.284   .     A
O706   Cu715   1.948   .     S
C707   C735    1.425   .     S
C708   C736    1.425   .     S
O709   C713    1.295   .     A
O709   Cu715   1.965   .     S
O710   Cu716   1.965   .     S
O710   C714    1.295   .     A
O711   Cu716   1.948   .     S
O711   C713    1.292   .     A
O712   C714    1.292   .     A
O712   Cu715   1.948   .     S
C713   C720    1.445   .     S
C714   C719    1.445   .     S
Cu715  Cu716   2.692   .     S
Cu715  N738    2.023   .     S
Cu716  N737    2.023   .     S
C717   C727    1.405   .     A
C717   C719    1.401   .     A
C717   N739    1.437   .     S
C718   C720    1.401   .     A
C718   N742    1.437   .     S
C718   C728    1.405   .     A
C719   C721    1.392   .     A
C720   C722    1.392   .     A
C721   H733    1.082   .     S
C721   C723    1.398   .     A
C722   C724    1.398   .     A
C722   H734    1.082   .     S
C723   C729    1.415   .     A
C723   C725    1.419   .     A
C724   C726    1.419   .     A
C724   C730    1.415   .     A
C725   C727    1.417   .     A
C725   C672    1.408   1_655 S
C726   C728    1.417   .     A
C727   C732    1.402   .     A
C728   C731    1.402   .     A
C729   N745    1.438   .     S
C729   C677    1.395   1_655 S
C730   N748    1.438   .     S
C731   H751    1.082   .     S
C732   H752    1.082   .     S
C732   C676    1.395   1_655 S
C735   C952    1.325   1_545 S
C735   H969    1.088   1_545 S
C736   C843    1.325   .     S
C736   H862    1.088   .     S
N738   N89     1.297   1_556 S
N738   H108    1.029   1_556 S
N739   O740    1.301   .     A
N739   O741    1.301   .     A
N742   O744    1.301   .     A
N742   O743    1.301   .     A
N745   O746    1.301   .     A
N745   O963    1.301   1_545 S
O747   N853    1.301   .     S
N748   O749    1.301   .     A
N748   O858    1.301   .     S
O750   N964    1.301   1_545 S
H753   C843    1.088   .     S
H754   C952    1.088   1_545 S
H755   N89     1.029   1_556 S
O757   C761    1.294   .     A
O757   Cu769   1.955   .     S
O758   Cu770   1.955   .     S
O758   C762    1.294   .     A
O759   Cu770   1.948   .     S
O759   C761    1.284   .     A
O760   C762    1.284   .     A
O760   Cu769   1.948   .     S
C761   C789    1.425   .     S
C762   C790    1.425   .     S
O763   C767    1.295   .     A
O763   Cu769   1.965   .     S
O764   Cu770   1.965   .     S
O764   C768    1.295   .     A
O765   Cu770   1.948   .     S
O765   C767    1.292   .     A
O766   C768    1.292   .     A
O766   Cu769   1.948   .     S
C767   C774    1.445   .     S
C768   C773    1.445   .     S
Cu769  Cu770   2.692   .     S
Cu769  N792    2.023   .     S
Cu770  N791    2.023   .     S
C771   C781    1.405   .     A
C771   C773    1.401   .     A
C771   N793    1.437   .     S
C772   C774    1.401   .     A
C772   N796    1.437   .     S
C772   C782    1.405   .     A
C773   C775    1.392   .     A
C774   C776    1.392   .     A
C775   H787    1.082   .     S
C775   C777    1.398   .     A
C776   C778    1.398   .     A
C776   H788    1.082   .     S
C777   C783    1.415   .     A
C777   C779    1.419   .     A
C778   C780    1.419   .     A
C778   C784    1.415   .     A
C779   C781    1.417   .     A
C779   C834    1.408   .     S
C780   C782    1.417   .     A
C780   C833    1.408   1_455 S
C781   C786    1.402   .     A
C782   C785    1.402   .     A
C783   N799    1.438   .     S
C783   C839    1.395   .     S
C784   N802    1.438   .     S
C784   C840    1.395   1_455 S
C785   H805    1.082   .     S
C785   C837    1.395   1_455 S
C786   H806    1.082   .     S
C786   C838    1.395   .     S
C790   C897    1.325   .     S
C790   H916    1.088   .     S
N792   N143    1.297   1_556 S
N792   H162    1.029   1_556 S
N793   O794    1.301   .     A
N793   O795    1.301   .     A
N796   O798    1.301   .     A
N796   O797    1.301   .     A
N799   O800    1.301   .     A
O801   N907    1.301   .     S
N802   O803    1.301   .     A
N802   O912    1.301   .     S
H807   C897    1.088   .     S
H809   N143    1.029   1_556 S
O811   C815    1.294   .     A
O811   Cu823   1.955   .     S
O812   Cu824   1.955   .     S
O812   C816    1.294   .     A
O813   Cu824   1.948   .     S
O813   C815    1.284   .     A
O814   C816    1.284   .     A
O814   Cu823   1.948   .     S
C815   C843    1.425   .     S
C816   C844    1.425   .     S
O817   C821    1.295   .     A
O817   Cu823   1.965   .     S
O818   Cu824   1.965   .     S
O818   C822    1.295   .     A
O819   Cu824   1.948   .     S
O819   C821    1.292   .     A
O820   C822    1.292   .     A
O820   Cu823   1.948   .     S
C821   C828    1.445   .     S
C822   C827    1.445   .     S
Cu823  Cu824   2.692   .     S
Cu823  N846    2.023   .     S
Cu824  N845    2.023   .     S
C825   C835    1.405   .     A
C825   C827    1.401   .     A
C825   N847    1.437   .     S
C826   C828    1.401   .     A
C826   N850    1.437   .     S
C826   C836    1.405   .     A
C827   C829    1.392   .     A
C828   C830    1.392   .     A
C829   H841    1.082   .     S
C829   C831    1.398   .     A
C830   C832    1.398   .     A
C830   H842    1.082   .     S
C831   C837    1.415   .     A
C831   C833    1.419   .     A
C832   C834    1.419   .     A
C832   C838    1.415   .     A
C833   C835    1.417   .     A
C833   C780    1.408   1_655 S
C834   C836    1.417   .     A
C835   C840    1.402   .     A
C836   C839    1.402   .     A
C837   N853    1.438   .     S
C837   C785    1.395   1_655 S
C838   N856    1.438   .     S
C839   H859    1.082   .     S
C840   H860    1.082   .     S
C840   C784    1.395   1_655 S
C844   C951    1.325   .     S
C844   H970    1.088   .     S
N846   N197    1.297   1_556 S
N846   H216    1.029   1_556 S
N847   O848    1.301   .     A
N847   O849    1.301   .     A
N850   O852    1.301   .     A
N850   O851    1.301   .     A
N853   O854    1.301   .     A
O855   N961    1.301   .     S
N856   O857    1.301   .     A
N856   O966    1.301   .     S
H861   C951    1.088   .     S
H863   N197    1.029   1_556 S
O865   C869    1.294   .     A
O865   Cu877   1.955   .     S
O866   Cu878   1.955   .     S
O866   C870    1.294   .     A
O867   Cu878   1.948   .     S
O867   C869    1.284   .     A
O868   C870    1.284   .     A
O868   Cu877   1.948   .     S
C869   C897    1.425   .     S
C870   C898    1.425   .     S
O871   C875    1.295   .     A
O871   Cu877   1.965   .     S
O872   Cu878   1.965   .     S
O872   C876    1.295   .     A
O873   Cu878   1.948   .     S
O873   C875    1.292   .     A
O874   C876    1.292   .     A
O874   Cu877   1.948   .     S
C875   C882    1.445   .     S
C876   C881    1.445   .     S
Cu877  Cu878   2.692   .     S
Cu877  N900    2.023   .     S
Cu878  N899    2.023   .     S
C879   C889    1.405   .     A
C879   C881    1.401   .     A
C879   N901    1.437   .     S
C880   C882    1.401   .     A
C880   N904    1.437   .     S
C880   C890    1.405   .     A
C881   C883    1.392   .     A
C882   C884    1.392   .     A
C883   H895    1.082   .     S
C883   C885    1.398   .     A
C884   C886    1.398   .     A
C884   H896    1.082   .     S
C885   C891    1.415   .     A
C885   C887    1.419   .     A
C886   C888    1.419   .     A
C886   C892    1.415   .     A
C887   C889    1.417   .     A
C887   C942    1.408   .     S
C888   C890    1.417   .     A
C888   C941    1.408   1_455 S
C889   C894    1.402   .     A
C890   C893    1.402   .     A
C891   N907    1.438   .     S
C891   C947    1.395   .     S
C892   N910    1.438   .     S
C892   C948    1.395   1_455 S
C893   H913    1.082   .     S
C893   C945    1.395   1_455 S
C894   H914    1.082   .     S
C894   C946    1.395   .     S
C898   C681    1.325   1_565 S
C898   H700    1.088   1_565 S
N900   N251    1.297   1_556 S
N900   H270    1.029   1_556 S
N901   O902    1.301   .     A
N901   O903    1.301   .     A
N904   O906    1.301   .     A
N904   O905    1.301   .     A
N907   O908    1.301   .     A
O909   N691    1.301   1_565 S
N910   O911    1.301   .     A
N910   O696    1.301   1_565 S
H915   C681    1.088   1_565 S
H917   N251    1.029   1_556 S
O919   C923    1.294   .     A
O919   Cu931   1.955   .     S
O920   Cu932   1.955   .     S
O920   C924    1.294   .     A
O921   Cu932   1.948   .     S
O921   C923    1.284   .     A
O922   C924    1.284   .     A
O922   Cu931   1.948   .     S
C923   C951    1.425   .     S
C924   C952    1.425   .     S
O925   C929    1.295   .     A
O925   Cu931   1.965   .     S
O926   Cu932   1.965   .     S
O926   C930    1.295   .     A
O927   Cu932   1.948   .     S
O927   C929    1.292   .     A
O928   C930    1.292   .     A
O928   Cu931   1.948   .     S
C929   C936    1.445   .     S
C930   C935    1.445   .     S
Cu931  Cu932   2.692   .     S
Cu931  N954    2.023   .     S
Cu932  N953    2.023   .     S
C933   C943    1.405   .     A
C933   C935    1.401   .     A
C933   N955    1.437   .     S
C934   C936    1.401   .     A
C934   N958    1.437   .     S
C934   C944    1.405   .     A
C935   C937    1.392   .     A
C936   C938    1.392   .     A
C937   H949    1.082   .     S
C937   C939    1.398   .     A
C938   C940    1.398   .     A
C938   H950    1.082   .     S
C939   C945    1.415   .     A
C939   C941    1.419   .     A
C940   C942    1.419   .     A
C940   C946    1.415   .     A
C941   C943    1.417   .     A
C941   C888    1.408   1_655 S
C942   C944    1.417   .     A
C943   C948    1.402   .     A
C944   C947    1.402   .     A
C945   N961    1.438   .     S
C945   C893    1.395   1_655 S
C946   N964    1.438   .     S
C947   H967    1.082   .     S
C948   H968    1.082   .     S
C948   C892    1.395   1_655 S
C952   C735    1.325   1_565 S
C952   H754    1.088   1_565 S
N954   N305    1.297   1_556 S
N954   H324    1.029   1_556 S
N955   O956    1.301   .     A
N955   O957    1.301   .     A
N958   O960    1.301   .     A
N958   O959    1.301   .     A
N961   O962    1.301   .     A
O963   N745    1.301   1_565 S
N964   O965    1.301   .     A
N964   O750    1.301   1_565 S
H969   C735    1.088   1_565 S
H971   N305    1.029   1_556 S
