data_str_m2_o1_o18_pcu_sym.159
_audit_creation_date              2020-01-03
_audit_creation_method            'Materials Studio'
_symmetry_space_group_name_H-M    'P1'
_symmetry_Int_Tables_number       1
_symmetry_cell_setting            triclinic
loop_
_symmetry_equiv_pos_as_xyz
  x,y,z
_cell_length_a                    28.8728
_cell_length_b                    32.4733
_cell_length_c                    31.8605
_cell_angle_alpha                 89.9480
_cell_angle_beta                  70.9272
_cell_angle_gamma                 90.0219
loop_
_atom_site_label
_atom_site_type_symbol
_atom_site_fract_x
_atom_site_fract_y
_atom_site_fract_z
_atom_site_U_iso_or_equiv
_atom_site_adp_type
_atom_site_occupancy
C1     C     0.33328   0.08747   0.25010   0.00000  Uiso   1.00
C2     C     0.00001   0.24587   0.25001   0.00000  Uiso   1.00
C3     C     0.19440   0.20815   0.04328   0.00000  Uiso   1.00
C4     C     0.13654   0.20529   0.45566   0.00000  Uiso   1.00
C5     C     0.24370   0.20266   0.01845   0.00000  Uiso   1.00
C6     C     0.08738   0.19989   0.48043   0.00000  Uiso   1.00
C7     C     0.29173   0.02129   0.24872   0.00000  Uiso   1.00
C8     C     0.04145   0.31205   0.25168   0.00000  Uiso   1.00
C9     C     0.29177   0.31202   0.24866   0.00000  Uiso   1.00
C10    C     0.04141   0.02132   0.25177   0.00000  Uiso   1.00
C11    C     0.33331   0.29054   0.25011   0.00000  Uiso   1.00
C12    C     0.33324   0.04279   0.25022   0.00000  Uiso   1.00
C13    C     0.18089   0.14258   0.27898   0.00000  Uiso   1.00
C14    C     0.15246   0.19071   0.22097   0.00000  Uiso   1.00
C15    C     0.13155   0.14257   0.27894   0.00000  Uiso   1.00
C16    C     0.20179   0.19076   0.22104   0.00000  Uiso   1.00
C17    C     0.30469   0.16707   0.33565   0.00000  Uiso   1.00
C18    C     0.02858   0.16693   0.16437   0.00000  Uiso   1.00
C19    C     0.28648   0.17062   0.38405   0.00000  Uiso   1.00
C20    C     0.04610   0.17061   0.11601   0.00000  Uiso   1.00
C21    C     0.29946   0.16729   0.45458   0.00000  Uiso   1.00
C22    C     0.03111   0.16640   0.04633   0.00000  Uiso   1.00
C23    C     0.31533   0.15835   0.40960   0.00000  Uiso   1.00
C24    C     0.01673   0.15710   0.09156   0.00000  Uiso   1.00
C25    C     0.23932   0.18648   0.40521   0.00000  Uiso   1.00
C26    C     0.09201   0.18837   0.09442   0.00000  Uiso   1.00
C27    C     0.22240   0.19371   0.45140   0.00000  Uiso   1.00
C28    C     0.10831   0.19472   0.04814   0.00000  Uiso   1.00
C29    C     0.25567   0.18826   0.47482   0.00000  Uiso   1.00
C30    C     0.07479   0.18776   0.02508   0.00000  Uiso   1.00
C31    C     0.17274   0.20217   0.47598   0.00000  Uiso   1.00
C32    C     0.15800   0.20317   0.02322   0.00000  Uiso   1.00
Cu33   Cu    0.04689   0.16667   0.25000   0.00000  Uiso   1.00
Cu34   Cu    0.28645   0.16666   0.25000   0.00000  Uiso   1.00
H35    H     0.32074   0.15588   0.47364   0.00000  Uiso   1.00
H36    H     0.01016   0.15357   0.02762   0.00000  Uiso   1.00
H37    H     0.25933   0.29600   0.24739   0.00000  Uiso   1.00
H38    H     0.07383   0.03734   0.25306   0.00000  Uiso   1.00
H39    H     0.19084   0.12316   0.30229   0.00000  Uiso   1.00
H40    H     0.14254   0.21009   0.19761   0.00000  Uiso   1.00
H41    H     0.10484   0.12305   0.30216   0.00000  Uiso   1.00
H42    H     0.22851   0.21025   0.19779   0.00000  Uiso   1.00
N43    N     0.11736   0.16668   0.24999   0.00000  Uiso   1.00
N44    N     0.21597   0.16666   0.25001   0.00000  Uiso   1.00
O45    O     0.03958   0.10655   0.25000   0.00000  Uiso   1.00
O46    O     0.29375   0.22678   0.25000   0.00000  Uiso   1.00
O47    O     0.29372   0.10654   0.25001   0.00000  Uiso   1.00
O48    O     0.03961   0.22679   0.25000   0.00000  Uiso   1.00
O49    O     0.01852   0.16668   0.31492   0.00000  Uiso   1.00
O50    O     0.31481   0.16666   0.18509   0.00000  Uiso   1.00
O51    O     0.27267   0.16667   0.31492   0.00000  Uiso   1.00
O52    O     0.06067   0.16667   0.18508   0.00000  Uiso   1.00
O53    O     0.28018   0.20826   0.03716   0.00000  Uiso   1.00
C54    C     0.28072   0.24960   0.05061   0.00000  Uiso   1.00
H55    H     0.24989   0.25588   0.08157   0.00000  Uiso   1.00
H56    H     0.28018   0.27161   0.02392   0.00000  Uiso   1.00
H57    H     0.31518   0.25501   0.05804   0.00000  Uiso   1.00
O58    O     0.05211   0.20338   0.46017   0.00000  Uiso   1.00
C59    C     0.04873   0.24487   0.44816   0.00000  Uiso   1.00
H60    H     0.08043   0.25360   0.41876   0.00000  Uiso   1.00
H61    H     0.04546   0.26632   0.47626   0.00000  Uiso   1.00
H62    H     0.01518   0.24852   0.43880   0.00000  Uiso   1.00
H63    H     0.11455   0.19618   0.11434   0.00000  Uiso   1.00
H64    H     0.21675   0.19301   0.38498   0.00000  Uiso   1.00
O65    O     0.31226   0.12955   0.11094   0.00000  Uiso   1.00
C66    C     0.26734   0.14462   0.10881   0.00000  Uiso   1.00
H67    H     0.26225   0.17801   0.11700   0.00000  Uiso   1.00
H68    H     0.23721   0.12807   0.13394   0.00000  Uiso   1.00
H69    H     0.26375   0.13786   0.07588   0.00000  Uiso   1.00
O70    O     0.02702   0.13965   0.39069   0.00000  Uiso   1.00
C71    C     0.01981   0.09668   0.39187   0.00000  Uiso   1.00
H72    H     0.05588   0.08156   0.37674   0.00000  Uiso   1.00
H73    H     0.32932   0.08747   0.37215   0.00000  Uiso   1.00
H74    H     0.00423   0.08526   0.42664   0.00000  Uiso   1.00
H75    H     0.18569   0.21442   0.07821   0.00000  Uiso   1.00
H76    H     0.14524   0.21004   0.42046   0.00000  Uiso   1.00
H77    H     0.25927   0.03727   0.24750   0.00000  Uiso   1.00
H78    H     0.07392   0.29607   0.25289   0.00000  Uiso   1.00
C79    C     0.66661   0.08747   0.25010   0.00000  Uiso   1.00
C80    C     0.33335   0.24587   0.25001   0.00000  Uiso   1.00
C81    C     0.52774   0.20815   0.04328   0.00000  Uiso   1.00
C82    C     0.46987   0.20529   0.45566   0.00000  Uiso   1.00
C83    C     0.57703   0.20266   0.01845   0.00000  Uiso   1.00
C84    C     0.42071   0.19989   0.48043   0.00000  Uiso   1.00
C85    C     0.62507   0.02129   0.24872   0.00000  Uiso   1.00
C86    C     0.37479   0.31205   0.25168   0.00000  Uiso   1.00
C87    C     0.62510   0.31202   0.24866   0.00000  Uiso   1.00
C88    C     0.37474   0.02132   0.25177   0.00000  Uiso   1.00
C89    C     0.66664   0.29054   0.25011   0.00000  Uiso   1.00
C90    C     0.66658   0.04279   0.25022   0.00000  Uiso   1.00
C91    C     0.51423   0.14258   0.27898   0.00000  Uiso   1.00
C92    C     0.48579   0.19071   0.22097   0.00000  Uiso   1.00
C93    C     0.46489   0.14257   0.27894   0.00000  Uiso   1.00
C94    C     0.53512   0.19076   0.22104   0.00000  Uiso   1.00
C95    C     0.63803   0.16707   0.33565   0.00000  Uiso   1.00
C96    C     0.36192   0.16693   0.16437   0.00000  Uiso   1.00
C97    C     0.61982   0.17062   0.38405   0.00000  Uiso   1.00
C98    C     0.37943   0.17061   0.11601   0.00000  Uiso   1.00
C99    C     0.63279   0.16729   0.45458   0.00000  Uiso   1.00
C100   C     0.36444   0.16640   0.04633   0.00000  Uiso   1.00
C101   C     0.64866   0.15835   0.40960   0.00000  Uiso   1.00
C102   C     0.35006   0.15710   0.09156   0.00000  Uiso   1.00
C103   C     0.57265   0.18648   0.40521   0.00000  Uiso   1.00
C104   C     0.42534   0.18837   0.09442   0.00000  Uiso   1.00
C105   C     0.55573   0.19371   0.45140   0.00000  Uiso   1.00
C106   C     0.44165   0.19472   0.04814   0.00000  Uiso   1.00
C107   C     0.58900   0.18826   0.47482   0.00000  Uiso   1.00
C108   C     0.40812   0.18776   0.02508   0.00000  Uiso   1.00
C109   C     0.50608   0.20217   0.47598   0.00000  Uiso   1.00
C110   C     0.49133   0.20317   0.02322   0.00000  Uiso   1.00
Cu111  Cu    0.38022   0.16667   0.25000   0.00000  Uiso   1.00
Cu112  Cu    0.61978   0.16666   0.25000   0.00000  Uiso   1.00
H113   H     0.65407   0.15588   0.47364   0.00000  Uiso   1.00
H114   H     0.34349   0.15357   0.02762   0.00000  Uiso   1.00
H115   H     0.59267   0.29600   0.24739   0.00000  Uiso   1.00
H116   H     0.40717   0.03734   0.25306   0.00000  Uiso   1.00
H117   H     0.52417   0.12316   0.30229   0.00000  Uiso   1.00
H118   H     0.47587   0.21009   0.19761   0.00000  Uiso   1.00
H119   H     0.43818   0.12305   0.30216   0.00000  Uiso   1.00
H120   H     0.56184   0.21025   0.19779   0.00000  Uiso   1.00
N121   N     0.45069   0.16668   0.24999   0.00000  Uiso   1.00
N122   N     0.54931   0.16666   0.25001   0.00000  Uiso   1.00
O123   O     0.37291   0.10655   0.25000   0.00000  Uiso   1.00
O124   O     0.62709   0.22678   0.25000   0.00000  Uiso   1.00
O125   O     0.62706   0.10654   0.25001   0.00000  Uiso   1.00
O126   O     0.37294   0.22679   0.25000   0.00000  Uiso   1.00
O127   O     0.35186   0.16668   0.31492   0.00000  Uiso   1.00
O128   O     0.64814   0.16666   0.18509   0.00000  Uiso   1.00
O129   O     0.60600   0.16667   0.31492   0.00000  Uiso   1.00
O130   O     0.39400   0.16667   0.18508   0.00000  Uiso   1.00
O131   O     0.61351   0.20826   0.03716   0.00000  Uiso   1.00
C132   C     0.61405   0.24960   0.05061   0.00000  Uiso   1.00
H133   H     0.58322   0.25588   0.08157   0.00000  Uiso   1.00
H134   H     0.61351   0.27161   0.02392   0.00000  Uiso   1.00
H135   H     0.64851   0.25501   0.05804   0.00000  Uiso   1.00
O136   O     0.38544   0.20338   0.46017   0.00000  Uiso   1.00
C137   C     0.38206   0.24487   0.44816   0.00000  Uiso   1.00
H138   H     0.41376   0.25360   0.41876   0.00000  Uiso   1.00
H139   H     0.37880   0.26632   0.47626   0.00000  Uiso   1.00
H140   H     0.34851   0.24852   0.43880   0.00000  Uiso   1.00
H141   H     0.44789   0.19618   0.11434   0.00000  Uiso   1.00
H142   H     0.55008   0.19301   0.38498   0.00000  Uiso   1.00
O143   O     0.64560   0.12955   0.11094   0.00000  Uiso   1.00
C144   C     0.60068   0.14462   0.10881   0.00000  Uiso   1.00
H145   H     0.59559   0.17801   0.11700   0.00000  Uiso   1.00
H146   H     0.57054   0.12807   0.13394   0.00000  Uiso   1.00
H147   H     0.59708   0.13786   0.07588   0.00000  Uiso   1.00
O148   O     0.36035   0.13965   0.39069   0.00000  Uiso   1.00
C149   C     0.35315   0.09668   0.39187   0.00000  Uiso   1.00
H150   H     0.38921   0.08156   0.37674   0.00000  Uiso   1.00
H151   H     0.66265   0.08747   0.37215   0.00000  Uiso   1.00
H152   H     0.33756   0.08526   0.42664   0.00000  Uiso   1.00
H153   H     0.51902   0.21442   0.07821   0.00000  Uiso   1.00
H154   H     0.47858   0.21004   0.42046   0.00000  Uiso   1.00
H155   H     0.59261   0.03727   0.24750   0.00000  Uiso   1.00
H156   H     0.40725   0.29607   0.25289   0.00000  Uiso   1.00
C157   C     0.99995   0.08747   0.25010   0.00000  Uiso   1.00
C158   C     0.66668   0.24587   0.25001   0.00000  Uiso   1.00
C159   C     0.86107   0.20815   0.04328   0.00000  Uiso   1.00
C160   C     0.80320   0.20529   0.45566   0.00000  Uiso   1.00
C161   C     0.91036   0.20266   0.01845   0.00000  Uiso   1.00
C162   C     0.75404   0.19989   0.48043   0.00000  Uiso   1.00
C163   C     0.95840   0.02129   0.24872   0.00000  Uiso   1.00
C164   C     0.70812   0.31205   0.25168   0.00000  Uiso   1.00
C165   C     0.95844   0.31202   0.24866   0.00000  Uiso   1.00
C166   C     0.70808   0.02132   0.25177   0.00000  Uiso   1.00
C167   C     0.99998   0.29054   0.25011   0.00000  Uiso   1.00
C168   C     0.99991   0.04279   0.25022   0.00000  Uiso   1.00
C169   C     0.84756   0.14258   0.27898   0.00000  Uiso   1.00
C170   C     0.81912   0.19071   0.22097   0.00000  Uiso   1.00
C171   C     0.79822   0.14257   0.27894   0.00000  Uiso   1.00
C172   C     0.86845   0.19076   0.22104   0.00000  Uiso   1.00
C173   C     0.97136   0.16707   0.33565   0.00000  Uiso   1.00
C174   C     0.69525   0.16693   0.16437   0.00000  Uiso   1.00
C175   C     0.95315   0.17062   0.38405   0.00000  Uiso   1.00
C176   C     0.71277   0.17061   0.11601   0.00000  Uiso   1.00
C177   C     0.96613   0.16729   0.45458   0.00000  Uiso   1.00
C178   C     0.69778   0.16640   0.04633   0.00000  Uiso   1.00
C179   C     0.98200   0.15835   0.40960   0.00000  Uiso   1.00
C180   C     0.68340   0.15710   0.09156   0.00000  Uiso   1.00
C181   C     0.90598   0.18648   0.40521   0.00000  Uiso   1.00
C182   C     0.75868   0.18837   0.09442   0.00000  Uiso   1.00
C183   C     0.88906   0.19371   0.45140   0.00000  Uiso   1.00
C184   C     0.77498   0.19472   0.04814   0.00000  Uiso   1.00
C185   C     0.92233   0.18826   0.47482   0.00000  Uiso   1.00
C186   C     0.74145   0.18776   0.02508   0.00000  Uiso   1.00
C187   C     0.83941   0.20217   0.47598   0.00000  Uiso   1.00
C188   C     0.82467   0.20317   0.02322   0.00000  Uiso   1.00
Cu189  Cu    0.71355   0.16667   0.25000   0.00000  Uiso   1.00
Cu190  Cu    0.95311   0.16666   0.25000   0.00000  Uiso   1.00
H191   H     0.98740   0.15588   0.47364   0.00000  Uiso   1.00
H192   H     0.67682   0.15357   0.02762   0.00000  Uiso   1.00
H193   H     0.92600   0.29600   0.24739   0.00000  Uiso   1.00
H194   H     0.74050   0.03734   0.25306   0.00000  Uiso   1.00
H195   H     0.85750   0.12316   0.30229   0.00000  Uiso   1.00
H196   H     0.80920   0.21009   0.19761   0.00000  Uiso   1.00
H197   H     0.77151   0.12305   0.30216   0.00000  Uiso   1.00
H198   H     0.89517   0.21025   0.19779   0.00000  Uiso   1.00
N199   N     0.78403   0.16668   0.24999   0.00000  Uiso   1.00
N200   N     0.88264   0.16666   0.25001   0.00000  Uiso   1.00
O201   O     0.70625   0.10655   0.25000   0.00000  Uiso   1.00
O202   O     0.96042   0.22678   0.25000   0.00000  Uiso   1.00
O203   O     0.96039   0.10654   0.25001   0.00000  Uiso   1.00
O204   O     0.70628   0.22679   0.25000   0.00000  Uiso   1.00
O205   O     0.68519   0.16668   0.31492   0.00000  Uiso   1.00
O206   O     0.98148   0.16666   0.18509   0.00000  Uiso   1.00
O207   O     0.93933   0.16667   0.31492   0.00000  Uiso   1.00
O208   O     0.72733   0.16667   0.18508   0.00000  Uiso   1.00
O209   O     0.94684   0.20826   0.03716   0.00000  Uiso   1.00
C210   C     0.94739   0.24960   0.05061   0.00000  Uiso   1.00
H211   H     0.91655   0.25588   0.08157   0.00000  Uiso   1.00
H212   H     0.94684   0.27161   0.02392   0.00000  Uiso   1.00
H213   H     0.98184   0.25501   0.05804   0.00000  Uiso   1.00
O214   O     0.71878   0.20338   0.46017   0.00000  Uiso   1.00
C215   C     0.71540   0.24487   0.44816   0.00000  Uiso   1.00
H216   H     0.74710   0.25360   0.41876   0.00000  Uiso   1.00
H217   H     0.71213   0.26632   0.47626   0.00000  Uiso   1.00
H218   H     0.68185   0.24852   0.43880   0.00000  Uiso   1.00
H219   H     0.78122   0.19618   0.11434   0.00000  Uiso   1.00
H220   H     0.88342   0.19301   0.38498   0.00000  Uiso   1.00
O221   O     0.97893   0.12955   0.11094   0.00000  Uiso   1.00
C222   C     0.93401   0.14462   0.10881   0.00000  Uiso   1.00
H223   H     0.92892   0.17801   0.11700   0.00000  Uiso   1.00
H224   H     0.90387   0.12807   0.13394   0.00000  Uiso   1.00
H225   H     0.93041   0.13786   0.07588   0.00000  Uiso   1.00
O226   O     0.69368   0.13965   0.39069   0.00000  Uiso   1.00
C227   C     0.68648   0.09668   0.39187   0.00000  Uiso   1.00
H228   H     0.72255   0.08156   0.37674   0.00000  Uiso   1.00
H229   H     0.99599   0.08747   0.37215   0.00000  Uiso   1.00
H230   H     0.67089   0.08526   0.42664   0.00000  Uiso   1.00
H231   H     0.85235   0.21442   0.07821   0.00000  Uiso   1.00
H232   H     0.81191   0.21004   0.42046   0.00000  Uiso   1.00
H233   H     0.92594   0.03727   0.24750   0.00000  Uiso   1.00
H234   H     0.74058   0.29607   0.25289   0.00000  Uiso   1.00
C235   C     0.33328   0.42080   0.25010   0.00000  Uiso   1.00
C236   C     0.00001   0.57920   0.25001   0.00000  Uiso   1.00
C237   C     0.19440   0.54148   0.04328   0.00000  Uiso   1.00
C238   C     0.13654   0.53862   0.45566   0.00000  Uiso   1.00
C239   C     0.24370   0.53599   0.01845   0.00000  Uiso   1.00
C240   C     0.08738   0.53322   0.48043   0.00000  Uiso   1.00
C241   C     0.29173   0.35462   0.24872   0.00000  Uiso   1.00
C242   C     0.04145   0.64539   0.25168   0.00000  Uiso   1.00
C243   C     0.29177   0.64535   0.24866   0.00000  Uiso   1.00
C244   C     0.04141   0.35466   0.25177   0.00000  Uiso   1.00
C245   C     0.33331   0.62388   0.25011   0.00000  Uiso   1.00
C246   C     0.33324   0.37613   0.25022   0.00000  Uiso   1.00
C247   C     0.18089   0.47592   0.27898   0.00000  Uiso   1.00
C248   C     0.15246   0.52404   0.22097   0.00000  Uiso   1.00
C249   C     0.13155   0.47590   0.27894   0.00000  Uiso   1.00
C250   C     0.20179   0.52409   0.22104   0.00000  Uiso   1.00
C251   C     0.30469   0.50041   0.33565   0.00000  Uiso   1.00
C252   C     0.02858   0.50026   0.16437   0.00000  Uiso   1.00
C253   C     0.28648   0.50396   0.38405   0.00000  Uiso   1.00
C254   C     0.04610   0.50394   0.11601   0.00000  Uiso   1.00
C255   C     0.29946   0.50062   0.45458   0.00000  Uiso   1.00
C256   C     0.03111   0.49973   0.04633   0.00000  Uiso   1.00
C257   C     0.31533   0.49168   0.40960   0.00000  Uiso   1.00
C258   C     0.01673   0.49043   0.09156   0.00000  Uiso   1.00
C259   C     0.23932   0.51981   0.40521   0.00000  Uiso   1.00
C260   C     0.09201   0.52170   0.09442   0.00000  Uiso   1.00
C261   C     0.22240   0.52705   0.45140   0.00000  Uiso   1.00
C262   C     0.10831   0.52806   0.04814   0.00000  Uiso   1.00
C263   C     0.25567   0.52159   0.47482   0.00000  Uiso   1.00
C264   C     0.07479   0.52109   0.02508   0.00000  Uiso   1.00
C265   C     0.17274   0.53550   0.47598   0.00000  Uiso   1.00
C266   C     0.15800   0.53650   0.02322   0.00000  Uiso   1.00
Cu267  Cu    0.04689   0.50001   0.25000   0.00000  Uiso   1.00
Cu268  Cu    0.28645   0.49999   0.25000   0.00000  Uiso   1.00
H269   H     0.32074   0.48922   0.47364   0.00000  Uiso   1.00
H270   H     0.01016   0.48690   0.02762   0.00000  Uiso   1.00
H271   H     0.25933   0.62933   0.24739   0.00000  Uiso   1.00
H272   H     0.07383   0.37067   0.25306   0.00000  Uiso   1.00
H273   H     0.19084   0.45649   0.30229   0.00000  Uiso   1.00
H274   H     0.14254   0.54342   0.19761   0.00000  Uiso   1.00
H275   H     0.10484   0.45639   0.30216   0.00000  Uiso   1.00
H276   H     0.22851   0.54359   0.19779   0.00000  Uiso   1.00
N277   N     0.11736   0.50001   0.24999   0.00000  Uiso   1.00
N278   N     0.21597   0.49999   0.25001   0.00000  Uiso   1.00
O279   O     0.03958   0.43989   0.25000   0.00000  Uiso   1.00
O280   O     0.29375   0.56011   0.25000   0.00000  Uiso   1.00
O281   O     0.29372   0.43988   0.25001   0.00000  Uiso   1.00
O282   O     0.03961   0.56012   0.25000   0.00000  Uiso   1.00
O283   O     0.01852   0.50001   0.31492   0.00000  Uiso   1.00
O284   O     0.31481   0.49999   0.18509   0.00000  Uiso   1.00
O285   O     0.27267   0.50000   0.31492   0.00000  Uiso   1.00
O286   O     0.06067   0.50000   0.18508   0.00000  Uiso   1.00
O287   O     0.28018   0.54160   0.03716   0.00000  Uiso   1.00
C288   C     0.28072   0.58294   0.05061   0.00000  Uiso   1.00
H289   H     0.24989   0.58922   0.08157   0.00000  Uiso   1.00
H290   H     0.28018   0.60495   0.02392   0.00000  Uiso   1.00
H291   H     0.31518   0.58834   0.05804   0.00000  Uiso   1.00
O292   O     0.05211   0.53672   0.46017   0.00000  Uiso   1.00
C293   C     0.04873   0.57821   0.44816   0.00000  Uiso   1.00
H294   H     0.08043   0.58694   0.41876   0.00000  Uiso   1.00
H295   H     0.04546   0.59966   0.47626   0.00000  Uiso   1.00
H296   H     0.01518   0.58186   0.43880   0.00000  Uiso   1.00
H297   H     0.11455   0.52951   0.11434   0.00000  Uiso   1.00
H298   H     0.21675   0.52634   0.38498   0.00000  Uiso   1.00
O299   O     0.31226   0.46288   0.11094   0.00000  Uiso   1.00
C300   C     0.26734   0.47796   0.10881   0.00000  Uiso   1.00
H301   H     0.26225   0.51134   0.11700   0.00000  Uiso   1.00
H302   H     0.23721   0.46141   0.13394   0.00000  Uiso   1.00
H303   H     0.26375   0.47120   0.07588   0.00000  Uiso   1.00
O304   O     0.02702   0.47299   0.39069   0.00000  Uiso   1.00
C305   C     0.01981   0.43001   0.39187   0.00000  Uiso   1.00
H306   H     0.05588   0.41489   0.37674   0.00000  Uiso   1.00
H307   H     0.32932   0.42080   0.37215   0.00000  Uiso   1.00
H308   H     0.00423   0.41859   0.42664   0.00000  Uiso   1.00
H309   H     0.18569   0.54775   0.07821   0.00000  Uiso   1.00
H310   H     0.14524   0.54338   0.42046   0.00000  Uiso   1.00
H311   H     0.25927   0.37060   0.24750   0.00000  Uiso   1.00
H312   H     0.07392   0.62940   0.25289   0.00000  Uiso   1.00
C313   C     0.66661   0.42080   0.25010   0.00000  Uiso   1.00
C314   C     0.33335   0.57920   0.25001   0.00000  Uiso   1.00
C315   C     0.52774   0.54148   0.04328   0.00000  Uiso   1.00
C316   C     0.46987   0.53862   0.45566   0.00000  Uiso   1.00
C317   C     0.57703   0.53599   0.01845   0.00000  Uiso   1.00
C318   C     0.42071   0.53322   0.48043   0.00000  Uiso   1.00
C319   C     0.62507   0.35462   0.24872   0.00000  Uiso   1.00
C320   C     0.37479   0.64539   0.25168   0.00000  Uiso   1.00
C321   C     0.62510   0.64535   0.24866   0.00000  Uiso   1.00
C322   C     0.37474   0.35466   0.25177   0.00000  Uiso   1.00
C323   C     0.66664   0.62388   0.25011   0.00000  Uiso   1.00
C324   C     0.66658   0.37613   0.25022   0.00000  Uiso   1.00
C325   C     0.51423   0.47592   0.27898   0.00000  Uiso   1.00
C326   C     0.48579   0.52404   0.22097   0.00000  Uiso   1.00
C327   C     0.46489   0.47590   0.27894   0.00000  Uiso   1.00
C328   C     0.53512   0.52409   0.22104   0.00000  Uiso   1.00
C329   C     0.63803   0.50041   0.33565   0.00000  Uiso   1.00
C330   C     0.36192   0.50026   0.16437   0.00000  Uiso   1.00
C331   C     0.61982   0.50396   0.38405   0.00000  Uiso   1.00
C332   C     0.37943   0.50394   0.11601   0.00000  Uiso   1.00
C333   C     0.63279   0.50062   0.45458   0.00000  Uiso   1.00
C334   C     0.36444   0.49973   0.04633   0.00000  Uiso   1.00
C335   C     0.64866   0.49168   0.40960   0.00000  Uiso   1.00
C336   C     0.35006   0.49043   0.09156   0.00000  Uiso   1.00
C337   C     0.57265   0.51981   0.40521   0.00000  Uiso   1.00
C338   C     0.42534   0.52170   0.09442   0.00000  Uiso   1.00
C339   C     0.55573   0.52705   0.45140   0.00000  Uiso   1.00
C340   C     0.44165   0.52806   0.04814   0.00000  Uiso   1.00
C341   C     0.58900   0.52159   0.47482   0.00000  Uiso   1.00
C342   C     0.40812   0.52109   0.02508   0.00000  Uiso   1.00
C343   C     0.50608   0.53550   0.47598   0.00000  Uiso   1.00
C344   C     0.49133   0.53650   0.02322   0.00000  Uiso   1.00
Cu345  Cu    0.38022   0.50001   0.25000   0.00000  Uiso   1.00
Cu346  Cu    0.61978   0.49999   0.25000   0.00000  Uiso   1.00
H347   H     0.65407   0.48922   0.47364   0.00000  Uiso   1.00
H348   H     0.34349   0.48690   0.02762   0.00000  Uiso   1.00
H349   H     0.59267   0.62933   0.24739   0.00000  Uiso   1.00
H350   H     0.40717   0.37067   0.25306   0.00000  Uiso   1.00
H351   H     0.52417   0.45649   0.30229   0.00000  Uiso   1.00
H352   H     0.47587   0.54342   0.19761   0.00000  Uiso   1.00
H353   H     0.43818   0.45639   0.30216   0.00000  Uiso   1.00
H354   H     0.56184   0.54359   0.19779   0.00000  Uiso   1.00
N355   N     0.45069   0.50001   0.24999   0.00000  Uiso   1.00
N356   N     0.54931   0.49999   0.25001   0.00000  Uiso   1.00
O357   O     0.37291   0.43989   0.25000   0.00000  Uiso   1.00
O358   O     0.62709   0.56011   0.25000   0.00000  Uiso   1.00
O359   O     0.62706   0.43988   0.25001   0.00000  Uiso   1.00
O360   O     0.37294   0.56012   0.25000   0.00000  Uiso   1.00
O361   O     0.35186   0.50001   0.31492   0.00000  Uiso   1.00
O362   O     0.64814   0.49999   0.18509   0.00000  Uiso   1.00
O363   O     0.60600   0.50000   0.31492   0.00000  Uiso   1.00
O364   O     0.39400   0.50000   0.18508   0.00000  Uiso   1.00
O365   O     0.61351   0.54160   0.03716   0.00000  Uiso   1.00
C366   C     0.61405   0.58294   0.05061   0.00000  Uiso   1.00
H367   H     0.58322   0.58922   0.08157   0.00000  Uiso   1.00
H368   H     0.61351   0.60495   0.02392   0.00000  Uiso   1.00
H369   H     0.64851   0.58834   0.05804   0.00000  Uiso   1.00
O370   O     0.38544   0.53672   0.46017   0.00000  Uiso   1.00
C371   C     0.38206   0.57821   0.44816   0.00000  Uiso   1.00
H372   H     0.41376   0.58694   0.41876   0.00000  Uiso   1.00
H373   H     0.37880   0.59966   0.47626   0.00000  Uiso   1.00
H374   H     0.34851   0.58186   0.43880   0.00000  Uiso   1.00
H375   H     0.44789   0.52951   0.11434   0.00000  Uiso   1.00
H376   H     0.55008   0.52634   0.38498   0.00000  Uiso   1.00
O377   O     0.64560   0.46288   0.11094   0.00000  Uiso   1.00
C378   C     0.60068   0.47796   0.10881   0.00000  Uiso   1.00
H379   H     0.59559   0.51134   0.11700   0.00000  Uiso   1.00
H380   H     0.57054   0.46141   0.13394   0.00000  Uiso   1.00
H381   H     0.59708   0.47120   0.07588   0.00000  Uiso   1.00
O382   O     0.36035   0.47299   0.39069   0.00000  Uiso   1.00
C383   C     0.35315   0.43001   0.39187   0.00000  Uiso   1.00
H384   H     0.38921   0.41489   0.37674   0.00000  Uiso   1.00
H385   H     0.66265   0.42080   0.37215   0.00000  Uiso   1.00
H386   H     0.33756   0.41859   0.42664   0.00000  Uiso   1.00
H387   H     0.51902   0.54775   0.07821   0.00000  Uiso   1.00
H388   H     0.47858   0.54338   0.42046   0.00000  Uiso   1.00
H389   H     0.59261   0.37060   0.24750   0.00000  Uiso   1.00
H390   H     0.40725   0.62940   0.25289   0.00000  Uiso   1.00
C391   C     0.99995   0.42080   0.25010   0.00000  Uiso   1.00
C392   C     0.66668   0.57920   0.25001   0.00000  Uiso   1.00
C393   C     0.86107   0.54148   0.04328   0.00000  Uiso   1.00
C394   C     0.80320   0.53862   0.45566   0.00000  Uiso   1.00
C395   C     0.91036   0.53599   0.01845   0.00000  Uiso   1.00
C396   C     0.75404   0.53322   0.48043   0.00000  Uiso   1.00
C397   C     0.95840   0.35462   0.24872   0.00000  Uiso   1.00
C398   C     0.70812   0.64539   0.25168   0.00000  Uiso   1.00
C399   C     0.95844   0.64535   0.24866   0.00000  Uiso   1.00
C400   C     0.70808   0.35466   0.25177   0.00000  Uiso   1.00
C401   C     0.99998   0.62388   0.25011   0.00000  Uiso   1.00
C402   C     0.99991   0.37613   0.25022   0.00000  Uiso   1.00
C403   C     0.84756   0.47592   0.27898   0.00000  Uiso   1.00
C404   C     0.81912   0.52404   0.22097   0.00000  Uiso   1.00
C405   C     0.79822   0.47590   0.27894   0.00000  Uiso   1.00
C406   C     0.86845   0.52409   0.22104   0.00000  Uiso   1.00
C407   C     0.97136   0.50041   0.33565   0.00000  Uiso   1.00
C408   C     0.69525   0.50026   0.16437   0.00000  Uiso   1.00
C409   C     0.95315   0.50396   0.38405   0.00000  Uiso   1.00
C410   C     0.71277   0.50394   0.11601   0.00000  Uiso   1.00
C411   C     0.96613   0.50062   0.45458   0.00000  Uiso   1.00
C412   C     0.69778   0.49973   0.04633   0.00000  Uiso   1.00
C413   C     0.98200   0.49168   0.40960   0.00000  Uiso   1.00
C414   C     0.68340   0.49043   0.09156   0.00000  Uiso   1.00
C415   C     0.90598   0.51981   0.40521   0.00000  Uiso   1.00
C416   C     0.75868   0.52170   0.09442   0.00000  Uiso   1.00
C417   C     0.88906   0.52705   0.45140   0.00000  Uiso   1.00
C418   C     0.77498   0.52806   0.04814   0.00000  Uiso   1.00
C419   C     0.92233   0.52159   0.47482   0.00000  Uiso   1.00
C420   C     0.74145   0.52109   0.02508   0.00000  Uiso   1.00
C421   C     0.83941   0.53550   0.47598   0.00000  Uiso   1.00
C422   C     0.82467   0.53650   0.02322   0.00000  Uiso   1.00
Cu423  Cu    0.71355   0.50001   0.25000   0.00000  Uiso   1.00
Cu424  Cu    0.95311   0.49999   0.25000   0.00000  Uiso   1.00
H425   H     0.98740   0.48922   0.47364   0.00000  Uiso   1.00
H426   H     0.67682   0.48690   0.02762   0.00000  Uiso   1.00
H427   H     0.92600   0.62933   0.24739   0.00000  Uiso   1.00
H428   H     0.74050   0.37067   0.25306   0.00000  Uiso   1.00
H429   H     0.85750   0.45649   0.30229   0.00000  Uiso   1.00
H430   H     0.80920   0.54342   0.19761   0.00000  Uiso   1.00
H431   H     0.77151   0.45639   0.30216   0.00000  Uiso   1.00
H432   H     0.89517   0.54359   0.19779   0.00000  Uiso   1.00
N433   N     0.78403   0.50001   0.24999   0.00000  Uiso   1.00
N434   N     0.88264   0.49999   0.25001   0.00000  Uiso   1.00
O435   O     0.70625   0.43989   0.25000   0.00000  Uiso   1.00
O436   O     0.96042   0.56011   0.25000   0.00000  Uiso   1.00
O437   O     0.96039   0.43988   0.25001   0.00000  Uiso   1.00
O438   O     0.70628   0.56012   0.25000   0.00000  Uiso   1.00
O439   O     0.68519   0.50001   0.31492   0.00000  Uiso   1.00
O440   O     0.98148   0.49999   0.18509   0.00000  Uiso   1.00
O441   O     0.93933   0.50000   0.31492   0.00000  Uiso   1.00
O442   O     0.72733   0.50000   0.18508   0.00000  Uiso   1.00
O443   O     0.94684   0.54160   0.03716   0.00000  Uiso   1.00
C444   C     0.94739   0.58294   0.05061   0.00000  Uiso   1.00
H445   H     0.91655   0.58922   0.08157   0.00000  Uiso   1.00
H446   H     0.94684   0.60495   0.02392   0.00000  Uiso   1.00
H447   H     0.98184   0.58834   0.05804   0.00000  Uiso   1.00
O448   O     0.71878   0.53672   0.46017   0.00000  Uiso   1.00
C449   C     0.71540   0.57821   0.44816   0.00000  Uiso   1.00
H450   H     0.74710   0.58694   0.41876   0.00000  Uiso   1.00
H451   H     0.71213   0.59966   0.47626   0.00000  Uiso   1.00
H452   H     0.68185   0.58186   0.43880   0.00000  Uiso   1.00
H453   H     0.78122   0.52951   0.11434   0.00000  Uiso   1.00
H454   H     0.88342   0.52634   0.38498   0.00000  Uiso   1.00
O455   O     0.97893   0.46288   0.11094   0.00000  Uiso   1.00
C456   C     0.93401   0.47796   0.10881   0.00000  Uiso   1.00
H457   H     0.92892   0.51134   0.11700   0.00000  Uiso   1.00
H458   H     0.90387   0.46141   0.13394   0.00000  Uiso   1.00
H459   H     0.93041   0.47120   0.07588   0.00000  Uiso   1.00
O460   O     0.69368   0.47299   0.39069   0.00000  Uiso   1.00
C461   C     0.68648   0.43001   0.39187   0.00000  Uiso   1.00
H462   H     0.72255   0.41489   0.37674   0.00000  Uiso   1.00
H463   H     0.99599   0.42080   0.37215   0.00000  Uiso   1.00
H464   H     0.67089   0.41859   0.42664   0.00000  Uiso   1.00
H465   H     0.85235   0.54775   0.07821   0.00000  Uiso   1.00
H466   H     0.81191   0.54338   0.42046   0.00000  Uiso   1.00
H467   H     0.92594   0.37060   0.24750   0.00000  Uiso   1.00
H468   H     0.74058   0.62940   0.25289   0.00000  Uiso   1.00
C469   C     0.33328   0.75414   0.25010   0.00000  Uiso   1.00
C470   C     0.00001   0.91253   0.25001   0.00000  Uiso   1.00
C471   C     0.19440   0.87481   0.04328   0.00000  Uiso   1.00
C472   C     0.13654   0.87195   0.45566   0.00000  Uiso   1.00
C473   C     0.24370   0.86932   0.01845   0.00000  Uiso   1.00
C474   C     0.08738   0.86655   0.48043   0.00000  Uiso   1.00
C475   C     0.29173   0.68795   0.24872   0.00000  Uiso   1.00
C476   C     0.04145   0.97872   0.25168   0.00000  Uiso   1.00
C477   C     0.29177   0.97868   0.24866   0.00000  Uiso   1.00
C478   C     0.04141   0.68799   0.25177   0.00000  Uiso   1.00
C479   C     0.33331   0.95721   0.25011   0.00000  Uiso   1.00
C480   C     0.33324   0.70946   0.25022   0.00000  Uiso   1.00
C481   C     0.18089   0.80925   0.27898   0.00000  Uiso   1.00
C482   C     0.15246   0.85738   0.22097   0.00000  Uiso   1.00
C483   C     0.13155   0.80923   0.27894   0.00000  Uiso   1.00
C484   C     0.20179   0.85742   0.22104   0.00000  Uiso   1.00
C485   C     0.30469   0.83374   0.33565   0.00000  Uiso   1.00
C486   C     0.02858   0.83359   0.16437   0.00000  Uiso   1.00
C487   C     0.28648   0.83729   0.38405   0.00000  Uiso   1.00
C488   C     0.04610   0.83727   0.11601   0.00000  Uiso   1.00
C489   C     0.29946   0.83396   0.45458   0.00000  Uiso   1.00
C490   C     0.03111   0.83306   0.04633   0.00000  Uiso   1.00
C491   C     0.31533   0.82502   0.40960   0.00000  Uiso   1.00
C492   C     0.01673   0.82376   0.09156   0.00000  Uiso   1.00
C493   C     0.23932   0.85314   0.40521   0.00000  Uiso   1.00
C494   C     0.09201   0.85504   0.09442   0.00000  Uiso   1.00
C495   C     0.22240   0.86038   0.45140   0.00000  Uiso   1.00
C496   C     0.10831   0.86139   0.04814   0.00000  Uiso   1.00
C497   C     0.25567   0.85492   0.47482   0.00000  Uiso   1.00
C498   C     0.07479   0.85442   0.02508   0.00000  Uiso   1.00
C499   C     0.17274   0.86884   0.47598   0.00000  Uiso   1.00
C500   C     0.15800   0.86983   0.02322   0.00000  Uiso   1.00
Cu501  Cu    0.04689   0.83334   0.25000   0.00000  Uiso   1.00
Cu502  Cu    0.28645   0.83333   0.25000   0.00000  Uiso   1.00
H503   H     0.32074   0.82255   0.47364   0.00000  Uiso   1.00
H504   H     0.01016   0.82023   0.02762   0.00000  Uiso   1.00
H505   H     0.25933   0.96267   0.24739   0.00000  Uiso   1.00
H506   H     0.07383   0.70401   0.25306   0.00000  Uiso   1.00
H507   H     0.19084   0.78983   0.30229   0.00000  Uiso   1.00
H508   H     0.14254   0.87675   0.19761   0.00000  Uiso   1.00
H509   H     0.10484   0.78972   0.30216   0.00000  Uiso   1.00
H510   H     0.22851   0.87692   0.19779   0.00000  Uiso   1.00
N511   N     0.11736   0.83334   0.24999   0.00000  Uiso   1.00
N512   N     0.21597   0.83332   0.25001   0.00000  Uiso   1.00
O513   O     0.03958   0.77322   0.25000   0.00000  Uiso   1.00
O514   O     0.29375   0.89345   0.25000   0.00000  Uiso   1.00
O515   O     0.29372   0.77321   0.25001   0.00000  Uiso   1.00
O516   O     0.03961   0.89346   0.25000   0.00000  Uiso   1.00
O517   O     0.01852   0.83334   0.31492   0.00000  Uiso   1.00
O518   O     0.31481   0.83332   0.18509   0.00000  Uiso   1.00
O519   O     0.27267   0.83333   0.31492   0.00000  Uiso   1.00
O520   O     0.06067   0.83333   0.18508   0.00000  Uiso   1.00
O521   O     0.28018   0.87493   0.03716   0.00000  Uiso   1.00
C522   C     0.28072   0.91627   0.05061   0.00000  Uiso   1.00
H523   H     0.24989   0.92255   0.08157   0.00000  Uiso   1.00
H524   H     0.28018   0.93828   0.02392   0.00000  Uiso   1.00
H525   H     0.31518   0.92167   0.05804   0.00000  Uiso   1.00
O526   O     0.05211   0.87005   0.46017   0.00000  Uiso   1.00
C527   C     0.04873   0.91154   0.44816   0.00000  Uiso   1.00
H528   H     0.08043   0.92027   0.41876   0.00000  Uiso   1.00
H529   H     0.04546   0.93299   0.47626   0.00000  Uiso   1.00
H530   H     0.01518   0.91519   0.43880   0.00000  Uiso   1.00
H531   H     0.11455   0.86284   0.11434   0.00000  Uiso   1.00
H532   H     0.21675   0.85968   0.38498   0.00000  Uiso   1.00
O533   O     0.31226   0.79622   0.11094   0.00000  Uiso   1.00
C534   C     0.26734   0.81129   0.10881   0.00000  Uiso   1.00
H535   H     0.26225   0.84468   0.11700   0.00000  Uiso   1.00
H536   H     0.23721   0.79474   0.13394   0.00000  Uiso   1.00
H537   H     0.26375   0.80453   0.07588   0.00000  Uiso   1.00
O538   O     0.02702   0.80632   0.39069   0.00000  Uiso   1.00
C539   C     0.01981   0.76335   0.39187   0.00000  Uiso   1.00
H540   H     0.05588   0.74823   0.37674   0.00000  Uiso   1.00
H541   H     0.32932   0.75413   0.37215   0.00000  Uiso   1.00
H542   H     0.00423   0.75193   0.42664   0.00000  Uiso   1.00
H543   H     0.18569   0.88109   0.07821   0.00000  Uiso   1.00
H544   H     0.14524   0.87671   0.42046   0.00000  Uiso   1.00
H545   H     0.25927   0.70394   0.24750   0.00000  Uiso   1.00
H546   H     0.07392   0.96273   0.25289   0.00000  Uiso   1.00
C547   C     0.66661   0.75414   0.25010   0.00000  Uiso   1.00
C548   C     0.33335   0.91253   0.25001   0.00000  Uiso   1.00
C549   C     0.52774   0.87481   0.04328   0.00000  Uiso   1.00
C550   C     0.46987   0.87195   0.45566   0.00000  Uiso   1.00
C551   C     0.57703   0.86932   0.01845   0.00000  Uiso   1.00
C552   C     0.42071   0.86655   0.48043   0.00000  Uiso   1.00
C553   C     0.62507   0.68795   0.24872   0.00000  Uiso   1.00
C554   C     0.37479   0.97872   0.25168   0.00000  Uiso   1.00
C555   C     0.62510   0.97868   0.24866   0.00000  Uiso   1.00
C556   C     0.37474   0.68799   0.25177   0.00000  Uiso   1.00
C557   C     0.66664   0.95721   0.25011   0.00000  Uiso   1.00
C558   C     0.66658   0.70946   0.25022   0.00000  Uiso   1.00
C559   C     0.51423   0.80925   0.27898   0.00000  Uiso   1.00
C560   C     0.48579   0.85738   0.22097   0.00000  Uiso   1.00
C561   C     0.46489   0.80923   0.27894   0.00000  Uiso   1.00
C562   C     0.53512   0.85742   0.22104   0.00000  Uiso   1.00
C563   C     0.63803   0.83374   0.33565   0.00000  Uiso   1.00
C564   C     0.36192   0.83359   0.16437   0.00000  Uiso   1.00
C565   C     0.61982   0.83729   0.38405   0.00000  Uiso   1.00
C566   C     0.37943   0.83727   0.11601   0.00000  Uiso   1.00
C567   C     0.63279   0.83396   0.45458   0.00000  Uiso   1.00
C568   C     0.36444   0.83306   0.04633   0.00000  Uiso   1.00
C569   C     0.64866   0.82502   0.40960   0.00000  Uiso   1.00
C570   C     0.35006   0.82376   0.09156   0.00000  Uiso   1.00
C571   C     0.57265   0.85314   0.40521   0.00000  Uiso   1.00
C572   C     0.42534   0.85504   0.09442   0.00000  Uiso   1.00
C573   C     0.55573   0.86038   0.45140   0.00000  Uiso   1.00
C574   C     0.44165   0.86139   0.04814   0.00000  Uiso   1.00
C575   C     0.58900   0.85492   0.47482   0.00000  Uiso   1.00
C576   C     0.40812   0.85442   0.02508   0.00000  Uiso   1.00
C577   C     0.50608   0.86884   0.47598   0.00000  Uiso   1.00
C578   C     0.49133   0.86983   0.02322   0.00000  Uiso   1.00
Cu579  Cu    0.38022   0.83334   0.25000   0.00000  Uiso   1.00
Cu580  Cu    0.61978   0.83333   0.25000   0.00000  Uiso   1.00
H581   H     0.65407   0.82255   0.47364   0.00000  Uiso   1.00
H582   H     0.34349   0.82023   0.02762   0.00000  Uiso   1.00
H583   H     0.59267   0.96267   0.24739   0.00000  Uiso   1.00
H584   H     0.40717   0.70401   0.25306   0.00000  Uiso   1.00
H585   H     0.52417   0.78983   0.30229   0.00000  Uiso   1.00
H586   H     0.47587   0.87675   0.19761   0.00000  Uiso   1.00
H587   H     0.43818   0.78972   0.30216   0.00000  Uiso   1.00
H588   H     0.56184   0.87692   0.19779   0.00000  Uiso   1.00
N589   N     0.45069   0.83334   0.24999   0.00000  Uiso   1.00
N590   N     0.54931   0.83332   0.25001   0.00000  Uiso   1.00
O591   O     0.37291   0.77322   0.25000   0.00000  Uiso   1.00
O592   O     0.62709   0.89345   0.25000   0.00000  Uiso   1.00
O593   O     0.62706   0.77321   0.25001   0.00000  Uiso   1.00
O594   O     0.37294   0.89346   0.25000   0.00000  Uiso   1.00
O595   O     0.35186   0.83334   0.31492   0.00000  Uiso   1.00
O596   O     0.64814   0.83332   0.18509   0.00000  Uiso   1.00
O597   O     0.60600   0.83333   0.31492   0.00000  Uiso   1.00
O598   O     0.39400   0.83333   0.18508   0.00000  Uiso   1.00
O599   O     0.61351   0.87493   0.03716   0.00000  Uiso   1.00
C600   C     0.61405   0.91627   0.05061   0.00000  Uiso   1.00
H601   H     0.58322   0.92255   0.08157   0.00000  Uiso   1.00
H602   H     0.61351   0.93828   0.02392   0.00000  Uiso   1.00
H603   H     0.64851   0.92167   0.05804   0.00000  Uiso   1.00
O604   O     0.38544   0.87005   0.46017   0.00000  Uiso   1.00
C605   C     0.38206   0.91154   0.44816   0.00000  Uiso   1.00
H606   H     0.41376   0.92027   0.41876   0.00000  Uiso   1.00
H607   H     0.37880   0.93299   0.47626   0.00000  Uiso   1.00
H608   H     0.34851   0.91519   0.43880   0.00000  Uiso   1.00
H609   H     0.44789   0.86284   0.11434   0.00000  Uiso   1.00
H610   H     0.55008   0.85968   0.38498   0.00000  Uiso   1.00
O611   O     0.64560   0.79622   0.11094   0.00000  Uiso   1.00
C612   C     0.60068   0.81129   0.10881   0.00000  Uiso   1.00
H613   H     0.59559   0.84468   0.11700   0.00000  Uiso   1.00
H614   H     0.57054   0.79474   0.13394   0.00000  Uiso   1.00
H615   H     0.59708   0.80453   0.07588   0.00000  Uiso   1.00
O616   O     0.36035   0.80632   0.39069   0.00000  Uiso   1.00
C617   C     0.35315   0.76335   0.39187   0.00000  Uiso   1.00
H618   H     0.38921   0.74823   0.37674   0.00000  Uiso   1.00
H619   H     0.66265   0.75413   0.37215   0.00000  Uiso   1.00
H620   H     0.33756   0.75193   0.42664   0.00000  Uiso   1.00
H621   H     0.51902   0.88109   0.07821   0.00000  Uiso   1.00
H622   H     0.47858   0.87671   0.42046   0.00000  Uiso   1.00
H623   H     0.59261   0.70394   0.24750   0.00000  Uiso   1.00
H624   H     0.40725   0.96273   0.25289   0.00000  Uiso   1.00
C625   C     0.99995   0.75414   0.25010   0.00000  Uiso   1.00
C626   C     0.66668   0.91253   0.25001   0.00000  Uiso   1.00
C627   C     0.86107   0.87481   0.04328   0.00000  Uiso   1.00
C628   C     0.80320   0.87195   0.45566   0.00000  Uiso   1.00
C629   C     0.91036   0.86932   0.01845   0.00000  Uiso   1.00
C630   C     0.75404   0.86655   0.48043   0.00000  Uiso   1.00
C631   C     0.95840   0.68795   0.24872   0.00000  Uiso   1.00
C632   C     0.70812   0.97872   0.25168   0.00000  Uiso   1.00
C633   C     0.95844   0.97868   0.24866   0.00000  Uiso   1.00
C634   C     0.70808   0.68799   0.25177   0.00000  Uiso   1.00
C635   C     0.99998   0.95721   0.25011   0.00000  Uiso   1.00
C636   C     0.99991   0.70946   0.25022   0.00000  Uiso   1.00
C637   C     0.84756   0.80925   0.27898   0.00000  Uiso   1.00
C638   C     0.81912   0.85738   0.22097   0.00000  Uiso   1.00
C639   C     0.79822   0.80923   0.27894   0.00000  Uiso   1.00
C640   C     0.86845   0.85742   0.22104   0.00000  Uiso   1.00
C641   C     0.97136   0.83374   0.33565   0.00000  Uiso   1.00
C642   C     0.69525   0.83359   0.16437   0.00000  Uiso   1.00
C643   C     0.95315   0.83729   0.38405   0.00000  Uiso   1.00
C644   C     0.71277   0.83727   0.11601   0.00000  Uiso   1.00
C645   C     0.96613   0.83396   0.45458   0.00000  Uiso   1.00
C646   C     0.69778   0.83306   0.04633   0.00000  Uiso   1.00
C647   C     0.98200   0.82502   0.40960   0.00000  Uiso   1.00
C648   C     0.68340   0.82376   0.09156   0.00000  Uiso   1.00
C649   C     0.90598   0.85314   0.40521   0.00000  Uiso   1.00
C650   C     0.75868   0.85504   0.09442   0.00000  Uiso   1.00
C651   C     0.88906   0.86038   0.45140   0.00000  Uiso   1.00
C652   C     0.77498   0.86139   0.04814   0.00000  Uiso   1.00
C653   C     0.92233   0.85492   0.47482   0.00000  Uiso   1.00
C654   C     0.74145   0.85442   0.02508   0.00000  Uiso   1.00
C655   C     0.83941   0.86884   0.47598   0.00000  Uiso   1.00
C656   C     0.82467   0.86983   0.02322   0.00000  Uiso   1.00
Cu657  Cu    0.71355   0.83334   0.25000   0.00000  Uiso   1.00
Cu658  Cu    0.95311   0.83333   0.25000   0.00000  Uiso   1.00
H659   H     0.98740   0.82255   0.47364   0.00000  Uiso   1.00
H660   H     0.67682   0.82023   0.02762   0.00000  Uiso   1.00
H661   H     0.92600   0.96267   0.24739   0.00000  Uiso   1.00
H662   H     0.74050   0.70401   0.25306   0.00000  Uiso   1.00
H663   H     0.85750   0.78983   0.30229   0.00000  Uiso   1.00
H664   H     0.80920   0.87675   0.19761   0.00000  Uiso   1.00
H665   H     0.77151   0.78972   0.30216   0.00000  Uiso   1.00
H666   H     0.89517   0.87692   0.19779   0.00000  Uiso   1.00
N667   N     0.78403   0.83334   0.24999   0.00000  Uiso   1.00
N668   N     0.88264   0.83332   0.25001   0.00000  Uiso   1.00
O669   O     0.70625   0.77322   0.25000   0.00000  Uiso   1.00
O670   O     0.96042   0.89345   0.25000   0.00000  Uiso   1.00
O671   O     0.96039   0.77321   0.25001   0.00000  Uiso   1.00
O672   O     0.70628   0.89346   0.25000   0.00000  Uiso   1.00
O673   O     0.68519   0.83334   0.31492   0.00000  Uiso   1.00
O674   O     0.98148   0.83332   0.18509   0.00000  Uiso   1.00
O675   O     0.93933   0.83333   0.31492   0.00000  Uiso   1.00
O676   O     0.72733   0.83333   0.18508   0.00000  Uiso   1.00
O677   O     0.94684   0.87493   0.03716   0.00000  Uiso   1.00
C678   C     0.94739   0.91627   0.05061   0.00000  Uiso   1.00
H679   H     0.91655   0.92255   0.08157   0.00000  Uiso   1.00
H680   H     0.94684   0.93828   0.02392   0.00000  Uiso   1.00
H681   H     0.98184   0.92167   0.05804   0.00000  Uiso   1.00
O682   O     0.71878   0.87005   0.46017   0.00000  Uiso   1.00
C683   C     0.71540   0.91154   0.44816   0.00000  Uiso   1.00
H684   H     0.74710   0.92027   0.41876   0.00000  Uiso   1.00
H685   H     0.71213   0.93299   0.47626   0.00000  Uiso   1.00
H686   H     0.68185   0.91519   0.43880   0.00000  Uiso   1.00
H687   H     0.78122   0.86284   0.11434   0.00000  Uiso   1.00
H688   H     0.88342   0.85968   0.38498   0.00000  Uiso   1.00
O689   O     0.97893   0.79622   0.11094   0.00000  Uiso   1.00
C690   C     0.93401   0.81129   0.10881   0.00000  Uiso   1.00
H691   H     0.92892   0.84468   0.11700   0.00000  Uiso   1.00
H692   H     0.90387   0.79474   0.13394   0.00000  Uiso   1.00
H693   H     0.93041   0.80453   0.07588   0.00000  Uiso   1.00
O694   O     0.69368   0.80632   0.39069   0.00000  Uiso   1.00
C695   C     0.68648   0.76335   0.39187   0.00000  Uiso   1.00
H696   H     0.72255   0.74823   0.37674   0.00000  Uiso   1.00
H697   H     0.99599   0.75413   0.37215   0.00000  Uiso   1.00
H698   H     0.67089   0.75193   0.42664   0.00000  Uiso   1.00
H699   H     0.85235   0.88109   0.07821   0.00000  Uiso   1.00
H700   H     0.81191   0.87671   0.42046   0.00000  Uiso   1.00
H701   H     0.92594   0.70394   0.24750   0.00000  Uiso   1.00
H702   H     0.74058   0.96273   0.25289   0.00000  Uiso   1.00
C703   C     0.33328   0.08747   0.75010   0.00000  Uiso   1.00
C704   C     0.00001   0.24587   0.75001   0.00000  Uiso   1.00
C705   C     0.19440   0.20815   0.54328   0.00000  Uiso   1.00
C706   C     0.13654   0.20529   0.95566   0.00000  Uiso   1.00
C707   C     0.24370   0.20266   0.51845   0.00000  Uiso   1.00
C708   C     0.08738   0.19989   0.98043   0.00000  Uiso   1.00
C709   C     0.29173   0.02129   0.74872   0.00000  Uiso   1.00
C710   C     0.04145   0.31205   0.75168   0.00000  Uiso   1.00
C711   C     0.29177   0.31202   0.74866   0.00000  Uiso   1.00
C712   C     0.04141   0.02132   0.75177   0.00000  Uiso   1.00
C713   C     0.33331   0.29054   0.75011   0.00000  Uiso   1.00
C714   C     0.33324   0.04279   0.75022   0.00000  Uiso   1.00
C715   C     0.18089   0.14258   0.77898   0.00000  Uiso   1.00
C716   C     0.15246   0.19071   0.72097   0.00000  Uiso   1.00
C717   C     0.13155   0.14257   0.77894   0.00000  Uiso   1.00
C718   C     0.20179   0.19076   0.72104   0.00000  Uiso   1.00
C719   C     0.30469   0.16707   0.83565   0.00000  Uiso   1.00
C720   C     0.02858   0.16693   0.66437   0.00000  Uiso   1.00
C721   C     0.28648   0.17062   0.88405   0.00000  Uiso   1.00
C722   C     0.04610   0.17061   0.61601   0.00000  Uiso   1.00
C723   C     0.29946   0.16729   0.95458   0.00000  Uiso   1.00
C724   C     0.03111   0.16640   0.54633   0.00000  Uiso   1.00
C725   C     0.31533   0.15835   0.90960   0.00000  Uiso   1.00
C726   C     0.01673   0.15710   0.59156   0.00000  Uiso   1.00
C727   C     0.23932   0.18648   0.90521   0.00000  Uiso   1.00
C728   C     0.09201   0.18837   0.59442   0.00000  Uiso   1.00
C729   C     0.22240   0.19371   0.95140   0.00000  Uiso   1.00
C730   C     0.10831   0.19472   0.54814   0.00000  Uiso   1.00
C731   C     0.25567   0.18826   0.97482   0.00000  Uiso   1.00
C732   C     0.07479   0.18776   0.52508   0.00000  Uiso   1.00
C733   C     0.17274   0.20217   0.97598   0.00000  Uiso   1.00
C734   C     0.15800   0.20317   0.52322   0.00000  Uiso   1.00
Cu735  Cu    0.04689   0.16667   0.75000   0.00000  Uiso   1.00
Cu736  Cu    0.28645   0.16666   0.75000   0.00000  Uiso   1.00
H737   H     0.32074   0.15588   0.97364   0.00000  Uiso   1.00
H738   H     0.01016   0.15357   0.52762   0.00000  Uiso   1.00
H739   H     0.25933   0.29600   0.74739   0.00000  Uiso   1.00
H740   H     0.07383   0.03734   0.75306   0.00000  Uiso   1.00
H741   H     0.19084   0.12316   0.80229   0.00000  Uiso   1.00
H742   H     0.14254   0.21009   0.69761   0.00000  Uiso   1.00
H743   H     0.10484   0.12305   0.80216   0.00000  Uiso   1.00
H744   H     0.22851   0.21025   0.69779   0.00000  Uiso   1.00
N745   N     0.11736   0.16668   0.74999   0.00000  Uiso   1.00
N746   N     0.21597   0.16666   0.75001   0.00000  Uiso   1.00
O747   O     0.03958   0.10655   0.75000   0.00000  Uiso   1.00
O748   O     0.29375   0.22678   0.75000   0.00000  Uiso   1.00
O749   O     0.29372   0.10654   0.75001   0.00000  Uiso   1.00
O750   O     0.03961   0.22679   0.75000   0.00000  Uiso   1.00
O751   O     0.01852   0.16668   0.81492   0.00000  Uiso   1.00
O752   O     0.31481   0.16666   0.68509   0.00000  Uiso   1.00
O753   O     0.27267   0.16667   0.81492   0.00000  Uiso   1.00
O754   O     0.06067   0.16667   0.68508   0.00000  Uiso   1.00
O755   O     0.28018   0.20826   0.53716   0.00000  Uiso   1.00
C756   C     0.28072   0.24960   0.55061   0.00000  Uiso   1.00
H757   H     0.24989   0.25588   0.58157   0.00000  Uiso   1.00
H758   H     0.28018   0.27161   0.52392   0.00000  Uiso   1.00
H759   H     0.31518   0.25501   0.55804   0.00000  Uiso   1.00
O760   O     0.05211   0.20338   0.96017   0.00000  Uiso   1.00
C761   C     0.04873   0.24487   0.94816   0.00000  Uiso   1.00
H762   H     0.08043   0.25360   0.91876   0.00000  Uiso   1.00
H763   H     0.04546   0.26632   0.97626   0.00000  Uiso   1.00
H764   H     0.01518   0.24852   0.93880   0.00000  Uiso   1.00
H765   H     0.11455   0.19618   0.61434   0.00000  Uiso   1.00
H766   H     0.21675   0.19301   0.88498   0.00000  Uiso   1.00
O767   O     0.31226   0.12955   0.61094   0.00000  Uiso   1.00
C768   C     0.26734   0.14462   0.60881   0.00000  Uiso   1.00
H769   H     0.26225   0.17801   0.61700   0.00000  Uiso   1.00
H770   H     0.23721   0.12807   0.63394   0.00000  Uiso   1.00
H771   H     0.26375   0.13786   0.57588   0.00000  Uiso   1.00
O772   O     0.02702   0.13965   0.89069   0.00000  Uiso   1.00
C773   C     0.01981   0.09668   0.89187   0.00000  Uiso   1.00
H774   H     0.05588   0.08156   0.87674   0.00000  Uiso   1.00
H775   H     0.32932   0.08747   0.87215   0.00000  Uiso   1.00
H776   H     0.00423   0.08526   0.92664   0.00000  Uiso   1.00
H777   H     0.18569   0.21442   0.57821   0.00000  Uiso   1.00
H778   H     0.14524   0.21004   0.92046   0.00000  Uiso   1.00
H779   H     0.25927   0.03727   0.74750   0.00000  Uiso   1.00
H780   H     0.07392   0.29607   0.75289   0.00000  Uiso   1.00
C781   C     0.66661   0.08747   0.75010   0.00000  Uiso   1.00
C782   C     0.33335   0.24587   0.75001   0.00000  Uiso   1.00
C783   C     0.52774   0.20815   0.54328   0.00000  Uiso   1.00
C784   C     0.46987   0.20529   0.95566   0.00000  Uiso   1.00
C785   C     0.57703   0.20266   0.51845   0.00000  Uiso   1.00
C786   C     0.42071   0.19989   0.98043   0.00000  Uiso   1.00
C787   C     0.62507   0.02129   0.74872   0.00000  Uiso   1.00
C788   C     0.37479   0.31205   0.75168   0.00000  Uiso   1.00
C789   C     0.62510   0.31202   0.74866   0.00000  Uiso   1.00
C790   C     0.37474   0.02132   0.75177   0.00000  Uiso   1.00
C791   C     0.66664   0.29054   0.75011   0.00000  Uiso   1.00
C792   C     0.66658   0.04279   0.75022   0.00000  Uiso   1.00
C793   C     0.51423   0.14258   0.77898   0.00000  Uiso   1.00
C794   C     0.48579   0.19071   0.72097   0.00000  Uiso   1.00
C795   C     0.46489   0.14257   0.77894   0.00000  Uiso   1.00
C796   C     0.53512   0.19076   0.72104   0.00000  Uiso   1.00
C797   C     0.63803   0.16707   0.83565   0.00000  Uiso   1.00
C798   C     0.36192   0.16693   0.66437   0.00000  Uiso   1.00
C799   C     0.61982   0.17062   0.88405   0.00000  Uiso   1.00
C800   C     0.37943   0.17061   0.61601   0.00000  Uiso   1.00
C801   C     0.63279   0.16729   0.95458   0.00000  Uiso   1.00
C802   C     0.36444   0.16640   0.54633   0.00000  Uiso   1.00
C803   C     0.64866   0.15835   0.90960   0.00000  Uiso   1.00
C804   C     0.35006   0.15710   0.59156   0.00000  Uiso   1.00
C805   C     0.57265   0.18648   0.90521   0.00000  Uiso   1.00
C806   C     0.42534   0.18837   0.59442   0.00000  Uiso   1.00
C807   C     0.55573   0.19371   0.95140   0.00000  Uiso   1.00
C808   C     0.44165   0.19472   0.54814   0.00000  Uiso   1.00
C809   C     0.58900   0.18826   0.97482   0.00000  Uiso   1.00
C810   C     0.40812   0.18776   0.52508   0.00000  Uiso   1.00
C811   C     0.50608   0.20217   0.97598   0.00000  Uiso   1.00
C812   C     0.49133   0.20317   0.52322   0.00000  Uiso   1.00
Cu813  Cu    0.38022   0.16667   0.75000   0.00000  Uiso   1.00
Cu814  Cu    0.61978   0.16666   0.75000   0.00000  Uiso   1.00
H815   H     0.65407   0.15588   0.97364   0.00000  Uiso   1.00
H816   H     0.34349   0.15357   0.52762   0.00000  Uiso   1.00
H817   H     0.59267   0.29600   0.74739   0.00000  Uiso   1.00
H818   H     0.40717   0.03734   0.75306   0.00000  Uiso   1.00
H819   H     0.52417   0.12316   0.80229   0.00000  Uiso   1.00
H820   H     0.47587   0.21009   0.69761   0.00000  Uiso   1.00
H821   H     0.43818   0.12305   0.80216   0.00000  Uiso   1.00
H822   H     0.56184   0.21025   0.69779   0.00000  Uiso   1.00
N823   N     0.45069   0.16668   0.74999   0.00000  Uiso   1.00
N824   N     0.54931   0.16666   0.75001   0.00000  Uiso   1.00
O825   O     0.37291   0.10655   0.75000   0.00000  Uiso   1.00
O826   O     0.62709   0.22678   0.75000   0.00000  Uiso   1.00
O827   O     0.62706   0.10654   0.75001   0.00000  Uiso   1.00
O828   O     0.37294   0.22679   0.75000   0.00000  Uiso   1.00
O829   O     0.35186   0.16668   0.81492   0.00000  Uiso   1.00
O830   O     0.64814   0.16666   0.68509   0.00000  Uiso   1.00
O831   O     0.60600   0.16667   0.81492   0.00000  Uiso   1.00
O832   O     0.39400   0.16667   0.68508   0.00000  Uiso   1.00
O833   O     0.61351   0.20826   0.53716   0.00000  Uiso   1.00
C834   C     0.61405   0.24960   0.55061   0.00000  Uiso   1.00
H835   H     0.58322   0.25588   0.58157   0.00000  Uiso   1.00
H836   H     0.61351   0.27161   0.52392   0.00000  Uiso   1.00
H837   H     0.64851   0.25501   0.55804   0.00000  Uiso   1.00
O838   O     0.38544   0.20338   0.96017   0.00000  Uiso   1.00
C839   C     0.38206   0.24487   0.94816   0.00000  Uiso   1.00
H840   H     0.41376   0.25360   0.91876   0.00000  Uiso   1.00
H841   H     0.37880   0.26632   0.97626   0.00000  Uiso   1.00
H842   H     0.34851   0.24852   0.93880   0.00000  Uiso   1.00
H843   H     0.44789   0.19618   0.61434   0.00000  Uiso   1.00
H844   H     0.55008   0.19301   0.88498   0.00000  Uiso   1.00
O845   O     0.64560   0.12955   0.61094   0.00000  Uiso   1.00
C846   C     0.60068   0.14462   0.60881   0.00000  Uiso   1.00
H847   H     0.59559   0.17801   0.61700   0.00000  Uiso   1.00
H848   H     0.57054   0.12807   0.63394   0.00000  Uiso   1.00
H849   H     0.59708   0.13786   0.57588   0.00000  Uiso   1.00
O850   O     0.36035   0.13965   0.89069   0.00000  Uiso   1.00
C851   C     0.35315   0.09668   0.89187   0.00000  Uiso   1.00
H852   H     0.38921   0.08156   0.87674   0.00000  Uiso   1.00
H853   H     0.66265   0.08747   0.87215   0.00000  Uiso   1.00
H854   H     0.33756   0.08526   0.92664   0.00000  Uiso   1.00
H855   H     0.51902   0.21442   0.57821   0.00000  Uiso   1.00
H856   H     0.47858   0.21004   0.92046   0.00000  Uiso   1.00
H857   H     0.59261   0.03727   0.74750   0.00000  Uiso   1.00
H858   H     0.40725   0.29607   0.75289   0.00000  Uiso   1.00
C859   C     0.99995   0.08747   0.75010   0.00000  Uiso   1.00
C860   C     0.66668   0.24587   0.75001   0.00000  Uiso   1.00
C861   C     0.86107   0.20815   0.54328   0.00000  Uiso   1.00
C862   C     0.80320   0.20529   0.95566   0.00000  Uiso   1.00
C863   C     0.91036   0.20266   0.51845   0.00000  Uiso   1.00
C864   C     0.75404   0.19989   0.98043   0.00000  Uiso   1.00
C865   C     0.95840   0.02129   0.74872   0.00000  Uiso   1.00
C866   C     0.70812   0.31205   0.75168   0.00000  Uiso   1.00
C867   C     0.95844   0.31202   0.74866   0.00000  Uiso   1.00
C868   C     0.70808   0.02132   0.75177   0.00000  Uiso   1.00
C869   C     0.99998   0.29054   0.75011   0.00000  Uiso   1.00
C870   C     0.99991   0.04279   0.75022   0.00000  Uiso   1.00
C871   C     0.84756   0.14258   0.77898   0.00000  Uiso   1.00
C872   C     0.81912   0.19071   0.72097   0.00000  Uiso   1.00
C873   C     0.79822   0.14257   0.77894   0.00000  Uiso   1.00
C874   C     0.86845   0.19076   0.72104   0.00000  Uiso   1.00
C875   C     0.97136   0.16707   0.83565   0.00000  Uiso   1.00
C876   C     0.69525   0.16693   0.66437   0.00000  Uiso   1.00
C877   C     0.95315   0.17062   0.88405   0.00000  Uiso   1.00
C878   C     0.71277   0.17061   0.61601   0.00000  Uiso   1.00
C879   C     0.96613   0.16729   0.95458   0.00000  Uiso   1.00
C880   C     0.69778   0.16640   0.54633   0.00000  Uiso   1.00
C881   C     0.98200   0.15835   0.90960   0.00000  Uiso   1.00
C882   C     0.68340   0.15710   0.59156   0.00000  Uiso   1.00
C883   C     0.90598   0.18648   0.90521   0.00000  Uiso   1.00
C884   C     0.75868   0.18837   0.59442   0.00000  Uiso   1.00
C885   C     0.88906   0.19371   0.95140   0.00000  Uiso   1.00
C886   C     0.77498   0.19472   0.54814   0.00000  Uiso   1.00
C887   C     0.92233   0.18826   0.97482   0.00000  Uiso   1.00
C888   C     0.74145   0.18776   0.52508   0.00000  Uiso   1.00
C889   C     0.83941   0.20217   0.97598   0.00000  Uiso   1.00
C890   C     0.82467   0.20317   0.52322   0.00000  Uiso   1.00
Cu891  Cu    0.71355   0.16667   0.75000   0.00000  Uiso   1.00
Cu892  Cu    0.95311   0.16666   0.75000   0.00000  Uiso   1.00
H893   H     0.98740   0.15588   0.97364   0.00000  Uiso   1.00
H894   H     0.67682   0.15357   0.52762   0.00000  Uiso   1.00
H895   H     0.92600   0.29600   0.74739   0.00000  Uiso   1.00
H896   H     0.74050   0.03734   0.75306   0.00000  Uiso   1.00
H897   H     0.85750   0.12316   0.80229   0.00000  Uiso   1.00
H898   H     0.80920   0.21009   0.69761   0.00000  Uiso   1.00
H899   H     0.77151   0.12305   0.80216   0.00000  Uiso   1.00
H900   H     0.89517   0.21025   0.69779   0.00000  Uiso   1.00
N901   N     0.78403   0.16668   0.74999   0.00000  Uiso   1.00
N902   N     0.88264   0.16666   0.75001   0.00000  Uiso   1.00
O903   O     0.70625   0.10655   0.75000   0.00000  Uiso   1.00
O904   O     0.96042   0.22678   0.75000   0.00000  Uiso   1.00
O905   O     0.96039   0.10654   0.75001   0.00000  Uiso   1.00
O906   O     0.70628   0.22679   0.75000   0.00000  Uiso   1.00
O907   O     0.68519   0.16668   0.81492   0.00000  Uiso   1.00
O908   O     0.98148   0.16666   0.68509   0.00000  Uiso   1.00
O909   O     0.93933   0.16667   0.81492   0.00000  Uiso   1.00
O910   O     0.72733   0.16667   0.68508   0.00000  Uiso   1.00
O911   O     0.94684   0.20826   0.53716   0.00000  Uiso   1.00
C912   C     0.94739   0.24960   0.55061   0.00000  Uiso   1.00
H913   H     0.91655   0.25588   0.58157   0.00000  Uiso   1.00
H914   H     0.94684   0.27161   0.52392   0.00000  Uiso   1.00
H915   H     0.98184   0.25501   0.55804   0.00000  Uiso   1.00
O916   O     0.71878   0.20338   0.96017   0.00000  Uiso   1.00
C917   C     0.71540   0.24487   0.94816   0.00000  Uiso   1.00
H918   H     0.74710   0.25360   0.91876   0.00000  Uiso   1.00
H919   H     0.71213   0.26632   0.97626   0.00000  Uiso   1.00
H920   H     0.68185   0.24852   0.93880   0.00000  Uiso   1.00
H921   H     0.78122   0.19618   0.61434   0.00000  Uiso   1.00
H922   H     0.88342   0.19301   0.88498   0.00000  Uiso   1.00
O923   O     0.97893   0.12955   0.61094   0.00000  Uiso   1.00
C924   C     0.93401   0.14462   0.60881   0.00000  Uiso   1.00
H925   H     0.92892   0.17801   0.61700   0.00000  Uiso   1.00
H926   H     0.90387   0.12807   0.63394   0.00000  Uiso   1.00
H927   H     0.93041   0.13786   0.57588   0.00000  Uiso   1.00
O928   O     0.69368   0.13965   0.89069   0.00000  Uiso   1.00
C929   C     0.68648   0.09668   0.89187   0.00000  Uiso   1.00
H930   H     0.72255   0.08156   0.87674   0.00000  Uiso   1.00
H931   H     0.99599   0.08747   0.87215   0.00000  Uiso   1.00
H932   H     0.67089   0.08526   0.92664   0.00000  Uiso   1.00
H933   H     0.85235   0.21442   0.57821   0.00000  Uiso   1.00
H934   H     0.81191   0.21004   0.92046   0.00000  Uiso   1.00
H935   H     0.92594   0.03727   0.74750   0.00000  Uiso   1.00
H936   H     0.74058   0.29607   0.75289   0.00000  Uiso   1.00
C937   C     0.33328   0.42080   0.75010   0.00000  Uiso   1.00
C938   C     0.00001   0.57920   0.75001   0.00000  Uiso   1.00
C939   C     0.19440   0.54148   0.54328   0.00000  Uiso   1.00
C940   C     0.13654   0.53862   0.95566   0.00000  Uiso   1.00
C941   C     0.24370   0.53599   0.51845   0.00000  Uiso   1.00
C942   C     0.08738   0.53322   0.98043   0.00000  Uiso   1.00
C943   C     0.29173   0.35462   0.74872   0.00000  Uiso   1.00
C944   C     0.04145   0.64539   0.75168   0.00000  Uiso   1.00
C945   C     0.29177   0.64535   0.74866   0.00000  Uiso   1.00
C946   C     0.04141   0.35466   0.75177   0.00000  Uiso   1.00
C947   C     0.33331   0.62388   0.75011   0.00000  Uiso   1.00
C948   C     0.33324   0.37613   0.75022   0.00000  Uiso   1.00
C949   C     0.18089   0.47592   0.77898   0.00000  Uiso   1.00
C950   C     0.15246   0.52404   0.72097   0.00000  Uiso   1.00
C951   C     0.13155   0.47590   0.77894   0.00000  Uiso   1.00
C952   C     0.20179   0.52409   0.72104   0.00000  Uiso   1.00
C953   C     0.30469   0.50041   0.83565   0.00000  Uiso   1.00
C954   C     0.02858   0.50026   0.66437   0.00000  Uiso   1.00
C955   C     0.28648   0.50396   0.88405   0.00000  Uiso   1.00
C956   C     0.04610   0.50394   0.61601   0.00000  Uiso   1.00
C957   C     0.29946   0.50062   0.95458   0.00000  Uiso   1.00
C958   C     0.03111   0.49973   0.54633   0.00000  Uiso   1.00
C959   C     0.31533   0.49168   0.90960   0.00000  Uiso   1.00
C960   C     0.01673   0.49043   0.59156   0.00000  Uiso   1.00
C961   C     0.23932   0.51981   0.90521   0.00000  Uiso   1.00
C962   C     0.09201   0.52170   0.59442   0.00000  Uiso   1.00
C963   C     0.22240   0.52705   0.95140   0.00000  Uiso   1.00
C964   C     0.10831   0.52806   0.54814   0.00000  Uiso   1.00
C965   C     0.25567   0.52159   0.97482   0.00000  Uiso   1.00
C966   C     0.07479   0.52109   0.52508   0.00000  Uiso   1.00
C967   C     0.17274   0.53550   0.97598   0.00000  Uiso   1.00
C968   C     0.15800   0.53650   0.52322   0.00000  Uiso   1.00
Cu969  Cu    0.04689   0.50001   0.75000   0.00000  Uiso   1.00
Cu970  Cu    0.28645   0.49999   0.75000   0.00000  Uiso   1.00
H971   H     0.32074   0.48922   0.97364   0.00000  Uiso   1.00
H972   H     0.01016   0.48690   0.52762   0.00000  Uiso   1.00
H973   H     0.25933   0.62933   0.74739   0.00000  Uiso   1.00
H974   H     0.07383   0.37067   0.75306   0.00000  Uiso   1.00
H975   H     0.19084   0.45649   0.80229   0.00000  Uiso   1.00
H976   H     0.14254   0.54342   0.69761   0.00000  Uiso   1.00
H977   H     0.10484   0.45639   0.80216   0.00000  Uiso   1.00
H978   H     0.22851   0.54359   0.69779   0.00000  Uiso   1.00
N979   N     0.11736   0.50001   0.74999   0.00000  Uiso   1.00
N980   N     0.21597   0.49999   0.75001   0.00000  Uiso   1.00
O981   O     0.03958   0.43989   0.75000   0.00000  Uiso   1.00
O982   O     0.29375   0.56011   0.75000   0.00000  Uiso   1.00
O983   O     0.29372   0.43988   0.75001   0.00000  Uiso   1.00
O984   O     0.03961   0.56012   0.75000   0.00000  Uiso   1.00
O985   O     0.01852   0.50001   0.81492   0.00000  Uiso   1.00
O986   O     0.31481   0.49999   0.68509   0.00000  Uiso   1.00
O987   O     0.27267   0.50000   0.81492   0.00000  Uiso   1.00
O988   O     0.06067   0.50000   0.68508   0.00000  Uiso   1.00
O989   O     0.28018   0.54160   0.53716   0.00000  Uiso   1.00
C990   C     0.28072   0.58294   0.55061   0.00000  Uiso   1.00
H991   H     0.24989   0.58922   0.58157   0.00000  Uiso   1.00
H992   H     0.28018   0.60495   0.52392   0.00000  Uiso   1.00
H993   H     0.31518   0.58834   0.55804   0.00000  Uiso   1.00
O994   O     0.05211   0.53672   0.96017   0.00000  Uiso   1.00
C995   C     0.04873   0.57821   0.94816   0.00000  Uiso   1.00
H996   H     0.08043   0.58694   0.91876   0.00000  Uiso   1.00
H997   H     0.04546   0.59966   0.97626   0.00000  Uiso   1.00
H998   H     0.01518   0.58186   0.93880   0.00000  Uiso   1.00
H999   H     0.11455   0.52951   0.61434   0.00000  Uiso   1.00
H1000  H     0.21675   0.52634   0.88498   0.00000  Uiso   1.00
O1001  O     0.31226   0.46288   0.61094   0.00000  Uiso   1.00
C1002  C     0.26734   0.47796   0.60881   0.00000  Uiso   1.00
H1003  H     0.26225   0.51134   0.61700   0.00000  Uiso   1.00
H1004  H     0.23721   0.46141   0.63394   0.00000  Uiso   1.00
H1005  H     0.26375   0.47120   0.57588   0.00000  Uiso   1.00
O1006  O     0.02702   0.47299   0.89069   0.00000  Uiso   1.00
C1007  C     0.01981   0.43001   0.89187   0.00000  Uiso   1.00
H1008  H     0.05588   0.41489   0.87674   0.00000  Uiso   1.00
H1009  H     0.32932   0.42080   0.87215   0.00000  Uiso   1.00
H1010  H     0.00423   0.41859   0.92664   0.00000  Uiso   1.00
H1011  H     0.18569   0.54775   0.57821   0.00000  Uiso   1.00
H1012  H     0.14524   0.54338   0.92046   0.00000  Uiso   1.00
H1013  H     0.25927   0.37060   0.74750   0.00000  Uiso   1.00
H1014  H     0.07392   0.62940   0.75289   0.00000  Uiso   1.00
C1015  C     0.66661   0.42080   0.75010   0.00000  Uiso   1.00
C1016  C     0.33335   0.57920   0.75001   0.00000  Uiso   1.00
C1017  C     0.52774   0.54148   0.54328   0.00000  Uiso   1.00
C1018  C     0.46987   0.53862   0.95566   0.00000  Uiso   1.00
C1019  C     0.57703   0.53599   0.51845   0.00000  Uiso   1.00
C1020  C     0.42071   0.53322   0.98043   0.00000  Uiso   1.00
C1021  C     0.62507   0.35462   0.74872   0.00000  Uiso   1.00
C1022  C     0.37479   0.64539   0.75168   0.00000  Uiso   1.00
C1023  C     0.62510   0.64535   0.74866   0.00000  Uiso   1.00
C1024  C     0.37474   0.35466   0.75177   0.00000  Uiso   1.00
C1025  C     0.66664   0.62388   0.75011   0.00000  Uiso   1.00
C1026  C     0.66658   0.37613   0.75022   0.00000  Uiso   1.00
C1027  C     0.51423   0.47592   0.77898   0.00000  Uiso   1.00
C1028  C     0.48579   0.52404   0.72097   0.00000  Uiso   1.00
C1029  C     0.46489   0.47590   0.77894   0.00000  Uiso   1.00
C1030  C     0.53512   0.52409   0.72104   0.00000  Uiso   1.00
C1031  C     0.63803   0.50041   0.83565   0.00000  Uiso   1.00
C1032  C     0.36192   0.50026   0.66437   0.00000  Uiso   1.00
C1033  C     0.61982   0.50396   0.88405   0.00000  Uiso   1.00
C1034  C     0.37943   0.50394   0.61601   0.00000  Uiso   1.00
C1035  C     0.63279   0.50062   0.95458   0.00000  Uiso   1.00
C1036  C     0.36444   0.49973   0.54633   0.00000  Uiso   1.00
C1037  C     0.64866   0.49168   0.90960   0.00000  Uiso   1.00
C1038  C     0.35006   0.49043   0.59156   0.00000  Uiso   1.00
C1039  C     0.57265   0.51981   0.90521   0.00000  Uiso   1.00
C1040  C     0.42534   0.52170   0.59442   0.00000  Uiso   1.00
C1041  C     0.55573   0.52705   0.95140   0.00000  Uiso   1.00
C1042  C     0.44165   0.52806   0.54814   0.00000  Uiso   1.00
C1043  C     0.58900   0.52159   0.97482   0.00000  Uiso   1.00
C1044  C     0.40812   0.52109   0.52508   0.00000  Uiso   1.00
C1045  C     0.50608   0.53550   0.97598   0.00000  Uiso   1.00
C1046  C     0.49133   0.53650   0.52322   0.00000  Uiso   1.00
Cu1047 Cu    0.38022   0.50001   0.75000   0.00000  Uiso   1.00
Cu1048 Cu    0.61978   0.49999   0.75000   0.00000  Uiso   1.00
H1049  H     0.65407   0.48922   0.97364   0.00000  Uiso   1.00
H1050  H     0.34349   0.48690   0.52762   0.00000  Uiso   1.00
H1051  H     0.59267   0.62933   0.74739   0.00000  Uiso   1.00
H1052  H     0.40717   0.37067   0.75306   0.00000  Uiso   1.00
H1053  H     0.52417   0.45649   0.80229   0.00000  Uiso   1.00
H1054  H     0.47587   0.54342   0.69761   0.00000  Uiso   1.00
H1055  H     0.43818   0.45639   0.80216   0.00000  Uiso   1.00
H1056  H     0.56184   0.54359   0.69779   0.00000  Uiso   1.00
N1057  N     0.45069   0.50001   0.74999   0.00000  Uiso   1.00
N1058  N     0.54931   0.49999   0.75001   0.00000  Uiso   1.00
O1059  O     0.37291   0.43989   0.75000   0.00000  Uiso   1.00
O1060  O     0.62709   0.56011   0.75000   0.00000  Uiso   1.00
O1061  O     0.62706   0.43988   0.75001   0.00000  Uiso   1.00
O1062  O     0.37294   0.56012   0.75000   0.00000  Uiso   1.00
O1063  O     0.35186   0.50001   0.81492   0.00000  Uiso   1.00
O1064  O     0.64814   0.49999   0.68509   0.00000  Uiso   1.00
O1065  O     0.60600   0.50000   0.81492   0.00000  Uiso   1.00
O1066  O     0.39400   0.50000   0.68508   0.00000  Uiso   1.00
O1067  O     0.61351   0.54160   0.53716   0.00000  Uiso   1.00
C1068  C     0.61405   0.58294   0.55061   0.00000  Uiso   1.00
H1069  H     0.58322   0.58922   0.58157   0.00000  Uiso   1.00
H1070  H     0.61351   0.60495   0.52392   0.00000  Uiso   1.00
H1071  H     0.64851   0.58834   0.55804   0.00000  Uiso   1.00
O1072  O     0.38544   0.53672   0.96017   0.00000  Uiso   1.00
C1073  C     0.38206   0.57821   0.94816   0.00000  Uiso   1.00
H1074  H     0.41376   0.58694   0.91876   0.00000  Uiso   1.00
H1075  H     0.37880   0.59966   0.97626   0.00000  Uiso   1.00
H1076  H     0.34851   0.58186   0.93880   0.00000  Uiso   1.00
H1077  H     0.44789   0.52951   0.61434   0.00000  Uiso   1.00
H1078  H     0.55008   0.52634   0.88498   0.00000  Uiso   1.00
O1079  O     0.64560   0.46288   0.61094   0.00000  Uiso   1.00
C1080  C     0.60068   0.47796   0.60881   0.00000  Uiso   1.00
H1081  H     0.59559   0.51134   0.61700   0.00000  Uiso   1.00
H1082  H     0.57054   0.46141   0.63394   0.00000  Uiso   1.00
H1083  H     0.59708   0.47120   0.57588   0.00000  Uiso   1.00
O1084  O     0.36035   0.47299   0.89069   0.00000  Uiso   1.00
C1085  C     0.35315   0.43001   0.89187   0.00000  Uiso   1.00
H1086  H     0.38921   0.41489   0.87674   0.00000  Uiso   1.00
H1087  H     0.66265   0.42080   0.87215   0.00000  Uiso   1.00
H1088  H     0.33756   0.41859   0.92664   0.00000  Uiso   1.00
H1089  H     0.51902   0.54775   0.57821   0.00000  Uiso   1.00
H1090  H     0.47858   0.54338   0.92046   0.00000  Uiso   1.00
H1091  H     0.59261   0.37060   0.74750   0.00000  Uiso   1.00
H1092  H     0.40725   0.62940   0.75289   0.00000  Uiso   1.00
C1093  C     0.99995   0.42080   0.75010   0.00000  Uiso   1.00
C1094  C     0.66668   0.57920   0.75001   0.00000  Uiso   1.00
C1095  C     0.86107   0.54148   0.54328   0.00000  Uiso   1.00
C1096  C     0.80320   0.53862   0.95566   0.00000  Uiso   1.00
C1097  C     0.91036   0.53599   0.51845   0.00000  Uiso   1.00
C1098  C     0.75404   0.53322   0.98043   0.00000  Uiso   1.00
C1099  C     0.95840   0.35462   0.74872   0.00000  Uiso   1.00
C1100  C     0.70812   0.64539   0.75168   0.00000  Uiso   1.00
C1101  C     0.95844   0.64535   0.74866   0.00000  Uiso   1.00
C1102  C     0.70808   0.35466   0.75177   0.00000  Uiso   1.00
C1103  C     0.99998   0.62388   0.75011   0.00000  Uiso   1.00
C1104  C     0.99991   0.37613   0.75022   0.00000  Uiso   1.00
C1105  C     0.84756   0.47592   0.77898   0.00000  Uiso   1.00
C1106  C     0.81912   0.52404   0.72097   0.00000  Uiso   1.00
C1107  C     0.79822   0.47590   0.77894   0.00000  Uiso   1.00
C1108  C     0.86845   0.52409   0.72104   0.00000  Uiso   1.00
C1109  C     0.97136   0.50041   0.83565   0.00000  Uiso   1.00
C1110  C     0.69525   0.50026   0.66437   0.00000  Uiso   1.00
C1111  C     0.95315   0.50396   0.88405   0.00000  Uiso   1.00
C1112  C     0.71277   0.50394   0.61601   0.00000  Uiso   1.00
C1113  C     0.96613   0.50062   0.95458   0.00000  Uiso   1.00
C1114  C     0.69778   0.49973   0.54633   0.00000  Uiso   1.00
C1115  C     0.98200   0.49168   0.90960   0.00000  Uiso   1.00
C1116  C     0.68340   0.49043   0.59156   0.00000  Uiso   1.00
C1117  C     0.90598   0.51981   0.90521   0.00000  Uiso   1.00
C1118  C     0.75868   0.52170   0.59442   0.00000  Uiso   1.00
C1119  C     0.88906   0.52705   0.95140   0.00000  Uiso   1.00
C1120  C     0.77498   0.52806   0.54814   0.00000  Uiso   1.00
C1121  C     0.92233   0.52159   0.97482   0.00000  Uiso   1.00
C1122  C     0.74145   0.52109   0.52508   0.00000  Uiso   1.00
C1123  C     0.83941   0.53550   0.97598   0.00000  Uiso   1.00
C1124  C     0.82467   0.53650   0.52322   0.00000  Uiso   1.00
Cu1125 Cu    0.71355   0.50001   0.75000   0.00000  Uiso   1.00
Cu1126 Cu    0.95311   0.49999   0.75000   0.00000  Uiso   1.00
H1127  H     0.98740   0.48922   0.97364   0.00000  Uiso   1.00
H1128  H     0.67682   0.48690   0.52762   0.00000  Uiso   1.00
H1129  H     0.92600   0.62933   0.74739   0.00000  Uiso   1.00
H1130  H     0.74050   0.37067   0.75306   0.00000  Uiso   1.00
H1131  H     0.85750   0.45649   0.80229   0.00000  Uiso   1.00
H1132  H     0.80920   0.54342   0.69761   0.00000  Uiso   1.00
H1133  H     0.77151   0.45639   0.80216   0.00000  Uiso   1.00
H1134  H     0.89517   0.54359   0.69779   0.00000  Uiso   1.00
N1135  N     0.78403   0.50001   0.74999   0.00000  Uiso   1.00
N1136  N     0.88264   0.49999   0.75001   0.00000  Uiso   1.00
O1137  O     0.70625   0.43989   0.75000   0.00000  Uiso   1.00
O1138  O     0.96042   0.56011   0.75000   0.00000  Uiso   1.00
O1139  O     0.96039   0.43988   0.75001   0.00000  Uiso   1.00
O1140  O     0.70628   0.56012   0.75000   0.00000  Uiso   1.00
O1141  O     0.68519   0.50001   0.81492   0.00000  Uiso   1.00
O1142  O     0.98148   0.49999   0.68509   0.00000  Uiso   1.00
O1143  O     0.93933   0.50000   0.81492   0.00000  Uiso   1.00
O1144  O     0.72733   0.50000   0.68508   0.00000  Uiso   1.00
O1145  O     0.94684   0.54160   0.53716   0.00000  Uiso   1.00
C1146  C     0.94739   0.58294   0.55061   0.00000  Uiso   1.00
H1147  H     0.91655   0.58922   0.58157   0.00000  Uiso   1.00
H1148  H     0.94684   0.60495   0.52392   0.00000  Uiso   1.00
H1149  H     0.98184   0.58834   0.55804   0.00000  Uiso   1.00
O1150  O     0.71878   0.53672   0.96017   0.00000  Uiso   1.00
C1151  C     0.71540   0.57821   0.94816   0.00000  Uiso   1.00
H1152  H     0.74710   0.58694   0.91876   0.00000  Uiso   1.00
H1153  H     0.71213   0.59966   0.97626   0.00000  Uiso   1.00
H1154  H     0.68185   0.58186   0.93880   0.00000  Uiso   1.00
H1155  H     0.78122   0.52951   0.61434   0.00000  Uiso   1.00
H1156  H     0.88342   0.52634   0.88498   0.00000  Uiso   1.00
O1157  O     0.97893   0.46288   0.61094   0.00000  Uiso   1.00
C1158  C     0.93401   0.47796   0.60881   0.00000  Uiso   1.00
H1159  H     0.92892   0.51134   0.61700   0.00000  Uiso   1.00
H1160  H     0.90387   0.46141   0.63394   0.00000  Uiso   1.00
H1161  H     0.93041   0.47120   0.57588   0.00000  Uiso   1.00
O1162  O     0.69368   0.47299   0.89069   0.00000  Uiso   1.00
C1163  C     0.68648   0.43001   0.89187   0.00000  Uiso   1.00
H1164  H     0.72255   0.41489   0.87674   0.00000  Uiso   1.00
H1165  H     0.99599   0.42080   0.87215   0.00000  Uiso   1.00
H1166  H     0.67089   0.41859   0.92664   0.00000  Uiso   1.00
H1167  H     0.85235   0.54775   0.57821   0.00000  Uiso   1.00
H1168  H     0.81191   0.54338   0.92046   0.00000  Uiso   1.00
H1169  H     0.92594   0.37060   0.74750   0.00000  Uiso   1.00
H1170  H     0.74058   0.62940   0.75289   0.00000  Uiso   1.00
C1171  C     0.33328   0.75414   0.75010   0.00000  Uiso   1.00
C1172  C     0.00001   0.91253   0.75001   0.00000  Uiso   1.00
C1173  C     0.19440   0.87481   0.54328   0.00000  Uiso   1.00
C1174  C     0.13654   0.87195   0.95566   0.00000  Uiso   1.00
C1175  C     0.24370   0.86932   0.51845   0.00000  Uiso   1.00
C1176  C     0.08738   0.86655   0.98043   0.00000  Uiso   1.00
C1177  C     0.29173   0.68795   0.74872   0.00000  Uiso   1.00
C1178  C     0.04145   0.97872   0.75168   0.00000  Uiso   1.00
C1179  C     0.29177   0.97868   0.74866   0.00000  Uiso   1.00
C1180  C     0.04141   0.68799   0.75177   0.00000  Uiso   1.00
C1181  C     0.33331   0.95721   0.75011   0.00000  Uiso   1.00
C1182  C     0.33324   0.70946   0.75022   0.00000  Uiso   1.00
C1183  C     0.18089   0.80925   0.77898   0.00000  Uiso   1.00
C1184  C     0.15246   0.85738   0.72097   0.00000  Uiso   1.00
C1185  C     0.13155   0.80923   0.77894   0.00000  Uiso   1.00
C1186  C     0.20179   0.85742   0.72104   0.00000  Uiso   1.00
C1187  C     0.30469   0.83374   0.83565   0.00000  Uiso   1.00
C1188  C     0.02858   0.83359   0.66437   0.00000  Uiso   1.00
C1189  C     0.28648   0.83729   0.88405   0.00000  Uiso   1.00
C1190  C     0.04610   0.83727   0.61601   0.00000  Uiso   1.00
C1191  C     0.29946   0.83396   0.95458   0.00000  Uiso   1.00
C1192  C     0.03111   0.83306   0.54633   0.00000  Uiso   1.00
C1193  C     0.31533   0.82502   0.90960   0.00000  Uiso   1.00
C1194  C     0.01673   0.82376   0.59156   0.00000  Uiso   1.00
C1195  C     0.23932   0.85314   0.90521   0.00000  Uiso   1.00
C1196  C     0.09201   0.85504   0.59442   0.00000  Uiso   1.00
C1197  C     0.22240   0.86038   0.95140   0.00000  Uiso   1.00
C1198  C     0.10831   0.86139   0.54814   0.00000  Uiso   1.00
C1199  C     0.25567   0.85492   0.97482   0.00000  Uiso   1.00
C1200  C     0.07479   0.85442   0.52508   0.00000  Uiso   1.00
C1201  C     0.17274   0.86884   0.97598   0.00000  Uiso   1.00
C1202  C     0.15800   0.86983   0.52322   0.00000  Uiso   1.00
Cu1203 Cu    0.04689   0.83334   0.75000   0.00000  Uiso   1.00
Cu1204 Cu    0.28645   0.83333   0.75000   0.00000  Uiso   1.00
H1205  H     0.32074   0.82255   0.97364   0.00000  Uiso   1.00
H1206  H     0.01016   0.82023   0.52762   0.00000  Uiso   1.00
H1207  H     0.25933   0.96267   0.74739   0.00000  Uiso   1.00
H1208  H     0.07383   0.70401   0.75306   0.00000  Uiso   1.00
H1209  H     0.19084   0.78983   0.80229   0.00000  Uiso   1.00
H1210  H     0.14254   0.87675   0.69761   0.00000  Uiso   1.00
H1211  H     0.10484   0.78972   0.80216   0.00000  Uiso   1.00
H1212  H     0.22851   0.87692   0.69779   0.00000  Uiso   1.00
N1213  N     0.11736   0.83334   0.74999   0.00000  Uiso   1.00
N1214  N     0.21597   0.83332   0.75001   0.00000  Uiso   1.00
O1215  O     0.03958   0.77322   0.75000   0.00000  Uiso   1.00
O1216  O     0.29375   0.89345   0.75000   0.00000  Uiso   1.00
O1217  O     0.29372   0.77321   0.75001   0.00000  Uiso   1.00
O1218  O     0.03961   0.89346   0.75000   0.00000  Uiso   1.00
O1219  O     0.01852   0.83334   0.81492   0.00000  Uiso   1.00
O1220  O     0.31481   0.83332   0.68509   0.00000  Uiso   1.00
O1221  O     0.27267   0.83333   0.81492   0.00000  Uiso   1.00
O1222  O     0.06067   0.83333   0.68508   0.00000  Uiso   1.00
O1223  O     0.28018   0.87493   0.53716   0.00000  Uiso   1.00
C1224  C     0.28072   0.91627   0.55061   0.00000  Uiso   1.00
H1225  H     0.24989   0.92255   0.58157   0.00000  Uiso   1.00
H1226  H     0.28018   0.93828   0.52392   0.00000  Uiso   1.00
H1227  H     0.31518   0.92167   0.55804   0.00000  Uiso   1.00
O1228  O     0.05211   0.87005   0.96017   0.00000  Uiso   1.00
C1229  C     0.04873   0.91154   0.94816   0.00000  Uiso   1.00
H1230  H     0.08043   0.92027   0.91876   0.00000  Uiso   1.00
H1231  H     0.04546   0.93299   0.97626   0.00000  Uiso   1.00
H1232  H     0.01518   0.91519   0.93880   0.00000  Uiso   1.00
H1233  H     0.11455   0.86284   0.61434   0.00000  Uiso   1.00
H1234  H     0.21675   0.85968   0.88498   0.00000  Uiso   1.00
O1235  O     0.31226   0.79622   0.61094   0.00000  Uiso   1.00
C1236  C     0.26734   0.81129   0.60881   0.00000  Uiso   1.00
H1237  H     0.26225   0.84468   0.61700   0.00000  Uiso   1.00
H1238  H     0.23721   0.79474   0.63394   0.00000  Uiso   1.00
H1239  H     0.26375   0.80453   0.57588   0.00000  Uiso   1.00
O1240  O     0.02702   0.80632   0.89069   0.00000  Uiso   1.00
C1241  C     0.01981   0.76335   0.89187   0.00000  Uiso   1.00
H1242  H     0.05588   0.74823   0.87674   0.00000  Uiso   1.00
H1243  H     0.32932   0.75413   0.87215   0.00000  Uiso   1.00
H1244  H     0.00423   0.75193   0.92664   0.00000  Uiso   1.00
H1245  H     0.18569   0.88109   0.57821   0.00000  Uiso   1.00
H1246  H     0.14524   0.87671   0.92046   0.00000  Uiso   1.00
H1247  H     0.25927   0.70394   0.74750   0.00000  Uiso   1.00
H1248  H     0.07392   0.96273   0.75289   0.00000  Uiso   1.00
C1249  C     0.66661   0.75414   0.75010   0.00000  Uiso   1.00
C1250  C     0.33335   0.91253   0.75001   0.00000  Uiso   1.00
C1251  C     0.52774   0.87481   0.54328   0.00000  Uiso   1.00
C1252  C     0.46987   0.87195   0.95566   0.00000  Uiso   1.00
C1253  C     0.57703   0.86932   0.51845   0.00000  Uiso   1.00
C1254  C     0.42071   0.86655   0.98043   0.00000  Uiso   1.00
C1255  C     0.62507   0.68795   0.74872   0.00000  Uiso   1.00
C1256  C     0.37479   0.97872   0.75168   0.00000  Uiso   1.00
C1257  C     0.62510   0.97868   0.74866   0.00000  Uiso   1.00
C1258  C     0.37474   0.68799   0.75177   0.00000  Uiso   1.00
C1259  C     0.66664   0.95721   0.75011   0.00000  Uiso   1.00
C1260  C     0.66658   0.70946   0.75022   0.00000  Uiso   1.00
C1261  C     0.51423   0.80925   0.77898   0.00000  Uiso   1.00
C1262  C     0.48579   0.85738   0.72097   0.00000  Uiso   1.00
C1263  C     0.46489   0.80923   0.77894   0.00000  Uiso   1.00
C1264  C     0.53512   0.85742   0.72104   0.00000  Uiso   1.00
C1265  C     0.63803   0.83374   0.83565   0.00000  Uiso   1.00
C1266  C     0.36192   0.83359   0.66437   0.00000  Uiso   1.00
C1267  C     0.61982   0.83729   0.88405   0.00000  Uiso   1.00
C1268  C     0.37943   0.83727   0.61601   0.00000  Uiso   1.00
C1269  C     0.63279   0.83396   0.95458   0.00000  Uiso   1.00
C1270  C     0.36444   0.83306   0.54633   0.00000  Uiso   1.00
C1271  C     0.64866   0.82502   0.90960   0.00000  Uiso   1.00
C1272  C     0.35006   0.82376   0.59156   0.00000  Uiso   1.00
C1273  C     0.57265   0.85314   0.90521   0.00000  Uiso   1.00
C1274  C     0.42534   0.85504   0.59442   0.00000  Uiso   1.00
C1275  C     0.55573   0.86038   0.95140   0.00000  Uiso   1.00
C1276  C     0.44165   0.86139   0.54814   0.00000  Uiso   1.00
C1277  C     0.58900   0.85492   0.97482   0.00000  Uiso   1.00
C1278  C     0.40812   0.85442   0.52508   0.00000  Uiso   1.00
C1279  C     0.50608   0.86884   0.97598   0.00000  Uiso   1.00
C1280  C     0.49133   0.86983   0.52322   0.00000  Uiso   1.00
Cu1281 Cu    0.38022   0.83334   0.75000   0.00000  Uiso   1.00
Cu1282 Cu    0.61978   0.83333   0.75000   0.00000  Uiso   1.00
H1283  H     0.65407   0.82255   0.97364   0.00000  Uiso   1.00
H1284  H     0.34349   0.82023   0.52762   0.00000  Uiso   1.00
H1285  H     0.59267   0.96267   0.74739   0.00000  Uiso   1.00
H1286  H     0.40717   0.70401   0.75306   0.00000  Uiso   1.00
H1287  H     0.52417   0.78983   0.80229   0.00000  Uiso   1.00
H1288  H     0.47587   0.87675   0.69761   0.00000  Uiso   1.00
H1289  H     0.43818   0.78972   0.80216   0.00000  Uiso   1.00
H1290  H     0.56184   0.87692   0.69779   0.00000  Uiso   1.00
N1291  N     0.45069   0.83334   0.74999   0.00000  Uiso   1.00
N1292  N     0.54931   0.83332   0.75001   0.00000  Uiso   1.00
O1293  O     0.37291   0.77322   0.75000   0.00000  Uiso   1.00
O1294  O     0.62709   0.89345   0.75000   0.00000  Uiso   1.00
O1295  O     0.62706   0.77321   0.75001   0.00000  Uiso   1.00
O1296  O     0.37294   0.89346   0.75000   0.00000  Uiso   1.00
O1297  O     0.35186   0.83334   0.81492   0.00000  Uiso   1.00
O1298  O     0.64814   0.83332   0.68509   0.00000  Uiso   1.00
O1299  O     0.60600   0.83333   0.81492   0.00000  Uiso   1.00
O1300  O     0.39400   0.83333   0.68508   0.00000  Uiso   1.00
O1301  O     0.61351   0.87493   0.53716   0.00000  Uiso   1.00
C1302  C     0.61405   0.91627   0.55061   0.00000  Uiso   1.00
H1303  H     0.58322   0.92255   0.58157   0.00000  Uiso   1.00
H1304  H     0.61351   0.93828   0.52392   0.00000  Uiso   1.00
H1305  H     0.64851   0.92167   0.55804   0.00000  Uiso   1.00
O1306  O     0.38544   0.87005   0.96017   0.00000  Uiso   1.00
C1307  C     0.38206   0.91154   0.94816   0.00000  Uiso   1.00
H1308  H     0.41376   0.92027   0.91876   0.00000  Uiso   1.00
H1309  H     0.37880   0.93299   0.97626   0.00000  Uiso   1.00
H1310  H     0.34851   0.91519   0.93880   0.00000  Uiso   1.00
H1311  H     0.44789   0.86284   0.61434   0.00000  Uiso   1.00
H1312  H     0.55008   0.85968   0.88498   0.00000  Uiso   1.00
O1313  O     0.64560   0.79622   0.61094   0.00000  Uiso   1.00
C1314  C     0.60068   0.81129   0.60881   0.00000  Uiso   1.00
H1315  H     0.59559   0.84468   0.61700   0.00000  Uiso   1.00
H1316  H     0.57054   0.79474   0.63394   0.00000  Uiso   1.00
H1317  H     0.59708   0.80453   0.57588   0.00000  Uiso   1.00
O1318  O     0.36035   0.80632   0.89069   0.00000  Uiso   1.00
C1319  C     0.35315   0.76335   0.89187   0.00000  Uiso   1.00
H1320  H     0.38921   0.74823   0.87674   0.00000  Uiso   1.00
H1321  H     0.66265   0.75413   0.87215   0.00000  Uiso   1.00
H1322  H     0.33756   0.75193   0.92664   0.00000  Uiso   1.00
H1323  H     0.51902   0.88109   0.57821   0.00000  Uiso   1.00
H1324  H     0.47858   0.87671   0.92046   0.00000  Uiso   1.00
H1325  H     0.59261   0.70394   0.74750   0.00000  Uiso   1.00
H1326  H     0.40725   0.96273   0.75289   0.00000  Uiso   1.00
C1327  C     0.99995   0.75414   0.75010   0.00000  Uiso   1.00
C1328  C     0.66668   0.91253   0.75001   0.00000  Uiso   1.00
C1329  C     0.86107   0.87481   0.54328   0.00000  Uiso   1.00
C1330  C     0.80320   0.87195   0.95566   0.00000  Uiso   1.00
C1331  C     0.91036   0.86932   0.51845   0.00000  Uiso   1.00
C1332  C     0.75404   0.86655   0.98043   0.00000  Uiso   1.00
C1333  C     0.95840   0.68795   0.74872   0.00000  Uiso   1.00
C1334  C     0.70812   0.97872   0.75168   0.00000  Uiso   1.00
C1335  C     0.95844   0.97868   0.74866   0.00000  Uiso   1.00
C1336  C     0.70808   0.68799   0.75177   0.00000  Uiso   1.00
C1337  C     0.99998   0.95721   0.75011   0.00000  Uiso   1.00
C1338  C     0.99991   0.70946   0.75022   0.00000  Uiso   1.00
C1339  C     0.84756   0.80925   0.77898   0.00000  Uiso   1.00
C1340  C     0.81912   0.85738   0.72097   0.00000  Uiso   1.00
C1341  C     0.79822   0.80923   0.77894   0.00000  Uiso   1.00
C1342  C     0.86845   0.85742   0.72104   0.00000  Uiso   1.00
C1343  C     0.97136   0.83374   0.83565   0.00000  Uiso   1.00
C1344  C     0.69525   0.83359   0.66437   0.00000  Uiso   1.00
C1345  C     0.95315   0.83729   0.88405   0.00000  Uiso   1.00
C1346  C     0.71277   0.83727   0.61601   0.00000  Uiso   1.00
C1347  C     0.96613   0.83396   0.95458   0.00000  Uiso   1.00
C1348  C     0.69778   0.83306   0.54633   0.00000  Uiso   1.00
C1349  C     0.98200   0.82502   0.90960   0.00000  Uiso   1.00
C1350  C     0.68340   0.82376   0.59156   0.00000  Uiso   1.00
C1351  C     0.90598   0.85314   0.90521   0.00000  Uiso   1.00
C1352  C     0.75868   0.85504   0.59442   0.00000  Uiso   1.00
C1353  C     0.88906   0.86038   0.95140   0.00000  Uiso   1.00
C1354  C     0.77498   0.86139   0.54814   0.00000  Uiso   1.00
C1355  C     0.92233   0.85492   0.97482   0.00000  Uiso   1.00
C1356  C     0.74145   0.85442   0.52508   0.00000  Uiso   1.00
C1357  C     0.83941   0.86884   0.97598   0.00000  Uiso   1.00
C1358  C     0.82467   0.86983   0.52322   0.00000  Uiso   1.00
Cu1359 Cu    0.71355   0.83334   0.75000   0.00000  Uiso   1.00
Cu1360 Cu    0.95311   0.83333   0.75000   0.00000  Uiso   1.00
H1361  H     0.98740   0.82255   0.97364   0.00000  Uiso   1.00
H1362  H     0.67682   0.82023   0.52762   0.00000  Uiso   1.00
H1363  H     0.92600   0.96267   0.74739   0.00000  Uiso   1.00
H1364  H     0.74050   0.70401   0.75306   0.00000  Uiso   1.00
H1365  H     0.85750   0.78983   0.80229   0.00000  Uiso   1.00
H1366  H     0.80920   0.87675   0.69761   0.00000  Uiso   1.00
H1367  H     0.77151   0.78972   0.80216   0.00000  Uiso   1.00
H1368  H     0.89517   0.87692   0.69779   0.00000  Uiso   1.00
N1369  N     0.78403   0.83334   0.74999   0.00000  Uiso   1.00
N1370  N     0.88264   0.83332   0.75001   0.00000  Uiso   1.00
O1371  O     0.70625   0.77322   0.75000   0.00000  Uiso   1.00
O1372  O     0.96042   0.89345   0.75000   0.00000  Uiso   1.00
O1373  O     0.96039   0.77321   0.75001   0.00000  Uiso   1.00
O1374  O     0.70628   0.89346   0.75000   0.00000  Uiso   1.00
O1375  O     0.68519   0.83334   0.81492   0.00000  Uiso   1.00
O1376  O     0.98148   0.83332   0.68509   0.00000  Uiso   1.00
O1377  O     0.93933   0.83333   0.81492   0.00000  Uiso   1.00
O1378  O     0.72733   0.83333   0.68508   0.00000  Uiso   1.00
O1379  O     0.94684   0.87493   0.53716   0.00000  Uiso   1.00
C1380  C     0.94739   0.91627   0.55061   0.00000  Uiso   1.00
H1381  H     0.91655   0.92255   0.58157   0.00000  Uiso   1.00
H1382  H     0.94684   0.93828   0.52392   0.00000  Uiso   1.00
H1383  H     0.98184   0.92167   0.55804   0.00000  Uiso   1.00
O1384  O     0.71878   0.87005   0.96017   0.00000  Uiso   1.00
C1385  C     0.71540   0.91154   0.94816   0.00000  Uiso   1.00
H1386  H     0.74710   0.92027   0.91876   0.00000  Uiso   1.00
H1387  H     0.71213   0.93299   0.97626   0.00000  Uiso   1.00
H1388  H     0.68185   0.91519   0.93880   0.00000  Uiso   1.00
H1389  H     0.78122   0.86284   0.61434   0.00000  Uiso   1.00
H1390  H     0.88342   0.85968   0.88498   0.00000  Uiso   1.00
O1391  O     0.97893   0.79622   0.61094   0.00000  Uiso   1.00
C1392  C     0.93401   0.81129   0.60881   0.00000  Uiso   1.00
H1393  H     0.92892   0.84468   0.61700   0.00000  Uiso   1.00
H1394  H     0.90387   0.79474   0.63394   0.00000  Uiso   1.00
H1395  H     0.93041   0.80453   0.57588   0.00000  Uiso   1.00
O1396  O     0.69368   0.80632   0.89069   0.00000  Uiso   1.00
C1397  C     0.68648   0.76335   0.89187   0.00000  Uiso   1.00
H1398  H     0.72255   0.74823   0.87674   0.00000  Uiso   1.00
H1399  H     0.99599   0.75413   0.87215   0.00000  Uiso   1.00
H1400  H     0.67089   0.75193   0.92664   0.00000  Uiso   1.00
H1401  H     0.85235   0.88109   0.57821   0.00000  Uiso   1.00
H1402  H     0.81191   0.87671   0.92046   0.00000  Uiso   1.00
H1403  H     0.92594   0.70394   0.74750   0.00000  Uiso   1.00
H1404  H     0.74058   0.96273   0.75289   0.00000  Uiso   1.00
loop_
_geom_bond_atom_site_label_1
_geom_bond_atom_site_label_2
_geom_bond_distance
_geom_bond_site_symmetry_2
_ccdc_geom_bond_type
C1     C12     1.451   .     S
C1     O47     1.300   .     A
C1     O123    1.300   .     S
C2     O48     1.300   .     A
C2     C167    1.451   1_455 S
C2     O202    1.300   1_455 S
C3     H75     1.077   .     S
C3     C5      1.396   .     A
C3     C32     1.407   .     A
C4     C6      1.391   .     A
C4     H76     1.077   .     S
C4     C31     1.402   .     A
C5     O53     1.382   .     S
C5     C731    1.399   1_554 S
C6     O58     1.377   .     S
C6     C732    1.404   .     S
C7     H77     1.083   .     S
C7     C12     1.401   .     A
C7     C477    1.383   1_545 S
C8     H78     1.083   .     S
C8     C244    1.384   .     S
C8     C167    1.401   1_455 S
C9     H37     1.083   .     S
C9     C11     1.401   .     A
C9     C241    1.383   .     S
C10    H38     1.083   .     S
C10    C476    1.384   1_545 S
C10    C168    1.401   1_455 S
C11    C80     1.451   .     S
C11    C86     1.401   .     S
C12    C88     1.401   .     S
C13    H39     1.082   .     S
C13    C15     1.425   .     A
C13    N44     1.370   .     A
C14    C16     1.425   .     A
C14    H40     1.082   .     S
C14    N43     1.370   .     A
C15    H41     1.081   .     S
C15    N43     1.370   .     A
C16    N44     1.370   .     A
C16    H42     1.082   .     S
C17    O51     1.300   .     A
C17    C19     1.462   .     S
C17    O127    1.305   .     S
C18    O52     1.301   .     A
C18    C20     1.461   .     S
C18    O206    1.303   1_455 S
C19    C23     1.399   .     A
C19    C25     1.405   .     A
C20    C24     1.397   .     A
C20    C26     1.402   .     A
C21    C29     1.395   .     A
C21    H35     1.062   .     S
C21    C23     1.386   .     A
C22    C30     1.404   .     A
C22    H36     1.063   .     S
C22    C24     1.396   .     A
C23    O148    1.382   .     S
C24    O221    1.389   1_455 S
C25    H64     1.077   .     S
C25    C27     1.411   .     A
C26    H63     1.077   .     S
C26    C28     1.409   .     A
C27    C29     1.407   .     A
C27    C31     1.418   .     A
C28    C32     1.421   .     A
C28    C30     1.412   .     A
C29    C707    1.399   .     S
C30    C708    1.404   1_554 S
C31    C734    1.424   .     S
C32    C733    1.424   1_554 S
Cu33   O45     1.964   .     S
Cu33   O52     1.975   .     S
Cu33   O49     1.960   .     S
Cu33   N43     2.035   .     S
Cu33   O48     1.964   .     S
Cu33   Cu190   2.708   1_455 S
Cu34   O51     1.975   .     S
Cu34   O46     1.964   .     S
Cu34   O50     1.960   .     S
Cu34   N44     2.035   .     S
Cu34   O47     1.964   .     S
Cu34   Cu111   2.708   .     S
O45    C157    1.300   1_455 S
O46    C80     1.300   .     S
O49    C173    1.305   1_455 S
O50    C96     1.303   .     S
O53    C54     1.411   .     S
C54    H56     1.114   .     S
C54    H55     1.111   .     S
C54    H57     1.109   .     S
O58    C59     1.412   .     S
C59    H60     1.111   .     S
C59    H61     1.114   .     S
C59    H62     1.109   .     S
O65    C66     1.409   .     S
O65    C102    1.389   .     S
C66    H68     1.109   .     S
C66    H69     1.110   .     S
C66    H67     1.114   .     S
O70    C71     1.410   .     S
O70    C179    1.382   1_455 S
C71    H74     1.114   .     S
C71    H72     1.109   .     S
C71    H229    1.114   1_455 S
H73    C149    1.114   .     S
C79    C90     1.451   .     S
C79    O125    1.300   .     A
C79    O201    1.300   .     S
C80    O126    1.300   .     A
C81    H153    1.077   .     S
C81    C83     1.396   .     A
C81    C110    1.407   .     A
C82    C84     1.391   .     A
C82    H154    1.077   .     S
C82    C109    1.402   .     A
C83    O131    1.382   .     S
C83    C809    1.399   1_554 S
C84    O136    1.377   .     S
C84    C810    1.404   .     S
C85    H155    1.083   .     S
C85    C90     1.401   .     A
C85    C555    1.383   1_545 S
C86    H156    1.083   .     S
C86    C322    1.384   .     S
C87    H115    1.083   .     S
C87    C89     1.401   .     A
C87    C319    1.383   .     S
C88    H116    1.083   .     S
C88    C554    1.384   1_545 S
C89    C158    1.451   .     S
C89    C164    1.401   .     S
C90    C166    1.401   .     S
C91    H117    1.082   .     S
C91    C93     1.425   .     A
C91    N122    1.370   .     A
C92    C94     1.425   .     A
C92    H118    1.082   .     S
C92    N121    1.370   .     A
C93    H119    1.081   .     S
C93    N121    1.370   .     A
C94    N122    1.370   .     A
C94    H120    1.082   .     S
C95    O129    1.300   .     A
C95    C97     1.462   .     S
C95    O205    1.305   .     S
C96    O130    1.301   .     A
C96    C98     1.461   .     S
C97    C101    1.399   .     A
C97    C103    1.405   .     A
C98    C102    1.397   .     A
C98    C104    1.402   .     A
C99    C107    1.395   .     A
C99    H113    1.062   .     S
C99    C101    1.386   .     A
C100   C108    1.404   .     A
C100   H114    1.063   .     S
C100   C102    1.396   .     A
C101   O226    1.382   .     S
C103   H142    1.077   .     S
C103   C105    1.411   .     A
C104   H141    1.077   .     S
C104   C106    1.409   .     A
C105   C107    1.407   .     A
C105   C109    1.418   .     A
C106   C110    1.421   .     A
C106   C108    1.412   .     A
C107   C785    1.399   .     S
C108   C786    1.404   1_554 S
C109   C812    1.424   .     S
C110   C811    1.424   1_554 S
Cu111  O123    1.964   .     S
Cu111  O130    1.975   .     S
Cu111  O127    1.960   .     S
Cu111  N121    2.035   .     S
Cu111  O126    1.964   .     S
Cu112  O129    1.975   .     S
Cu112  O124    1.964   .     S
Cu112  O128    1.960   .     S
Cu112  N122    2.035   .     S
Cu112  O125    1.964   .     S
Cu112  Cu189   2.708   .     S
O124   C158    1.300   .     S
O128   C174    1.303   .     S
O131   C132    1.411   .     S
C132   H134    1.114   .     S
C132   H133    1.111   .     S
C132   H135    1.109   .     S
O136   C137    1.412   .     S
C137   H138    1.111   .     S
C137   H139    1.114   .     S
C137   H140    1.109   .     S
O143   C144    1.409   .     S
O143   C180    1.389   .     S
C144   H146    1.109   .     S
C144   H147    1.110   .     S
C144   H145    1.114   .     S
O148   C149    1.410   .     S
C149   H152    1.114   .     S
C149   H150    1.109   .     S
H151   C227    1.114   .     S
C157   C168    1.451   .     S
C157   O203    1.300   .     A
C157   O45     1.300   1_655 S
C158   O204    1.300   .     A
C159   H231    1.077   .     S
C159   C161    1.396   .     A
C159   C188    1.407   .     A
C160   C162    1.391   .     A
C160   H232    1.077   .     S
C160   C187    1.402   .     A
C161   O209    1.382   .     S
C161   C887    1.399   1_554 S
C162   O214    1.377   .     S
C162   C888    1.404   .     S
C163   H233    1.083   .     S
C163   C168    1.401   .     A
C163   C633    1.383   1_545 S
C164   H234    1.083   .     S
C164   C400    1.384   .     S
C165   H193    1.083   .     S
C165   C167    1.401   .     A
C165   C397    1.383   .     S
C166   H194    1.083   .     S
C166   C632    1.384   1_545 S
C167   C2      1.451   1_655 S
C167   C8      1.401   1_655 S
C168   C10     1.401   1_655 S
C169   H195    1.082   .     S
C169   C171    1.425   .     A
C169   N200    1.370   .     A
C170   C172    1.425   .     A
C170   H196    1.082   .     S
C170   N199    1.370   .     A
C171   H197    1.081   .     S
C171   N199    1.370   .     A
C172   N200    1.370   .     A
C172   H198    1.082   .     S
C173   O207    1.300   .     A
C173   C175    1.462   .     S
C173   O49     1.305   1_655 S
C174   O208    1.301   .     A
C174   C176    1.461   .     S
C175   C179    1.399   .     A
C175   C181    1.405   .     A
C176   C180    1.397   .     A
C176   C182    1.402   .     A
C177   C185    1.395   .     A
C177   H191    1.062   .     S
C177   C179    1.386   .     A
C178   C186    1.404   .     A
C178   H192    1.063   .     S
C178   C180    1.396   .     A
C179   O70     1.382   1_655 S
C181   H220    1.077   .     S
C181   C183    1.411   .     A
C182   H219    1.077   .     S
C182   C184    1.409   .     A
C183   C185    1.407   .     A
C183   C187    1.418   .     A
C184   C188    1.421   .     A
C184   C186    1.412   .     A
C185   C863    1.399   .     S
C186   C864    1.404   1_554 S
C187   C890    1.424   .     S
C188   C889    1.424   1_554 S
Cu189  O201    1.964   .     S
Cu189  O208    1.975   .     S
Cu189  O205    1.960   .     S
Cu189  N199    2.035   .     S
Cu189  O204    1.964   .     S
Cu190  O207    1.975   .     S
Cu190  O202    1.964   .     S
Cu190  O206    1.960   .     S
Cu190  N200    2.035   .     S
Cu190  O203    1.964   .     S
Cu190  Cu33    2.708   1_655 S
O202   C2      1.300   1_655 S
O206   C18     1.303   1_655 S
O209   C210    1.411   .     S
C210   H212    1.114   .     S
C210   H211    1.111   .     S
C210   H213    1.109   .     S
O214   C215    1.412   .     S
C215   H216    1.111   .     S
C215   H217    1.114   .     S
C215   H218    1.109   .     S
O221   C222    1.409   .     S
O221   C24     1.389   1_655 S
C222   H224    1.109   .     S
C222   H225    1.110   .     S
C222   H223    1.114   .     S
O226   C227    1.410   .     S
C227   H230    1.114   .     S
C227   H228    1.109   .     S
H229   C71     1.114   1_655 S
C235   C246    1.451   .     S
C235   O281    1.300   .     A
C235   O357    1.300   .     S
C236   O282    1.300   .     A
C236   C401    1.451   1_455 S
C236   O436    1.300   1_455 S
C237   H309    1.077   .     S
C237   C239    1.396   .     A
C237   C266    1.407   .     A
C238   C240    1.391   .     A
C238   H310    1.077   .     S
C238   C265    1.402   .     A
C239   O287    1.382   .     S
C239   C965    1.399   1_554 S
C240   O292    1.377   .     S
C240   C966    1.404   .     S
C241   H311    1.083   .     S
C241   C246    1.401   .     A
C242   H312    1.083   .     S
C242   C478    1.384   .     S
C242   C401    1.401   1_455 S
C243   H271    1.083   .     S
C243   C245    1.401   .     A
C243   C475    1.383   .     S
C244   H272    1.083   .     S
C244   C402    1.401   1_455 S
C245   C314    1.451   .     S
C245   C320    1.401   .     S
C246   C322    1.401   .     S
C247   H273    1.082   .     S
C247   C249    1.425   .     A
C247   N278    1.370   .     A
C248   C250    1.425   .     A
C248   H274    1.082   .     S
C248   N277    1.370   .     A
C249   H275    1.081   .     S
C249   N277    1.370   .     A
C250   N278    1.370   .     A
C250   H276    1.082   .     S
C251   O285    1.300   .     A
C251   C253    1.462   .     S
C251   O361    1.305   .     S
C252   O286    1.301   .     A
C252   C254    1.461   .     S
C252   O440    1.303   1_455 S
C253   C257    1.399   .     A
C253   C259    1.405   .     A
C254   C258    1.397   .     A
C254   C260    1.402   .     A
C255   C263    1.395   .     A
C255   H269    1.062   .     S
C255   C257    1.386   .     A
C256   C264    1.404   .     A
C256   H270    1.063   .     S
C256   C258    1.396   .     A
C257   O382    1.382   .     S
C258   O455    1.389   1_455 S
C259   H298    1.077   .     S
C259   C261    1.411   .     A
C260   H297    1.077   .     S
C260   C262    1.409   .     A
C261   C263    1.407   .     A
C261   C265    1.418   .     A
C262   C266    1.421   .     A
C262   C264    1.412   .     A
C263   C941    1.399   .     S
C264   C942    1.404   1_554 S
C265   C968    1.424   .     S
C266   C967    1.424   1_554 S
Cu267  O279    1.964   .     S
Cu267  O286    1.975   .     S
Cu267  O283    1.960   .     S
Cu267  N277    2.035   .     S
Cu267  O282    1.964   .     S
Cu267  Cu424   2.708   1_455 S
Cu268  O285    1.975   .     S
Cu268  O280    1.964   .     S
Cu268  O284    1.960   .     S
Cu268  N278    2.035   .     S
Cu268  O281    1.964   .     S
Cu268  Cu345   2.708   .     S
O279   C391    1.300   1_455 S
O280   C314    1.300   .     S
O283   C407    1.305   1_455 S
O284   C330    1.303   .     S
O287   C288    1.411   .     S
C288   H290    1.114   .     S
C288   H289    1.111   .     S
C288   H291    1.109   .     S
O292   C293    1.412   .     S
C293   H294    1.111   .     S
C293   H295    1.114   .     S
C293   H296    1.109   .     S
O299   C300    1.409   .     S
O299   C336    1.389   .     S
C300   H302    1.109   .     S
C300   H303    1.110   .     S
C300   H301    1.114   .     S
O304   C305    1.410   .     S
O304   C413    1.382   1_455 S
C305   H308    1.114   .     S
C305   H306    1.109   .     S
C305   H463    1.114   1_455 S
H307   C383    1.114   .     S
C313   C324    1.451   .     S
C313   O359    1.300   .     A
C313   O435    1.300   .     S
C314   O360    1.300   .     A
C315   H387    1.077   .     S
C315   C317    1.396   .     A
C315   C344    1.407   .     A
C316   C318    1.391   .     A
C316   H388    1.077   .     S
C316   C343    1.402   .     A
C317   O365    1.382   .     S
C317   C1043   1.399   1_554 S
C318   O370    1.377   .     S
C318   C1044   1.404   .     S
C319   H389    1.083   .     S
C319   C324    1.401   .     A
C320   H390    1.083   .     S
C320   C556    1.384   .     S
C321   H349    1.083   .     S
C321   C323    1.401   .     A
C321   C553    1.383   .     S
C322   H350    1.083   .     S
C323   C392    1.451   .     S
C323   C398    1.401   .     S
C324   C400    1.401   .     S
C325   H351    1.082   .     S
C325   C327    1.425   .     A
C325   N356    1.370   .     A
C326   C328    1.425   .     A
C326   H352    1.082   .     S
C326   N355    1.370   .     A
C327   H353    1.081   .     S
C327   N355    1.370   .     A
C328   N356    1.370   .     A
C328   H354    1.082   .     S
C329   O363    1.300   .     A
C329   C331    1.462   .     S
C329   O439    1.305   .     S
C330   O364    1.301   .     A
C330   C332    1.461   .     S
C331   C335    1.399   .     A
C331   C337    1.405   .     A
C332   C336    1.397   .     A
C332   C338    1.402   .     A
C333   C341    1.395   .     A
C333   H347    1.062   .     S
C333   C335    1.386   .     A
C334   C342    1.404   .     A
C334   H348    1.063   .     S
C334   C336    1.396   .     A
C335   O460    1.382   .     S
C337   H376    1.077   .     S
C337   C339    1.411   .     A
C338   H375    1.077   .     S
C338   C340    1.409   .     A
C339   C341    1.407   .     A
C339   C343    1.418   .     A
C340   C344    1.421   .     A
C340   C342    1.412   .     A
C341   C1019   1.399   .     S
C342   C1020   1.404   1_554 S
C343   C1046   1.424   .     S
C344   C1045   1.424   1_554 S
Cu345  O357    1.964   .     S
Cu345  O364    1.975   .     S
Cu345  O361    1.960   .     S
Cu345  N355    2.035   .     S
Cu345  O360    1.964   .     S
Cu346  O363    1.975   .     S
Cu346  O358    1.964   .     S
Cu346  O362    1.960   .     S
Cu346  N356    2.035   .     S
Cu346  O359    1.964   .     S
Cu346  Cu423   2.708   .     S
O358   C392    1.300   .     S
O362   C408    1.303   .     S
O365   C366    1.411   .     S
C366   H368    1.114   .     S
C366   H367    1.111   .     S
C366   H369    1.109   .     S
O370   C371    1.412   .     S
C371   H372    1.111   .     S
C371   H373    1.114   .     S
C371   H374    1.109   .     S
O377   C378    1.409   .     S
O377   C414    1.389   .     S
C378   H380    1.109   .     S
C378   H381    1.110   .     S
C378   H379    1.114   .     S
O382   C383    1.410   .     S
C383   H386    1.114   .     S
C383   H384    1.109   .     S
H385   C461    1.114   .     S
C391   C402    1.451   .     S
C391   O437    1.300   .     A
C391   O279    1.300   1_655 S
C392   O438    1.300   .     A
C393   H465    1.077   .     S
C393   C395    1.396   .     A
C393   C422    1.407   .     A
C394   C396    1.391   .     A
C394   H466    1.077   .     S
C394   C421    1.402   .     A
C395   O443    1.382   .     S
C395   C1121   1.399   1_554 S
C396   O448    1.377   .     S
C396   C1122   1.404   .     S
C397   H467    1.083   .     S
C397   C402    1.401   .     A
C398   H468    1.083   .     S
C398   C634    1.384   .     S
C399   H427    1.083   .     S
C399   C401    1.401   .     A
C399   C631    1.383   .     S
C400   H428    1.083   .     S
C401   C236    1.451   1_655 S
C401   C242    1.401   1_655 S
C402   C244    1.401   1_655 S
C403   H429    1.082   .     S
C403   C405    1.425   .     A
C403   N434    1.370   .     A
C404   C406    1.425   .     A
C404   H430    1.082   .     S
C404   N433    1.370   .     A
C405   H431    1.081   .     S
C405   N433    1.370   .     A
C406   N434    1.370   .     A
C406   H432    1.082   .     S
C407   O441    1.300   .     A
C407   C409    1.462   .     S
C407   O283    1.305   1_655 S
C408   O442    1.301   .     A
C408   C410    1.461   .     S
C409   C413    1.399   .     A
C409   C415    1.405   .     A
C410   C414    1.397   .     A
C410   C416    1.402   .     A
C411   C419    1.395   .     A
C411   H425    1.062   .     S
C411   C413    1.386   .     A
C412   C420    1.404   .     A
C412   H426    1.063   .     S
C412   C414    1.396   .     A
C413   O304    1.382   1_655 S
C415   H454    1.077   .     S
C415   C417    1.411   .     A
C416   H453    1.077   .     S
C416   C418    1.409   .     A
C417   C419    1.407   .     A
C417   C421    1.418   .     A
C418   C422    1.421   .     A
C418   C420    1.412   .     A
C419   C1097   1.399   .     S
C420   C1098   1.404   1_554 S
C421   C1124   1.424   .     S
C422   C1123   1.424   1_554 S
Cu423  O435    1.964   .     S
Cu423  O442    1.975   .     S
Cu423  O439    1.960   .     S
Cu423  N433    2.035   .     S
Cu423  O438    1.964   .     S
Cu424  O441    1.975   .     S
Cu424  O436    1.964   .     S
Cu424  O440    1.960   .     S
Cu424  N434    2.035   .     S
Cu424  O437    1.964   .     S
Cu424  Cu267   2.708   1_655 S
O436   C236    1.300   1_655 S
O440   C252    1.303   1_655 S
O443   C444    1.411   .     S
C444   H446    1.114   .     S
C444   H445    1.111   .     S
C444   H447    1.109   .     S
O448   C449    1.412   .     S
C449   H450    1.111   .     S
C449   H451    1.114   .     S
C449   H452    1.109   .     S
O455   C456    1.409   .     S
O455   C258    1.389   1_655 S
C456   H458    1.109   .     S
C456   H459    1.110   .     S
C456   H457    1.114   .     S
O460   C461    1.410   .     S
C461   H464    1.114   .     S
C461   H462    1.109   .     S
H463   C305    1.114   1_655 S
C469   C480    1.451   .     S
C469   O515    1.300   .     A
C469   O591    1.300   .     S
C470   O516    1.300   .     A
C470   C635    1.451   1_455 S
C470   O670    1.300   1_455 S
C471   H543    1.077   .     S
C471   C473    1.396   .     A
C471   C500    1.407   .     A
C472   C474    1.391   .     A
C472   H544    1.077   .     S
C472   C499    1.402   .     A
C473   O521    1.382   .     S
C473   C1199   1.399   1_554 S
C474   O526    1.377   .     S
C474   C1200   1.404   .     S
C475   H545    1.083   .     S
C475   C480    1.401   .     A
C476   H546    1.083   .     S
C476   C10     1.384   1_565 S
C476   C635    1.401   1_455 S
C477   H505    1.083   .     S
C477   C479    1.401   .     A
C477   C7      1.383   1_565 S
C478   H506    1.083   .     S
C478   C636    1.401   1_455 S
C479   C548    1.451   .     S
C479   C554    1.401   .     S
C480   C556    1.401   .     S
C481   H507    1.082   .     S
C481   C483    1.425   .     A
C481   N512    1.370   .     A
C482   C484    1.425   .     A
C482   H508    1.082   .     S
C482   N511    1.370   .     A
C483   H509    1.081   .     S
C483   N511    1.370   .     A
C484   N512    1.370   .     A
C484   H510    1.082   .     S
C485   O519    1.300   .     A
C485   C487    1.462   .     S
C485   O595    1.305   .     S
C486   O520    1.301   .     A
C486   C488    1.461   .     S
C486   O674    1.303   1_455 S
C487   C491    1.399   .     A
C487   C493    1.405   .     A
C488   C492    1.397   .     A
C488   C494    1.402   .     A
C489   C497    1.395   .     A
C489   H503    1.062   .     S
C489   C491    1.386   .     A
C490   C498    1.404   .     A
C490   H504    1.063   .     S
C490   C492    1.396   .     A
C491   O616    1.382   .     S
C492   O689    1.389   1_455 S
C493   H532    1.077   .     S
C493   C495    1.411   .     A
C494   H531    1.077   .     S
C494   C496    1.409   .     A
C495   C497    1.407   .     A
C495   C499    1.418   .     A
C496   C500    1.421   .     A
C496   C498    1.412   .     A
C497   C1175   1.399   .     S
C498   C1176   1.404   1_554 S
C499   C1202   1.424   .     S
C500   C1201   1.424   1_554 S
Cu501  O513    1.964   .     S
Cu501  O520    1.975   .     S
Cu501  O517    1.960   .     S
Cu501  N511    2.035   .     S
Cu501  O516    1.964   .     S
Cu501  Cu658   2.708   1_455 S
Cu502  O519    1.975   .     S
Cu502  O514    1.964   .     S
Cu502  O518    1.960   .     S
Cu502  N512    2.035   .     S
Cu502  O515    1.964   .     S
Cu502  Cu579   2.708   .     S
O513   C625    1.300   1_455 S
O514   C548    1.300   .     S
O517   C641    1.305   1_455 S
O518   C564    1.303   .     S
O521   C522    1.411   .     S
C522   H524    1.114   .     S
C522   H523    1.111   .     S
C522   H525    1.109   .     S
O526   C527    1.412   .     S
C527   H528    1.111   .     S
C527   H529    1.114   .     S
C527   H530    1.109   .     S
O533   C534    1.409   .     S
O533   C570    1.389   .     S
C534   H536    1.109   .     S
C534   H537    1.110   .     S
C534   H535    1.114   .     S
O538   C539    1.410   .     S
O538   C647    1.382   1_455 S
C539   H542    1.114   .     S
C539   H540    1.109   .     S
C539   H697    1.114   1_455 S
H541   C617    1.114   .     S
C547   C558    1.451   .     S
C547   O593    1.300   .     A
C547   O669    1.300   .     S
C548   O594    1.300   .     A
C549   H621    1.077   .     S
C549   C551    1.396   .     A
C549   C578    1.407   .     A
C550   C552    1.391   .     A
C550   H622    1.077   .     S
C550   C577    1.402   .     A
C551   O599    1.382   .     S
C551   C1277   1.399   1_554 S
C552   O604    1.377   .     S
C552   C1278   1.404   .     S
C553   H623    1.083   .     S
C553   C558    1.401   .     A
C554   H624    1.083   .     S
C554   C88     1.384   1_565 S
C555   H583    1.083   .     S
C555   C557    1.401   .     A
C555   C85     1.383   1_565 S
C556   H584    1.083   .     S
C557   C626    1.451   .     S
C557   C632    1.401   .     S
C558   C634    1.401   .     S
C559   H585    1.082   .     S
C559   C561    1.425   .     A
C559   N590    1.370   .     A
C560   C562    1.425   .     A
C560   H586    1.082   .     S
C560   N589    1.370   .     A
C561   H587    1.081   .     S
C561   N589    1.370   .     A
C562   N590    1.370   .     A
C562   H588    1.082   .     S
C563   O597    1.300   .     A
C563   C565    1.462   .     S
C563   O673    1.305   .     S
C564   O598    1.301   .     A
C564   C566    1.461   .     S
C565   C569    1.399   .     A
C565   C571    1.405   .     A
C566   C570    1.397   .     A
C566   C572    1.402   .     A
C567   C575    1.395   .     A
C567   H581    1.062   .     S
C567   C569    1.386   .     A
C568   C576    1.404   .     A
C568   H582    1.063   .     S
C568   C570    1.396   .     A
C569   O694    1.382   .     S
C571   H610    1.077   .     S
C571   C573    1.411   .     A
C572   H609    1.077   .     S
C572   C574    1.409   .     A
C573   C575    1.407   .     A
C573   C577    1.418   .     A
C574   C578    1.421   .     A
C574   C576    1.412   .     A
C575   C1253   1.399   .     S
C576   C1254   1.404   1_554 S
C577   C1280   1.424   .     S
C578   C1279   1.424   1_554 S
Cu579  O591    1.964   .     S
Cu579  O598    1.975   .     S
Cu579  O595    1.960   .     S
Cu579  N589    2.035   .     S
Cu579  O594    1.964   .     S
Cu580  O597    1.975   .     S
Cu580  O592    1.964   .     S
Cu580  O596    1.960   .     S
Cu580  N590    2.035   .     S
Cu580  O593    1.964   .     S
Cu580  Cu657   2.708   .     S
O592   C626    1.300   .     S
O596   C642    1.303   .     S
O599   C600    1.411   .     S
C600   H602    1.114   .     S
C600   H601    1.111   .     S
C600   H603    1.109   .     S
O604   C605    1.412   .     S
C605   H606    1.111   .     S
C605   H607    1.114   .     S
C605   H608    1.109   .     S
O611   C612    1.409   .     S
O611   C648    1.389   .     S
C612   H614    1.109   .     S
C612   H615    1.110   .     S
C612   H613    1.114   .     S
O616   C617    1.410   .     S
C617   H620    1.114   .     S
C617   H618    1.109   .     S
H619   C695    1.114   .     S
C625   C636    1.451   .     S
C625   O671    1.300   .     A
C625   O513    1.300   1_655 S
C626   O672    1.300   .     A
C627   H699    1.077   .     S
C627   C629    1.396   .     A
C627   C656    1.407   .     A
C628   C630    1.391   .     A
C628   H700    1.077   .     S
C628   C655    1.402   .     A
C629   O677    1.382   .     S
C629   C1355   1.399   1_554 S
C630   O682    1.377   .     S
C630   C1356   1.404   .     S
C631   H701    1.083   .     S
C631   C636    1.401   .     A
C632   H702    1.083   .     S
C632   C166    1.384   1_565 S
C633   H661    1.083   .     S
C633   C635    1.401   .     A
C633   C163    1.383   1_565 S
C634   H662    1.083   .     S
C635   C470    1.451   1_655 S
C635   C476    1.401   1_655 S
C636   C478    1.401   1_655 S
C637   H663    1.082   .     S
C637   C639    1.425   .     A
C637   N668    1.370   .     A
C638   C640    1.425   .     A
C638   H664    1.082   .     S
C638   N667    1.370   .     A
C639   H665    1.081   .     S
C639   N667    1.370   .     A
C640   N668    1.370   .     A
C640   H666    1.082   .     S
C641   O675    1.300   .     A
C641   C643    1.462   .     S
C641   O517    1.305   1_655 S
C642   O676    1.301   .     A
C642   C644    1.461   .     S
C643   C647    1.399   .     A
C643   C649    1.405   .     A
C644   C648    1.397   .     A
C644   C650    1.402   .     A
C645   C653    1.395   .     A
C645   H659    1.062   .     S
C645   C647    1.386   .     A
C646   C654    1.404   .     A
C646   H660    1.063   .     S
C646   C648    1.396   .     A
C647   O538    1.382   1_655 S
C649   H688    1.077   .     S
C649   C651    1.411   .     A
C650   H687    1.077   .     S
C650   C652    1.409   .     A
C651   C653    1.407   .     A
C651   C655    1.418   .     A
C652   C656    1.421   .     A
C652   C654    1.412   .     A
C653   C1331   1.399   .     S
C654   C1332   1.404   1_554 S
C655   C1358   1.424   .     S
C656   C1357   1.424   1_554 S
Cu657  O669    1.964   .     S
Cu657  O676    1.975   .     S
Cu657  O673    1.960   .     S
Cu657  N667    2.035   .     S
Cu657  O672    1.964   .     S
Cu658  O675    1.975   .     S
Cu658  O670    1.964   .     S
Cu658  O674    1.960   .     S
Cu658  N668    2.035   .     S
Cu658  O671    1.964   .     S
Cu658  Cu501   2.708   1_655 S
O670   C470    1.300   1_655 S
O674   C486    1.303   1_655 S
O677   C678    1.411   .     S
C678   H680    1.114   .     S
C678   H679    1.111   .     S
C678   H681    1.109   .     S
O682   C683    1.412   .     S
C683   H684    1.111   .     S
C683   H685    1.114   .     S
C683   H686    1.109   .     S
O689   C690    1.409   .     S
O689   C492    1.389   1_655 S
C690   H692    1.109   .     S
C690   H693    1.110   .     S
C690   H691    1.114   .     S
O694   C695    1.410   .     S
C695   H698    1.114   .     S
C695   H696    1.109   .     S
H697   C539    1.114   1_655 S
C703   C714    1.451   .     S
C703   O749    1.300   .     A
C703   O825    1.300   .     S
C704   O750    1.300   .     A
C704   C869    1.451   1_455 S
C704   O904    1.300   1_455 S
C705   H777    1.077   .     S
C705   C707    1.396   .     A
C705   C734    1.407   .     A
C706   C708    1.391   .     A
C706   H778    1.077   .     S
C706   C733    1.402   .     A
C707   O755    1.382   .     S
C708   O760    1.377   .     S
C708   C30     1.404   1_556 S
C709   H779    1.083   .     S
C709   C714    1.401   .     A
C709   C1179   1.383   1_545 S
C710   H780    1.083   .     S
C710   C946    1.384   .     S
C710   C869    1.401   1_455 S
C711   H739    1.083   .     S
C711   C713    1.401   .     A
C711   C943    1.383   .     S
C712   H740    1.083   .     S
C712   C1178   1.384   1_545 S
C712   C870    1.401   1_455 S
C713   C782    1.451   .     S
C713   C788    1.401   .     S
C714   C790    1.401   .     S
C715   H741    1.082   .     S
C715   C717    1.425   .     A
C715   N746    1.370   .     A
C716   C718    1.425   .     A
C716   H742    1.082   .     S
C716   N745    1.370   .     A
C717   H743    1.081   .     S
C717   N745    1.370   .     A
C718   N746    1.370   .     A
C718   H744    1.082   .     S
C719   O753    1.300   .     A
C719   C721    1.462   .     S
C719   O829    1.305   .     S
C720   O754    1.301   .     A
C720   C722    1.461   .     S
C720   O908    1.303   1_455 S
C721   C725    1.399   .     A
C721   C727    1.405   .     A
C722   C726    1.397   .     A
C722   C728    1.402   .     A
C723   C731    1.395   .     A
C723   H737    1.062   .     S
C723   C725    1.386   .     A
C724   C732    1.404   .     A
C724   H738    1.063   .     S
C724   C726    1.396   .     A
C725   O850    1.382   .     S
C726   O923    1.389   1_455 S
C727   H766    1.077   .     S
C727   C729    1.411   .     A
C728   H765    1.077   .     S
C728   C730    1.409   .     A
C729   C731    1.407   .     A
C729   C733    1.418   .     A
C730   C734    1.421   .     A
C730   C732    1.412   .     A
C731   C5      1.399   1_556 S
C733   C32     1.424   1_556 S
Cu735  O747    1.964   .     S
Cu735  O754    1.975   .     S
Cu735  O751    1.960   .     S
Cu735  N745    2.035   .     S
Cu735  O750    1.964   .     S
Cu735  Cu892   2.708   1_455 S
Cu736  O753    1.975   .     S
Cu736  O748    1.964   .     S
Cu736  O752    1.960   .     S
Cu736  N746    2.035   .     S
Cu736  O749    1.964   .     S
Cu736  Cu813   2.708   .     S
O747   C859    1.300   1_455 S
O748   C782    1.300   .     S
O751   C875    1.305   1_455 S
O752   C798    1.303   .     S
O755   C756    1.411   .     S
C756   H758    1.114   .     S
C756   H757    1.111   .     S
C756   H759    1.109   .     S
O760   C761    1.412   .     S
C761   H762    1.111   .     S
C761   H763    1.114   .     S
C761   H764    1.109   .     S
O767   C768    1.409   .     S
O767   C804    1.389   .     S
C768   H770    1.109   .     S
C768   H771    1.110   .     S
C768   H769    1.114   .     S
O772   C773    1.410   .     S
O772   C881    1.382   1_455 S
C773   H776    1.114   .     S
C773   H774    1.109   .     S
C773   H931    1.114   1_455 S
H775   C851    1.114   .     S
C781   C792    1.451   .     S
C781   O827    1.300   .     A
C781   O903    1.300   .     S
C782   O828    1.300   .     A
C783   H855    1.077   .     S
C783   C785    1.396   .     A
C783   C812    1.407   .     A
C784   C786    1.391   .     A
C784   H856    1.077   .     S
C784   C811    1.402   .     A
C785   O833    1.382   .     S
C786   O838    1.377   .     S
C786   C108    1.404   1_556 S
C787   H857    1.083   .     S
C787   C792    1.401   .     A
C787   C1257   1.383   1_545 S
C788   H858    1.083   .     S
C788   C1024   1.384   .     S
C789   H817    1.083   .     S
C789   C791    1.401   .     A
C789   C1021   1.383   .     S
C790   H818    1.083   .     S
C790   C1256   1.384   1_545 S
C791   C860    1.451   .     S
C791   C866    1.401   .     S
C792   C868    1.401   .     S
C793   H819    1.082   .     S
C793   C795    1.425   .     A
C793   N824    1.370   .     A
C794   C796    1.425   .     A
C794   H820    1.082   .     S
C794   N823    1.370   .     A
C795   H821    1.081   .     S
C795   N823    1.370   .     A
C796   N824    1.370   .     A
C796   H822    1.082   .     S
C797   O831    1.300   .     A
C797   C799    1.462   .     S
C797   O907    1.305   .     S
C798   O832    1.301   .     A
C798   C800    1.461   .     S
C799   C803    1.399   .     A
C799   C805    1.405   .     A
C800   C804    1.397   .     A
C800   C806    1.402   .     A
C801   C809    1.395   .     A
C801   H815    1.062   .     S
C801   C803    1.386   .     A
C802   C810    1.404   .     A
C802   H816    1.063   .     S
C802   C804    1.396   .     A
C803   O928    1.382   .     S
C805   H844    1.077   .     S
C805   C807    1.411   .     A
C806   H843    1.077   .     S
C806   C808    1.409   .     A
C807   C809    1.407   .     A
C807   C811    1.418   .     A
C808   C812    1.421   .     A
C808   C810    1.412   .     A
C809   C83     1.399   1_556 S
C811   C110    1.424   1_556 S
Cu813  O825    1.964   .     S
Cu813  O832    1.975   .     S
Cu813  O829    1.960   .     S
Cu813  N823    2.035   .     S
Cu813  O828    1.964   .     S
Cu814  O831    1.975   .     S
Cu814  O826    1.964   .     S
Cu814  O830    1.960   .     S
Cu814  N824    2.035   .     S
Cu814  O827    1.964   .     S
Cu814  Cu891   2.708   .     S
O826   C860    1.300   .     S
O830   C876    1.303   .     S
O833   C834    1.411   .     S
C834   H836    1.114   .     S
C834   H835    1.111   .     S
C834   H837    1.109   .     S
O838   C839    1.412   .     S
C839   H840    1.111   .     S
C839   H841    1.114   .     S
C839   H842    1.109   .     S
O845   C846    1.409   .     S
O845   C882    1.389   .     S
C846   H848    1.109   .     S
C846   H849    1.110   .     S
C846   H847    1.114   .     S
O850   C851    1.410   .     S
C851   H854    1.114   .     S
C851   H852    1.109   .     S
H853   C929    1.114   .     S
C859   C870    1.451   .     S
C859   O905    1.300   .     A
C859   O747    1.300   1_655 S
C860   O906    1.300   .     A
C861   H933    1.077   .     S
C861   C863    1.396   .     A
C861   C890    1.407   .     A
C862   C864    1.391   .     A
C862   H934    1.077   .     S
C862   C889    1.402   .     A
C863   O911    1.382   .     S
C864   O916    1.377   .     S
C864   C186    1.404   1_556 S
C865   H935    1.083   .     S
C865   C870    1.401   .     A
C865   C1335   1.383   1_545 S
C866   H936    1.083   .     S
C866   C1102   1.384   .     S
C867   H895    1.083   .     S
C867   C869    1.401   .     A
C867   C1099   1.383   .     S
C868   H896    1.083   .     S
C868   C1334   1.384   1_545 S
C869   C704    1.451   1_655 S
C869   C710    1.401   1_655 S
C870   C712    1.401   1_655 S
C871   H897    1.082   .     S
C871   C873    1.425   .     A
C871   N902    1.370   .     A
C872   C874    1.425   .     A
C872   H898    1.082   .     S
C872   N901    1.370   .     A
C873   H899    1.081   .     S
C873   N901    1.370   .     A
C874   N902    1.370   .     A
C874   H900    1.082   .     S
C875   O909    1.300   .     A
C875   C877    1.462   .     S
C875   O751    1.305   1_655 S
C876   O910    1.301   .     A
C876   C878    1.461   .     S
C877   C881    1.399   .     A
C877   C883    1.405   .     A
C878   C882    1.397   .     A
C878   C884    1.402   .     A
C879   C887    1.395   .     A
C879   H893    1.062   .     S
C879   C881    1.386   .     A
C880   C888    1.404   .     A
C880   H894    1.063   .     S
C880   C882    1.396   .     A
C881   O772    1.382   1_655 S
C883   H922    1.077   .     S
C883   C885    1.411   .     A
C884   H921    1.077   .     S
C884   C886    1.409   .     A
C885   C887    1.407   .     A
C885   C889    1.418   .     A
C886   C890    1.421   .     A
C886   C888    1.412   .     A
C887   C161    1.399   1_556 S
C889   C188    1.424   1_556 S
Cu891  O903    1.964   .     S
Cu891  O910    1.975   .     S
Cu891  O907    1.960   .     S
Cu891  N901    2.035   .     S
Cu891  O906    1.964   .     S
Cu892  O909    1.975   .     S
Cu892  O904    1.964   .     S
Cu892  O908    1.960   .     S
Cu892  N902    2.035   .     S
Cu892  O905    1.964   .     S
Cu892  Cu735   2.708   1_655 S
O904   C704    1.300   1_655 S
O908   C720    1.303   1_655 S
O911   C912    1.411   .     S
C912   H914    1.114   .     S
C912   H913    1.111   .     S
C912   H915    1.109   .     S
O916   C917    1.412   .     S
C917   H918    1.111   .     S
C917   H919    1.114   .     S
C917   H920    1.109   .     S
O923   C924    1.409   .     S
O923   C726    1.389   1_655 S
C924   H926    1.109   .     S
C924   H927    1.110   .     S
C924   H925    1.114   .     S
O928   C929    1.410   .     S
C929   H932    1.114   .     S
C929   H930    1.109   .     S
H931   C773    1.114   1_655 S
C937   C948    1.451   .     S
C937   O983    1.300   .     A
C937   O1059   1.300   .     S
C938   O984    1.300   .     A
C938   C1103   1.451   1_455 S
C938   O1138   1.300   1_455 S
C939   H1011   1.077   .     S
C939   C941    1.396   .     A
C939   C968    1.407   .     A
C940   C942    1.391   .     A
C940   H1012   1.077   .     S
C940   C967    1.402   .     A
C941   O989    1.382   .     S
C942   O994    1.377   .     S
C942   C264    1.404   1_556 S
C943   H1013   1.083   .     S
C943   C948    1.401   .     A
C944   H1014   1.083   .     S
C944   C1180   1.384   .     S
C944   C1103   1.401   1_455 S
C945   H973    1.083   .     S
C945   C947    1.401   .     A
C945   C1177   1.383   .     S
C946   H974    1.083   .     S
C946   C1104   1.401   1_455 S
C947   C1016   1.451   .     S
C947   C1022   1.401   .     S
C948   C1024   1.401   .     S
C949   H975    1.082   .     S
C949   C951    1.425   .     A
C949   N980    1.370   .     A
C950   C952    1.425   .     A
C950   H976    1.082   .     S
C950   N979    1.370   .     A
C951   H977    1.081   .     S
C951   N979    1.370   .     A
C952   N980    1.370   .     A
C952   H978    1.082   .     S
C953   O987    1.300   .     A
C953   C955    1.462   .     S
C953   O1063   1.305   .     S
C954   O988    1.301   .     A
C954   C956    1.461   .     S
C954   O1142   1.303   1_455 S
C955   C959    1.399   .     A
C955   C961    1.405   .     A
C956   C960    1.397   .     A
C956   C962    1.402   .     A
C957   C965    1.395   .     A
C957   H971    1.062   .     S
C957   C959    1.386   .     A
C958   C966    1.404   .     A
C958   H972    1.063   .     S
C958   C960    1.396   .     A
C959   O1084   1.382   .     S
C960   O1157   1.389   1_455 S
C961   H1000   1.077   .     S
C961   C963    1.411   .     A
C962   H999    1.077   .     S
C962   C964    1.409   .     A
C963   C965    1.407   .     A
C963   C967    1.418   .     A
C964   C968    1.421   .     A
C964   C966    1.412   .     A
C965   C239    1.399   1_556 S
C967   C266    1.424   1_556 S
Cu969  O981    1.964   .     S
Cu969  O988    1.975   .     S
Cu969  O985    1.960   .     S
Cu969  N979    2.035   .     S
Cu969  O984    1.964   .     S
Cu969  Cu1126  2.708   1_455 S
Cu970  O987    1.975   .     S
Cu970  O982    1.964   .     S
Cu970  O986    1.960   .     S
Cu970  N980    2.035   .     S
Cu970  O983    1.964   .     S
Cu970  Cu1047  2.708   .     S
O981   C1093   1.300   1_455 S
O982   C1016   1.300   .     S
O985   C1109   1.305   1_455 S
O986   C1032   1.303   .     S
O989   C990    1.411   .     S
C990   H992    1.114   .     S
C990   H991    1.111   .     S
C990   H993    1.109   .     S
O994   C995    1.412   .     S
C995   H996    1.111   .     S
C995   H997    1.114   .     S
C995   H998    1.109   .     S
O1001  C1002   1.409   .     S
O1001  C1038   1.389   .     S
C1002  H1004   1.109   .     S
C1002  H1005   1.110   .     S
C1002  H1003   1.114   .     S
O1006  C1007   1.410   .     S
O1006  C1115   1.382   1_455 S
C1007  H1010   1.114   .     S
C1007  H1008   1.109   .     S
C1007  H1165   1.114   1_455 S
H1009  C1085   1.114   .     S
C1015  C1026   1.451   .     S
C1015  O1061   1.300   .     A
C1015  O1137   1.300   .     S
C1016  O1062   1.300   .     A
C1017  H1089   1.077   .     S
C1017  C1019   1.396   .     A
C1017  C1046   1.407   .     A
C1018  C1020   1.391   .     A
C1018  H1090   1.077   .     S
C1018  C1045   1.402   .     A
C1019  O1067   1.382   .     S
C1020  O1072   1.377   .     S
C1020  C342    1.404   1_556 S
C1021  H1091   1.083   .     S
C1021  C1026   1.401   .     A
C1022  H1092   1.083   .     S
C1022  C1258   1.384   .     S
C1023  H1051   1.083   .     S
C1023  C1025   1.401   .     A
C1023  C1255   1.383   .     S
C1024  H1052   1.083   .     S
C1025  C1094   1.451   .     S
C1025  C1100   1.401   .     S
C1026  C1102   1.401   .     S
C1027  H1053   1.082   .     S
C1027  C1029   1.425   .     A
C1027  N1058   1.370   .     A
C1028  C1030   1.425   .     A
C1028  H1054   1.082   .     S
C1028  N1057   1.370   .     A
C1029  H1055   1.081   .     S
C1029  N1057   1.370   .     A
C1030  N1058   1.370   .     A
C1030  H1056   1.082   .     S
C1031  O1065   1.300   .     A
C1031  C1033   1.462   .     S
C1031  O1141   1.305   .     S
C1032  O1066   1.301   .     A
C1032  C1034   1.461   .     S
C1033  C1037   1.399   .     A
C1033  C1039   1.405   .     A
C1034  C1038   1.397   .     A
C1034  C1040   1.402   .     A
C1035  C1043   1.395   .     A
C1035  H1049   1.062   .     S
C1035  C1037   1.386   .     A
C1036  C1044   1.404   .     A
C1036  H1050   1.063   .     S
C1036  C1038   1.396   .     A
C1037  O1162   1.382   .     S
C1039  H1078   1.077   .     S
C1039  C1041   1.411   .     A
C1040  H1077   1.077   .     S
C1040  C1042   1.409   .     A
C1041  C1043   1.407   .     A
C1041  C1045   1.418   .     A
C1042  C1046   1.421   .     A
C1042  C1044   1.412   .     A
C1043  C317    1.399   1_556 S
C1045  C344    1.424   1_556 S
Cu1047 O1059   1.964   .     S
Cu1047 O1066   1.975   .     S
Cu1047 O1063   1.960   .     S
Cu1047 N1057   2.035   .     S
Cu1047 O1062   1.964   .     S
Cu1048 O1065   1.975   .     S
Cu1048 O1060   1.964   .     S
Cu1048 O1064   1.960   .     S
Cu1048 N1058   2.035   .     S
Cu1048 O1061   1.964   .     S
Cu1048 Cu1125  2.708   .     S
O1060  C1094   1.300   .     S
O1064  C1110   1.303   .     S
O1067  C1068   1.411   .     S
C1068  H1070   1.114   .     S
C1068  H1069   1.111   .     S
C1068  H1071   1.109   .     S
O1072  C1073   1.412   .     S
C1073  H1074   1.111   .     S
C1073  H1075   1.114   .     S
C1073  H1076   1.109   .     S
O1079  C1080   1.409   .     S
O1079  C1116   1.389   .     S
C1080  H1082   1.109   .     S
C1080  H1083   1.110   .     S
C1080  H1081   1.114   .     S
O1084  C1085   1.410   .     S
C1085  H1088   1.114   .     S
C1085  H1086   1.109   .     S
H1087  C1163   1.114   .     S
C1093  C1104   1.451   .     S
C1093  O1139   1.300   .     A
C1093  O981    1.300   1_655 S
C1094  O1140   1.300   .     A
C1095  H1167   1.077   .     S
C1095  C1097   1.396   .     A
C1095  C1124   1.407   .     A
C1096  C1098   1.391   .     A
C1096  H1168   1.077   .     S
C1096  C1123   1.402   .     A
C1097  O1145   1.382   .     S
C1098  O1150   1.377   .     S
C1098  C420    1.404   1_556 S
C1099  H1169   1.083   .     S
C1099  C1104   1.401   .     A
C1100  H1170   1.083   .     S
C1100  C1336   1.384   .     S
C1101  H1129   1.083   .     S
C1101  C1103   1.401   .     A
C1101  C1333   1.383   .     S
C1102  H1130   1.083   .     S
C1103  C938    1.451   1_655 S
C1103  C944    1.401   1_655 S
C1104  C946    1.401   1_655 S
C1105  H1131   1.082   .     S
C1105  C1107   1.425   .     A
C1105  N1136   1.370   .     A
C1106  C1108   1.425   .     A
C1106  H1132   1.082   .     S
C1106  N1135   1.370   .     A
C1107  H1133   1.081   .     S
C1107  N1135   1.370   .     A
C1108  N1136   1.370   .     A
C1108  H1134   1.082   .     S
C1109  O1143   1.300   .     A
C1109  C1111   1.462   .     S
C1109  O985    1.305   1_655 S
C1110  O1144   1.301   .     A
C1110  C1112   1.461   .     S
C1111  C1115   1.399   .     A
C1111  C1117   1.405   .     A
C1112  C1116   1.397   .     A
C1112  C1118   1.402   .     A
C1113  C1121   1.395   .     A
C1113  H1127   1.062   .     S
C1113  C1115   1.386   .     A
C1114  C1122   1.404   .     A
C1114  H1128   1.063   .     S
C1114  C1116   1.396   .     A
C1115  O1006   1.382   1_655 S
C1117  H1156   1.077   .     S
C1117  C1119   1.411   .     A
C1118  H1155   1.077   .     S
C1118  C1120   1.409   .     A
C1119  C1121   1.407   .     A
C1119  C1123   1.418   .     A
C1120  C1124   1.421   .     A
C1120  C1122   1.412   .     A
C1121  C395    1.399   1_556 S
C1123  C422    1.424   1_556 S
Cu1125 O1137   1.964   .     S
Cu1125 O1144   1.975   .     S
Cu1125 O1141   1.960   .     S
Cu1125 N1135   2.035   .     S
Cu1125 O1140   1.964   .     S
Cu1126 O1143   1.975   .     S
Cu1126 O1138   1.964   .     S
Cu1126 O1142   1.960   .     S
Cu1126 N1136   2.035   .     S
Cu1126 O1139   1.964   .     S
Cu1126 Cu969   2.708   1_655 S
O1138  C938    1.300   1_655 S
O1142  C954    1.303   1_655 S
O1145  C1146   1.411   .     S
C1146  H1148   1.114   .     S
C1146  H1147   1.111   .     S
C1146  H1149   1.109   .     S
O1150  C1151   1.412   .     S
C1151  H1152   1.111   .     S
C1151  H1153   1.114   .     S
C1151  H1154   1.109   .     S
O1157  C1158   1.409   .     S
O1157  C960    1.389   1_655 S
C1158  H1160   1.109   .     S
C1158  H1161   1.110   .     S
C1158  H1159   1.114   .     S
O1162  C1163   1.410   .     S
C1163  H1166   1.114   .     S
C1163  H1164   1.109   .     S
H1165  C1007   1.114   1_655 S
C1171  C1182   1.451   .     S
C1171  O1217   1.300   .     A
C1171  O1293   1.300   .     S
C1172  O1218   1.300   .     A
C1172  C1337   1.451   1_455 S
C1172  O1372   1.300   1_455 S
C1173  H1245   1.077   .     S
C1173  C1175   1.396   .     A
C1173  C1202   1.407   .     A
C1174  C1176   1.391   .     A
C1174  H1246   1.077   .     S
C1174  C1201   1.402   .     A
C1175  O1223   1.382   .     S
C1176  O1228   1.377   .     S
C1176  C498    1.404   1_556 S
C1177  H1247   1.083   .     S
C1177  C1182   1.401   .     A
C1178  H1248   1.083   .     S
C1178  C712    1.384   1_565 S
C1178  C1337   1.401   1_455 S
C1179  H1207   1.083   .     S
C1179  C1181   1.401   .     A
C1179  C709    1.383   1_565 S
C1180  H1208   1.083   .     S
C1180  C1338   1.401   1_455 S
C1181  C1250   1.451   .     S
C1181  C1256   1.401   .     S
C1182  C1258   1.401   .     S
C1183  H1209   1.082   .     S
C1183  C1185   1.425   .     A
C1183  N1214   1.370   .     A
C1184  C1186   1.425   .     A
C1184  H1210   1.082   .     S
C1184  N1213   1.370   .     A
C1185  H1211   1.081   .     S
C1185  N1213   1.370   .     A
C1186  N1214   1.370   .     A
C1186  H1212   1.082   .     S
C1187  O1221   1.300   .     A
C1187  C1189   1.462   .     S
C1187  O1297   1.305   .     S
C1188  O1222   1.301   .     A
C1188  C1190   1.461   .     S
C1188  O1376   1.303   1_455 S
C1189  C1193   1.399   .     A
C1189  C1195   1.405   .     A
C1190  C1194   1.397   .     A
C1190  C1196   1.402   .     A
C1191  C1199   1.395   .     A
C1191  H1205   1.062   .     S
C1191  C1193   1.386   .     A
C1192  C1200   1.404   .     A
C1192  H1206   1.063   .     S
C1192  C1194   1.396   .     A
C1193  O1318   1.382   .     S
C1194  O1391   1.389   1_455 S
C1195  H1234   1.077   .     S
C1195  C1197   1.411   .     A
C1196  H1233   1.077   .     S
C1196  C1198   1.409   .     A
C1197  C1199   1.407   .     A
C1197  C1201   1.418   .     A
C1198  C1202   1.421   .     A
C1198  C1200   1.412   .     A
C1199  C473    1.399   1_556 S
C1201  C500    1.424   1_556 S
Cu1203 O1215   1.964   .     S
Cu1203 O1222   1.975   .     S
Cu1203 O1219   1.960   .     S
Cu1203 N1213   2.035   .     S
Cu1203 O1218   1.964   .     S
Cu1203 Cu1360  2.708   1_455 S
Cu1204 O1221   1.975   .     S
Cu1204 O1216   1.964   .     S
Cu1204 O1220   1.960   .     S
Cu1204 N1214   2.035   .     S
Cu1204 O1217   1.964   .     S
Cu1204 Cu1281  2.708   .     S
O1215  C1327   1.300   1_455 S
O1216  C1250   1.300   .     S
O1219  C1343   1.305   1_455 S
O1220  C1266   1.303   .     S
O1223  C1224   1.411   .     S
C1224  H1226   1.114   .     S
C1224  H1225   1.111   .     S
C1224  H1227   1.109   .     S
O1228  C1229   1.412   .     S
C1229  H1230   1.111   .     S
C1229  H1231   1.114   .     S
C1229  H1232   1.109   .     S
O1235  C1236   1.409   .     S
O1235  C1272   1.389   .     S
C1236  H1238   1.109   .     S
C1236  H1239   1.110   .     S
C1236  H1237   1.114   .     S
O1240  C1241   1.410   .     S
O1240  C1349   1.382   1_455 S
C1241  H1244   1.114   .     S
C1241  H1242   1.109   .     S
C1241  H1399   1.114   1_455 S
H1243  C1319   1.114   .     S
C1249  C1260   1.451   .     S
C1249  O1295   1.300   .     A
C1249  O1371   1.300   .     S
C1250  O1296   1.300   .     A
C1251  H1323   1.077   .     S
C1251  C1253   1.396   .     A
C1251  C1280   1.407   .     A
C1252  C1254   1.391   .     A
C1252  H1324   1.077   .     S
C1252  C1279   1.402   .     A
C1253  O1301   1.382   .     S
C1254  O1306   1.377   .     S
C1254  C576    1.404   1_556 S
C1255  H1325   1.083   .     S
C1255  C1260   1.401   .     A
C1256  H1326   1.083   .     S
C1256  C790    1.384   1_565 S
C1257  H1285   1.083   .     S
C1257  C1259   1.401   .     A
C1257  C787    1.383   1_565 S
C1258  H1286   1.083   .     S
C1259  C1328   1.451   .     S
C1259  C1334   1.401   .     S
C1260  C1336   1.401   .     S
C1261  H1287   1.082   .     S
C1261  C1263   1.425   .     A
C1261  N1292   1.370   .     A
C1262  C1264   1.425   .     A
C1262  H1288   1.082   .     S
C1262  N1291   1.370   .     A
C1263  H1289   1.081   .     S
C1263  N1291   1.370   .     A
C1264  N1292   1.370   .     A
C1264  H1290   1.082   .     S
C1265  O1299   1.300   .     A
C1265  C1267   1.462   .     S
C1265  O1375   1.305   .     S
C1266  O1300   1.301   .     A
C1266  C1268   1.461   .     S
C1267  C1271   1.399   .     A
C1267  C1273   1.405   .     A
C1268  C1272   1.397   .     A
C1268  C1274   1.402   .     A
C1269  C1277   1.395   .     A
C1269  H1283   1.062   .     S
C1269  C1271   1.386   .     A
C1270  C1278   1.404   .     A
C1270  H1284   1.063   .     S
C1270  C1272   1.396   .     A
C1271  O1396   1.382   .     S
C1273  H1312   1.077   .     S
C1273  C1275   1.411   .     A
C1274  H1311   1.077   .     S
C1274  C1276   1.409   .     A
C1275  C1277   1.407   .     A
C1275  C1279   1.418   .     A
C1276  C1280   1.421   .     A
C1276  C1278   1.412   .     A
C1277  C551    1.399   1_556 S
C1279  C578    1.424   1_556 S
Cu1281 O1293   1.964   .     S
Cu1281 O1300   1.975   .     S
Cu1281 O1297   1.960   .     S
Cu1281 N1291   2.035   .     S
Cu1281 O1296   1.964   .     S
Cu1282 O1299   1.975   .     S
Cu1282 O1294   1.964   .     S
Cu1282 O1298   1.960   .     S
Cu1282 N1292   2.035   .     S
Cu1282 O1295   1.964   .     S
Cu1282 Cu1359  2.708   .     S
O1294  C1328   1.300   .     S
O1298  C1344   1.303   .     S
O1301  C1302   1.411   .     S
C1302  H1304   1.114   .     S
C1302  H1303   1.111   .     S
C1302  H1305   1.109   .     S
O1306  C1307   1.412   .     S
C1307  H1308   1.111   .     S
C1307  H1309   1.114   .     S
C1307  H1310   1.109   .     S
O1313  C1314   1.409   .     S
O1313  C1350   1.389   .     S
C1314  H1316   1.109   .     S
C1314  H1317   1.110   .     S
C1314  H1315   1.114   .     S
O1318  C1319   1.410   .     S
C1319  H1322   1.114   .     S
C1319  H1320   1.109   .     S
H1321  C1397   1.114   .     S
C1327  C1338   1.451   .     S
C1327  O1373   1.300   .     A
C1327  O1215   1.300   1_655 S
C1328  O1374   1.300   .     A
C1329  H1401   1.077   .     S
C1329  C1331   1.396   .     A
C1329  C1358   1.407   .     A
C1330  C1332   1.391   .     A
C1330  H1402   1.077   .     S
C1330  C1357   1.402   .     A
C1331  O1379   1.382   .     S
C1332  O1384   1.377   .     S
C1332  C654    1.404   1_556 S
C1333  H1403   1.083   .     S
C1333  C1338   1.401   .     A
C1334  H1404   1.083   .     S
C1334  C868    1.384   1_565 S
C1335  H1363   1.083   .     S
C1335  C1337   1.401   .     A
C1335  C865    1.383   1_565 S
C1336  H1364   1.083   .     S
C1337  C1172   1.451   1_655 S
C1337  C1178   1.401   1_655 S
C1338  C1180   1.401   1_655 S
C1339  H1365   1.082   .     S
C1339  C1341   1.425   .     A
C1339  N1370   1.370   .     A
C1340  C1342   1.425   .     A
C1340  H1366   1.082   .     S
C1340  N1369   1.370   .     A
C1341  H1367   1.081   .     S
C1341  N1369   1.370   .     A
C1342  N1370   1.370   .     A
C1342  H1368   1.082   .     S
C1343  O1377   1.300   .     A
C1343  C1345   1.462   .     S
C1343  O1219   1.305   1_655 S
C1344  O1378   1.301   .     A
C1344  C1346   1.461   .     S
C1345  C1349   1.399   .     A
C1345  C1351   1.405   .     A
C1346  C1350   1.397   .     A
C1346  C1352   1.402   .     A
C1347  C1355   1.395   .     A
C1347  H1361   1.062   .     S
C1347  C1349   1.386   .     A
C1348  C1356   1.404   .     A
C1348  H1362   1.063   .     S
C1348  C1350   1.396   .     A
C1349  O1240   1.382   1_655 S
C1351  H1390   1.077   .     S
C1351  C1353   1.411   .     A
C1352  H1389   1.077   .     S
C1352  C1354   1.409   .     A
C1353  C1355   1.407   .     A
C1353  C1357   1.418   .     A
C1354  C1358   1.421   .     A
C1354  C1356   1.412   .     A
C1355  C629    1.399   1_556 S
C1357  C656    1.424   1_556 S
Cu1359 O1371   1.964   .     S
Cu1359 O1378   1.975   .     S
Cu1359 O1375   1.960   .     S
Cu1359 N1369   2.035   .     S
Cu1359 O1374   1.964   .     S
Cu1360 O1377   1.975   .     S
Cu1360 O1372   1.964   .     S
Cu1360 O1376   1.960   .     S
Cu1360 N1370   2.035   .     S
Cu1360 O1373   1.964   .     S
Cu1360 Cu1203  2.708   1_655 S
O1372  C1172   1.300   1_655 S
O1376  C1188   1.303   1_655 S
O1379  C1380   1.411   .     S
C1380  H1382   1.114   .     S
C1380  H1381   1.111   .     S
C1380  H1383   1.109   .     S
O1384  C1385   1.412   .     S
C1385  H1386   1.111   .     S
C1385  H1387   1.114   .     S
C1385  H1388   1.109   .     S
O1391  C1392   1.409   .     S
O1391  C1194   1.389   1_655 S
C1392  H1394   1.109   .     S
C1392  H1395   1.110   .     S
C1392  H1393   1.114   .     S
O1396  C1397   1.410   .     S
C1397  H1400   1.114   .     S
C1397  H1398   1.109   .     S
H1399  C1241   1.114   1_655 S
