data_str_m2_o10_o17_pcu_sym.191
_audit_creation_date              2020-01-03
_audit_creation_method            'Materials Studio'
_symmetry_space_group_name_H-M    'P1'
_symmetry_Int_Tables_number       1
_symmetry_cell_setting            triclinic
loop_
_symmetry_equiv_pos_as_xyz
  x,y,z
_cell_length_a                    30.1256
_cell_length_b                    26.5175
_cell_length_c                    22.5700
_cell_angle_alpha                 103.1437
_cell_angle_beta                  94.1387
_cell_angle_gamma                 93.1854
loop_
_atom_site_label
_atom_site_type_symbol
_atom_site_fract_x
_atom_site_fract_y
_atom_site_fract_z
_atom_site_U_iso_or_equiv
_atom_site_adp_type
_atom_site_occupancy
O1     O     0.25326   0.09538   0.20659   0.00000  Uiso   1.00
O2     O     0.24675   0.23796   0.12674   0.00000  Uiso   1.00
O3     O     0.24480   0.08559   0.10279   0.00000  Uiso   1.00
O4     O     0.25520   0.24774   0.23055   0.00000  Uiso   1.00
C5     C     0.24667   0.06680   0.15129   0.00000  Uiso   1.00
C6     C     0.25193   0.26646   0.18177   0.00000  Uiso   1.00
O7     O     0.18936   0.17155   0.21857   0.00000  Uiso   1.00
O8     O     0.31065   0.16179   0.11476   0.00000  Uiso   1.00
O9     O     0.18090   0.16176   0.11477   0.00000  Uiso   1.00
O10    O     0.31910   0.17157   0.21857   0.00000  Uiso   1.00
C11    C     0.16472   0.16711   0.16783   0.00000  Uiso   1.00
C12    C     0.33527   0.16534   0.16557   0.00000  Uiso   1.00
Cu13   Cu    0.25501   0.17246   0.22813   0.00000  Uiso   1.00
Cu14   Cu    0.24500   0.16087   0.10521   0.00000  Uiso   1.00
C15    C     0.40922   0.21316   0.18988   0.00000  Uiso   1.00
C16    C     0.09086   0.12127   0.16837   0.00000  Uiso   1.00
C17    C     0.38371   0.16649   0.16389   0.00000  Uiso   1.00
C18    C     0.11665   0.16759   0.17129   0.00000  Uiso   1.00
C19    C     0.40379   0.12182   0.13659   0.00000  Uiso   1.00
C20    C     0.09690   0.21506   0.18325   0.00000  Uiso   1.00
C21    C     0.45052   0.12203   0.14167   0.00000  Uiso   1.00
C22    C     0.05047   0.21535   0.18733   0.00000  Uiso   1.00
C23    C     0.47690   0.16891   0.16712   0.00000  Uiso   1.00
C24    C     0.02375   0.16823   0.16951   0.00000  Uiso   1.00
C25    C     0.45660   0.21600   0.19047   0.00000  Uiso   1.00
C26    C     0.04411   0.12033   0.15571   0.00000  Uiso   1.00
C27    C     0.47101   0.07551   0.12302   0.00000  Uiso   1.00
C28    C     0.03077   0.26166   0.20972   0.00000  Uiso   1.00
C29    C     0.01741   0.07343   0.12989   0.00000  Uiso   1.00
C30    C     0.48454   0.26312   0.21407   0.00000  Uiso   1.00
H31    H     0.45024   0.04011   0.10524   0.00000  Uiso   1.00
H32    H     0.05220   0.29677   0.22545   0.00000  Uiso   1.00
C33    C     0.23911   0.01113   0.14418   0.00000  Uiso   1.00
C34    C     0.25846   0.32202   0.18793   0.00000  Uiso   1.00
N35    N     0.23745   0.15214   0.01284   0.00000  Uiso   1.00
N36    N     0.26256   0.18119   0.32049   0.00000  Uiso   1.00
N37    N     0.38539   0.25747   0.21263   0.00000  Uiso   1.00
O38    O     0.37251   0.26467   0.26755   0.00000  Uiso   1.00
O39    O     0.36688   0.28134   0.17398   0.00000  Uiso   1.00
N40    N     0.10956   0.08254   0.19627   0.00000  Uiso   1.00
O41    O     0.14979   0.06902   0.18788   0.00000  Uiso   1.00
O42    O     0.09083   0.07085   0.24198   0.00000  Uiso   1.00
N43    N     0.37670   0.07646   0.10346   0.00000  Uiso   1.00
O44    O     0.34887   0.05263   0.13118   0.00000  Uiso   1.00
O45    O     0.38081   0.05807   0.04570   0.00000  Uiso   1.00
N46    N     0.12426   0.26275   0.19362   0.00000  Uiso   1.00
O47    O     0.11790   0.29424   0.15796   0.00000  Uiso   1.00
O48    O     0.15528   0.27491   0.23867   0.00000  Uiso   1.00
C49    C     0.03870   0.02228   0.10751   0.00000  Uiso   1.00
C50    C     0.00748   0.30819   0.07561   0.00000  Uiso   1.00
H51    H     0.48441   0.29745   0.10755   0.00000  Uiso   1.00
H52    H     0.48770   0.31587   0.03609   0.00000  Uiso   1.00
H53    H     0.02748   0.27463   0.05925   0.00000  Uiso   1.00
H54    H     0.06424   0.02817   0.07609   0.00000  Uiso   1.00
H55    H     0.05519   0.01132   0.14715   0.00000  Uiso   1.00
C56    C     0.46553   0.31472   0.24256   0.00000  Uiso   1.00
C57    C     0.49812   0.02855   0.26972   0.00000  Uiso   1.00
H58    H     0.02463   0.01987   0.30182   0.00000  Uiso   1.00
H59    H     0.01286   0.04222   0.23255   0.00000  Uiso   1.00
H60    H     0.47973   0.06060   0.29512   0.00000  Uiso   1.00
H61    H     0.44334   0.32620   0.20726   0.00000  Uiso   1.00
H62    H     0.44639   0.30907   0.28076   0.00000  Uiso   1.00
C63    C     0.20770   0.31287   0.08941   0.00000  Uiso   1.00
C64    C     0.17613   0.00845   0.05474   0.00000  Uiso   1.00
H65    H     0.16081   0.04004   0.08500   0.00000  Uiso   1.00
H66    H     0.19379   0.02462   0.02146   0.00000  Uiso   1.00
H67    H     0.14876   0.31409   0.02852   0.00000  Uiso   1.00
H68    H     0.22817   0.29006   0.05540   0.00000  Uiso   1.00
H69    H     0.18557   0.28519   0.10575   0.00000  Uiso   1.00
C70    C     0.29253   0.01664   0.24040   0.00000  Uiso   1.00
C71    C     0.27103   0.03377   0.29987   0.00000  Uiso   1.00
H72    H     0.24018   0.05286   0.29207   0.00000  Uiso   1.00
H73    H     0.26281   0.33296   0.31872   0.00000  Uiso   1.00
H74    H     0.29451   0.06130   0.00046   0.00000  Uiso   1.00
H75    H     0.31776   0.32346   0.24889   0.00000  Uiso   1.00
H76    H     0.31249   0.04928   0.22975   0.00000  Uiso   1.00
N77    N     0.19278   0.14872   0.32529   0.00000  Uiso   1.00
O78    O     0.17154   0.19089   0.00037   0.00000  Uiso   1.00
O79    O     0.16974   0.10459   0.31801   0.00000  Uiso   1.00
N80    N     0.30604   0.19161   0.01336   0.00000  Uiso   1.00
O81    O     0.33484   0.15685   0.00003   0.00000  Uiso   1.00
O82    O     0.32030   0.23928   0.03916   0.00000  Uiso   1.00
O83    O     0.75326   0.09538   0.20659   0.00000  Uiso   1.00
O84    O     0.74675   0.23796   0.12674   0.00000  Uiso   1.00
O85    O     0.74480   0.08559   0.10279   0.00000  Uiso   1.00
O86    O     0.75520   0.24774   0.23055   0.00000  Uiso   1.00
C87    C     0.74667   0.06680   0.15129   0.00000  Uiso   1.00
C88    C     0.75193   0.26646   0.18177   0.00000  Uiso   1.00
O89    O     0.68936   0.17155   0.21857   0.00000  Uiso   1.00
O90    O     0.81065   0.16179   0.11476   0.00000  Uiso   1.00
O91    O     0.68090   0.16176   0.11477   0.00000  Uiso   1.00
O92    O     0.81910   0.17157   0.21857   0.00000  Uiso   1.00
C93    C     0.66472   0.16711   0.16783   0.00000  Uiso   1.00
C94    C     0.83527   0.16534   0.16557   0.00000  Uiso   1.00
Cu95   Cu    0.75501   0.17246   0.22813   0.00000  Uiso   1.00
Cu96   Cu    0.74500   0.16087   0.10521   0.00000  Uiso   1.00
C97    C     0.90922   0.21316   0.18988   0.00000  Uiso   1.00
C98    C     0.59086   0.12127   0.16837   0.00000  Uiso   1.00
C99    C     0.88371   0.16649   0.16389   0.00000  Uiso   1.00
C100   C     0.61665   0.16759   0.17129   0.00000  Uiso   1.00
C101   C     0.90379   0.12182   0.13659   0.00000  Uiso   1.00
C102   C     0.59690   0.21506   0.18325   0.00000  Uiso   1.00
C103   C     0.95052   0.12203   0.14167   0.00000  Uiso   1.00
C104   C     0.55047   0.21535   0.18733   0.00000  Uiso   1.00
C105   C     0.97690   0.16891   0.16712   0.00000  Uiso   1.00
C106   C     0.52375   0.16823   0.16951   0.00000  Uiso   1.00
C107   C     0.95660   0.21600   0.19047   0.00000  Uiso   1.00
C108   C     0.54411   0.12033   0.15571   0.00000  Uiso   1.00
C109   C     0.97101   0.07551   0.12302   0.00000  Uiso   1.00
C110   C     0.53077   0.26166   0.20972   0.00000  Uiso   1.00
C111   C     0.51741   0.07343   0.12989   0.00000  Uiso   1.00
C112   C     0.98454   0.26312   0.21407   0.00000  Uiso   1.00
H113   H     0.95024   0.04011   0.10524   0.00000  Uiso   1.00
H114   H     0.55220   0.29677   0.22545   0.00000  Uiso   1.00
C115   C     0.73911   0.01113   0.14418   0.00000  Uiso   1.00
C116   C     0.75846   0.32202   0.18793   0.00000  Uiso   1.00
N117   N     0.73745   0.15214   0.01284   0.00000  Uiso   1.00
N118   N     0.76256   0.18119   0.32049   0.00000  Uiso   1.00
N119   N     0.88539   0.25747   0.21263   0.00000  Uiso   1.00
O120   O     0.87251   0.26467   0.26755   0.00000  Uiso   1.00
O121   O     0.86688   0.28134   0.17398   0.00000  Uiso   1.00
N122   N     0.60956   0.08254   0.19627   0.00000  Uiso   1.00
O123   O     0.64979   0.06902   0.18788   0.00000  Uiso   1.00
O124   O     0.59083   0.07085   0.24198   0.00000  Uiso   1.00
N125   N     0.87670   0.07646   0.10346   0.00000  Uiso   1.00
O126   O     0.84887   0.05263   0.13118   0.00000  Uiso   1.00
O127   O     0.88081   0.05807   0.04570   0.00000  Uiso   1.00
N128   N     0.62426   0.26275   0.19362   0.00000  Uiso   1.00
O129   O     0.61790   0.29424   0.15796   0.00000  Uiso   1.00
O130   O     0.65528   0.27491   0.23867   0.00000  Uiso   1.00
C131   C     0.53870   0.02228   0.10751   0.00000  Uiso   1.00
C132   C     0.50748   0.30819   0.07561   0.00000  Uiso   1.00
H133   H     0.98441   0.29745   0.10755   0.00000  Uiso   1.00
H134   H     0.98770   0.31587   0.03609   0.00000  Uiso   1.00
H135   H     0.52748   0.27463   0.05925   0.00000  Uiso   1.00
H136   H     0.56424   0.02817   0.07609   0.00000  Uiso   1.00
H137   H     0.55519   0.01132   0.14715   0.00000  Uiso   1.00
C138   C     0.96553   0.31472   0.24256   0.00000  Uiso   1.00
C139   C     0.99812   0.02855   0.26972   0.00000  Uiso   1.00
H140   H     0.52463   0.01987   0.30182   0.00000  Uiso   1.00
H141   H     0.51286   0.04222   0.23255   0.00000  Uiso   1.00
H142   H     0.97973   0.06060   0.29512   0.00000  Uiso   1.00
H143   H     0.94334   0.32620   0.20726   0.00000  Uiso   1.00
H144   H     0.94639   0.30907   0.28076   0.00000  Uiso   1.00
C145   C     0.70770   0.31287   0.08941   0.00000  Uiso   1.00
C146   C     0.67613   0.00845   0.05474   0.00000  Uiso   1.00
H147   H     0.66081   0.04004   0.08500   0.00000  Uiso   1.00
H148   H     0.69379   0.02462   0.02146   0.00000  Uiso   1.00
H149   H     0.64876   0.31409   0.02852   0.00000  Uiso   1.00
H150   H     0.72817   0.29006   0.05540   0.00000  Uiso   1.00
H151   H     0.68557   0.28519   0.10575   0.00000  Uiso   1.00
C152   C     0.79253   0.01664   0.24040   0.00000  Uiso   1.00
C153   C     0.77103   0.03377   0.29987   0.00000  Uiso   1.00
H154   H     0.74018   0.05286   0.29207   0.00000  Uiso   1.00
H155   H     0.76281   0.33296   0.31872   0.00000  Uiso   1.00
H156   H     0.79451   0.06130   0.00046   0.00000  Uiso   1.00
H157   H     0.81776   0.32346   0.24889   0.00000  Uiso   1.00
H158   H     0.81249   0.04928   0.22975   0.00000  Uiso   1.00
N159   N     0.69278   0.14872   0.32529   0.00000  Uiso   1.00
O160   O     0.67154   0.19089   0.00037   0.00000  Uiso   1.00
O161   O     0.66974   0.10459   0.31801   0.00000  Uiso   1.00
N162   N     0.80604   0.19161   0.01336   0.00000  Uiso   1.00
O163   O     0.83484   0.15685   0.00003   0.00000  Uiso   1.00
O164   O     0.82030   0.23928   0.03916   0.00000  Uiso   1.00
O165   O     0.25326   0.42871   0.20659   0.00000  Uiso   1.00
O166   O     0.24675   0.57129   0.12674   0.00000  Uiso   1.00
O167   O     0.24480   0.41892   0.10279   0.00000  Uiso   1.00
O168   O     0.25520   0.58108   0.23055   0.00000  Uiso   1.00
C169   C     0.24667   0.40014   0.15129   0.00000  Uiso   1.00
C170   C     0.25193   0.59980   0.18177   0.00000  Uiso   1.00
O171   O     0.18936   0.50488   0.21857   0.00000  Uiso   1.00
O172   O     0.31065   0.49512   0.11476   0.00000  Uiso   1.00
O173   O     0.18090   0.49510   0.11477   0.00000  Uiso   1.00
O174   O     0.31910   0.50490   0.21857   0.00000  Uiso   1.00
C175   C     0.16472   0.50044   0.16783   0.00000  Uiso   1.00
C176   C     0.33527   0.49868   0.16557   0.00000  Uiso   1.00
Cu177  Cu    0.25501   0.50579   0.22813   0.00000  Uiso   1.00
Cu178  Cu    0.24500   0.49421   0.10521   0.00000  Uiso   1.00
C179   C     0.40922   0.54649   0.18988   0.00000  Uiso   1.00
C180   C     0.09086   0.45460   0.16837   0.00000  Uiso   1.00
C181   C     0.38371   0.49982   0.16389   0.00000  Uiso   1.00
C182   C     0.11665   0.50092   0.17129   0.00000  Uiso   1.00
C183   C     0.40379   0.45515   0.13659   0.00000  Uiso   1.00
C184   C     0.09690   0.54840   0.18325   0.00000  Uiso   1.00
C185   C     0.45052   0.45537   0.14167   0.00000  Uiso   1.00
C186   C     0.05047   0.54868   0.18733   0.00000  Uiso   1.00
C187   C     0.47690   0.50224   0.16712   0.00000  Uiso   1.00
C188   C     0.02375   0.50157   0.16951   0.00000  Uiso   1.00
C189   C     0.45660   0.54933   0.19047   0.00000  Uiso   1.00
C190   C     0.04411   0.45367   0.15571   0.00000  Uiso   1.00
C191   C     0.47101   0.40884   0.12302   0.00000  Uiso   1.00
C192   C     0.03077   0.59499   0.20972   0.00000  Uiso   1.00
C193   C     0.01741   0.40676   0.12989   0.00000  Uiso   1.00
C194   C     0.48454   0.59646   0.21407   0.00000  Uiso   1.00
H195   H     0.45024   0.37344   0.10524   0.00000  Uiso   1.00
H196   H     0.05220   0.63010   0.22545   0.00000  Uiso   1.00
C197   C     0.23911   0.34446   0.14418   0.00000  Uiso   1.00
C198   C     0.25846   0.65536   0.18793   0.00000  Uiso   1.00
N199   N     0.23745   0.48547   0.01284   0.00000  Uiso   1.00
N200   N     0.26256   0.51453   0.32049   0.00000  Uiso   1.00
N201   N     0.38539   0.59080   0.21263   0.00000  Uiso   1.00
O202   O     0.37251   0.59800   0.26755   0.00000  Uiso   1.00
O203   O     0.36688   0.61467   0.17398   0.00000  Uiso   1.00
N204   N     0.10956   0.41587   0.19627   0.00000  Uiso   1.00
O205   O     0.14979   0.40235   0.18788   0.00000  Uiso   1.00
O206   O     0.09083   0.40418   0.24198   0.00000  Uiso   1.00
N207   N     0.37670   0.40979   0.10346   0.00000  Uiso   1.00
O208   O     0.34887   0.38596   0.13118   0.00000  Uiso   1.00
O209   O     0.38081   0.39140   0.04570   0.00000  Uiso   1.00
N210   N     0.12426   0.59608   0.19362   0.00000  Uiso   1.00
O211   O     0.11790   0.62757   0.15796   0.00000  Uiso   1.00
O212   O     0.15528   0.60825   0.23867   0.00000  Uiso   1.00
C213   C     0.03870   0.35561   0.10751   0.00000  Uiso   1.00
C214   C     0.00748   0.64153   0.07561   0.00000  Uiso   1.00
H215   H     0.48441   0.63078   0.10755   0.00000  Uiso   1.00
H216   H     0.48770   0.64920   0.03609   0.00000  Uiso   1.00
H217   H     0.02748   0.60796   0.05925   0.00000  Uiso   1.00
H218   H     0.06424   0.36151   0.07609   0.00000  Uiso   1.00
H219   H     0.05519   0.34465   0.14715   0.00000  Uiso   1.00
C220   C     0.46553   0.64805   0.24256   0.00000  Uiso   1.00
C221   C     0.49812   0.36188   0.26972   0.00000  Uiso   1.00
H222   H     0.02463   0.35320   0.30182   0.00000  Uiso   1.00
H223   H     0.01286   0.37556   0.23255   0.00000  Uiso   1.00
H224   H     0.47973   0.39393   0.29512   0.00000  Uiso   1.00
H225   H     0.44334   0.65953   0.20726   0.00000  Uiso   1.00
H226   H     0.44639   0.64240   0.28076   0.00000  Uiso   1.00
C227   C     0.20770   0.64620   0.08941   0.00000  Uiso   1.00
C228   C     0.17613   0.34179   0.05474   0.00000  Uiso   1.00
H229   H     0.16081   0.37337   0.08500   0.00000  Uiso   1.00
H230   H     0.19379   0.35795   0.02146   0.00000  Uiso   1.00
H231   H     0.14876   0.64742   0.02852   0.00000  Uiso   1.00
H232   H     0.22817   0.62340   0.05540   0.00000  Uiso   1.00
H233   H     0.18557   0.61853   0.10575   0.00000  Uiso   1.00
C234   C     0.29253   0.34998   0.24040   0.00000  Uiso   1.00
C235   C     0.27103   0.36711   0.29987   0.00000  Uiso   1.00
H236   H     0.24018   0.38619   0.29207   0.00000  Uiso   1.00
H237   H     0.26281   0.66629   0.31872   0.00000  Uiso   1.00
H238   H     0.29451   0.39463   0.00046   0.00000  Uiso   1.00
H239   H     0.31776   0.65680   0.24889   0.00000  Uiso   1.00
H240   H     0.31249   0.38261   0.22975   0.00000  Uiso   1.00
N241   N     0.19278   0.48206   0.32529   0.00000  Uiso   1.00
O242   O     0.17154   0.52422   0.00037   0.00000  Uiso   1.00
O243   O     0.16974   0.43792   0.31801   0.00000  Uiso   1.00
N244   N     0.30604   0.52495   0.01336   0.00000  Uiso   1.00
O245   O     0.33484   0.49019   0.00003   0.00000  Uiso   1.00
O246   O     0.32030   0.57262   0.03916   0.00000  Uiso   1.00
O247   O     0.75326   0.42871   0.20659   0.00000  Uiso   1.00
O248   O     0.74675   0.57129   0.12674   0.00000  Uiso   1.00
O249   O     0.74480   0.41892   0.10279   0.00000  Uiso   1.00
O250   O     0.75520   0.58108   0.23055   0.00000  Uiso   1.00
C251   C     0.74667   0.40014   0.15129   0.00000  Uiso   1.00
C252   C     0.75193   0.59980   0.18177   0.00000  Uiso   1.00
O253   O     0.68936   0.50488   0.21857   0.00000  Uiso   1.00
O254   O     0.81065   0.49512   0.11476   0.00000  Uiso   1.00
O255   O     0.68090   0.49510   0.11477   0.00000  Uiso   1.00
O256   O     0.81910   0.50490   0.21857   0.00000  Uiso   1.00
C257   C     0.66472   0.50044   0.16783   0.00000  Uiso   1.00
C258   C     0.83527   0.49868   0.16557   0.00000  Uiso   1.00
Cu259  Cu    0.75501   0.50579   0.22813   0.00000  Uiso   1.00
Cu260  Cu    0.74500   0.49421   0.10521   0.00000  Uiso   1.00
C261   C     0.90922   0.54649   0.18988   0.00000  Uiso   1.00
C262   C     0.59086   0.45460   0.16837   0.00000  Uiso   1.00
C263   C     0.88371   0.49982   0.16389   0.00000  Uiso   1.00
C264   C     0.61665   0.50092   0.17129   0.00000  Uiso   1.00
C265   C     0.90379   0.45515   0.13659   0.00000  Uiso   1.00
C266   C     0.59690   0.54840   0.18325   0.00000  Uiso   1.00
C267   C     0.95052   0.45537   0.14167   0.00000  Uiso   1.00
C268   C     0.55047   0.54868   0.18733   0.00000  Uiso   1.00
C269   C     0.97690   0.50224   0.16712   0.00000  Uiso   1.00
C270   C     0.52375   0.50157   0.16951   0.00000  Uiso   1.00
C271   C     0.95660   0.54933   0.19047   0.00000  Uiso   1.00
C272   C     0.54411   0.45367   0.15571   0.00000  Uiso   1.00
C273   C     0.97101   0.40884   0.12302   0.00000  Uiso   1.00
C274   C     0.53077   0.59499   0.20972   0.00000  Uiso   1.00
C275   C     0.51741   0.40676   0.12989   0.00000  Uiso   1.00
C276   C     0.98454   0.59646   0.21407   0.00000  Uiso   1.00
H277   H     0.95024   0.37344   0.10524   0.00000  Uiso   1.00
H278   H     0.55220   0.63010   0.22545   0.00000  Uiso   1.00
C279   C     0.73911   0.34446   0.14418   0.00000  Uiso   1.00
C280   C     0.75846   0.65536   0.18793   0.00000  Uiso   1.00
N281   N     0.73745   0.48547   0.01284   0.00000  Uiso   1.00
N282   N     0.76256   0.51453   0.32049   0.00000  Uiso   1.00
N283   N     0.88539   0.59080   0.21263   0.00000  Uiso   1.00
O284   O     0.87251   0.59800   0.26755   0.00000  Uiso   1.00
O285   O     0.86688   0.61467   0.17398   0.00000  Uiso   1.00
N286   N     0.60956   0.41587   0.19627   0.00000  Uiso   1.00
O287   O     0.64979   0.40235   0.18788   0.00000  Uiso   1.00
O288   O     0.59083   0.40418   0.24198   0.00000  Uiso   1.00
N289   N     0.87670   0.40979   0.10346   0.00000  Uiso   1.00
O290   O     0.84887   0.38596   0.13118   0.00000  Uiso   1.00
O291   O     0.88081   0.39140   0.04570   0.00000  Uiso   1.00
N292   N     0.62426   0.59608   0.19362   0.00000  Uiso   1.00
O293   O     0.61790   0.62757   0.15796   0.00000  Uiso   1.00
O294   O     0.65528   0.60825   0.23867   0.00000  Uiso   1.00
C295   C     0.53870   0.35561   0.10751   0.00000  Uiso   1.00
C296   C     0.50748   0.64153   0.07561   0.00000  Uiso   1.00
H297   H     0.98441   0.63078   0.10755   0.00000  Uiso   1.00
H298   H     0.98770   0.64920   0.03609   0.00000  Uiso   1.00
H299   H     0.52748   0.60796   0.05925   0.00000  Uiso   1.00
H300   H     0.56424   0.36151   0.07609   0.00000  Uiso   1.00
H301   H     0.55519   0.34465   0.14715   0.00000  Uiso   1.00
C302   C     0.96553   0.64805   0.24256   0.00000  Uiso   1.00
C303   C     0.99812   0.36188   0.26972   0.00000  Uiso   1.00
H304   H     0.52463   0.35320   0.30182   0.00000  Uiso   1.00
H305   H     0.51286   0.37556   0.23255   0.00000  Uiso   1.00
H306   H     0.97973   0.39393   0.29512   0.00000  Uiso   1.00
H307   H     0.94334   0.65953   0.20726   0.00000  Uiso   1.00
H308   H     0.94639   0.64240   0.28076   0.00000  Uiso   1.00
C309   C     0.70770   0.64620   0.08941   0.00000  Uiso   1.00
C310   C     0.67613   0.34179   0.05474   0.00000  Uiso   1.00
H311   H     0.66081   0.37337   0.08500   0.00000  Uiso   1.00
H312   H     0.69379   0.35795   0.02146   0.00000  Uiso   1.00
H313   H     0.64876   0.64742   0.02852   0.00000  Uiso   1.00
H314   H     0.72817   0.62340   0.05540   0.00000  Uiso   1.00
H315   H     0.68557   0.61853   0.10575   0.00000  Uiso   1.00
C316   C     0.79253   0.34998   0.24040   0.00000  Uiso   1.00
C317   C     0.77103   0.36711   0.29987   0.00000  Uiso   1.00
H318   H     0.74018   0.38619   0.29207   0.00000  Uiso   1.00
H319   H     0.76281   0.66629   0.31872   0.00000  Uiso   1.00
H320   H     0.79451   0.39463   0.00046   0.00000  Uiso   1.00
H321   H     0.81776   0.65680   0.24889   0.00000  Uiso   1.00
H322   H     0.81249   0.38261   0.22975   0.00000  Uiso   1.00
N323   N     0.69278   0.48206   0.32529   0.00000  Uiso   1.00
O324   O     0.67154   0.52422   0.00037   0.00000  Uiso   1.00
O325   O     0.66974   0.43792   0.31801   0.00000  Uiso   1.00
N326   N     0.80604   0.52495   0.01336   0.00000  Uiso   1.00
O327   O     0.83484   0.49019   0.00003   0.00000  Uiso   1.00
O328   O     0.82030   0.57262   0.03916   0.00000  Uiso   1.00
O329   O     0.25326   0.76204   0.20659   0.00000  Uiso   1.00
O330   O     0.24675   0.90462   0.12674   0.00000  Uiso   1.00
O331   O     0.24480   0.75226   0.10279   0.00000  Uiso   1.00
O332   O     0.25520   0.91441   0.23055   0.00000  Uiso   1.00
C333   C     0.24667   0.73347   0.15129   0.00000  Uiso   1.00
C334   C     0.25193   0.93313   0.18177   0.00000  Uiso   1.00
O335   O     0.18936   0.83821   0.21857   0.00000  Uiso   1.00
O336   O     0.31065   0.82845   0.11476   0.00000  Uiso   1.00
O337   O     0.18090   0.82843   0.11477   0.00000  Uiso   1.00
O338   O     0.31910   0.83824   0.21857   0.00000  Uiso   1.00
C339   C     0.16472   0.83377   0.16783   0.00000  Uiso   1.00
C340   C     0.33527   0.83201   0.16557   0.00000  Uiso   1.00
Cu341  Cu    0.25501   0.83913   0.22813   0.00000  Uiso   1.00
Cu342  Cu    0.24500   0.82754   0.10521   0.00000  Uiso   1.00
C343   C     0.40922   0.87983   0.18988   0.00000  Uiso   1.00
C344   C     0.09086   0.78793   0.16837   0.00000  Uiso   1.00
C345   C     0.38371   0.83315   0.16389   0.00000  Uiso   1.00
C346   C     0.11665   0.83426   0.17129   0.00000  Uiso   1.00
C347   C     0.40379   0.78848   0.13659   0.00000  Uiso   1.00
C348   C     0.09690   0.88173   0.18325   0.00000  Uiso   1.00
C349   C     0.45052   0.78870   0.14167   0.00000  Uiso   1.00
C350   C     0.05047   0.88202   0.18733   0.00000  Uiso   1.00
C351   C     0.47690   0.83558   0.16712   0.00000  Uiso   1.00
C352   C     0.02375   0.83490   0.16951   0.00000  Uiso   1.00
C353   C     0.45660   0.88267   0.19047   0.00000  Uiso   1.00
C354   C     0.04411   0.78700   0.15571   0.00000  Uiso   1.00
C355   C     0.47101   0.74217   0.12302   0.00000  Uiso   1.00
C356   C     0.03077   0.92832   0.20972   0.00000  Uiso   1.00
C357   C     0.01741   0.74010   0.12989   0.00000  Uiso   1.00
C358   C     0.48454   0.92979   0.21407   0.00000  Uiso   1.00
H359   H     0.45024   0.70678   0.10524   0.00000  Uiso   1.00
H360   H     0.05220   0.96344   0.22545   0.00000  Uiso   1.00
C361   C     0.23911   0.67779   0.14418   0.00000  Uiso   1.00
C362   C     0.25846   0.98869   0.18793   0.00000  Uiso   1.00
N363   N     0.23745   0.81881   0.01284   0.00000  Uiso   1.00
N364   N     0.26256   0.84786   0.32049   0.00000  Uiso   1.00
N365   N     0.38539   0.92414   0.21263   0.00000  Uiso   1.00
O366   O     0.37251   0.93134   0.26755   0.00000  Uiso   1.00
O367   O     0.36688   0.94801   0.17398   0.00000  Uiso   1.00
N368   N     0.10956   0.74920   0.19627   0.00000  Uiso   1.00
O369   O     0.14979   0.73568   0.18788   0.00000  Uiso   1.00
O370   O     0.09083   0.73751   0.24198   0.00000  Uiso   1.00
N371   N     0.37670   0.74312   0.10346   0.00000  Uiso   1.00
O372   O     0.34887   0.71930   0.13118   0.00000  Uiso   1.00
O373   O     0.38081   0.72473   0.04570   0.00000  Uiso   1.00
N374   N     0.12426   0.92941   0.19362   0.00000  Uiso   1.00
O375   O     0.11790   0.96090   0.15796   0.00000  Uiso   1.00
O376   O     0.15528   0.94158   0.23867   0.00000  Uiso   1.00
C377   C     0.03870   0.68895   0.10751   0.00000  Uiso   1.00
C378   C     0.00748   0.97486   0.07561   0.00000  Uiso   1.00
H379   H     0.48441   0.96411   0.10755   0.00000  Uiso   1.00
H380   H     0.48770   0.98254   0.03609   0.00000  Uiso   1.00
H381   H     0.02748   0.94130   0.05925   0.00000  Uiso   1.00
H382   H     0.06424   0.69484   0.07609   0.00000  Uiso   1.00
H383   H     0.05519   0.67798   0.14715   0.00000  Uiso   1.00
C384   C     0.46553   0.98139   0.24256   0.00000  Uiso   1.00
C385   C     0.49812   0.69522   0.26972   0.00000  Uiso   1.00
H386   H     0.02463   0.68653   0.30182   0.00000  Uiso   1.00
H387   H     0.01286   0.70889   0.23255   0.00000  Uiso   1.00
H388   H     0.47973   0.72727   0.29512   0.00000  Uiso   1.00
H389   H     0.44334   0.99287   0.20726   0.00000  Uiso   1.00
H390   H     0.44639   0.97574   0.28076   0.00000  Uiso   1.00
C391   C     0.20770   0.97953   0.08941   0.00000  Uiso   1.00
C392   C     0.17613   0.67512   0.05474   0.00000  Uiso   1.00
H393   H     0.16081   0.70671   0.08500   0.00000  Uiso   1.00
H394   H     0.19379   0.69128   0.02146   0.00000  Uiso   1.00
H395   H     0.14876   0.98076   0.02852   0.00000  Uiso   1.00
H396   H     0.22817   0.95673   0.05540   0.00000  Uiso   1.00
H397   H     0.18557   0.95186   0.10575   0.00000  Uiso   1.00
C398   C     0.29253   0.68331   0.24040   0.00000  Uiso   1.00
C399   C     0.27103   0.70044   0.29987   0.00000  Uiso   1.00
H400   H     0.24018   0.71953   0.29207   0.00000  Uiso   1.00
H401   H     0.26281   0.99962   0.31872   0.00000  Uiso   1.00
H402   H     0.29451   0.72796   0.00046   0.00000  Uiso   1.00
H403   H     0.31776   0.99013   0.24889   0.00000  Uiso   1.00
H404   H     0.31249   0.71594   0.22975   0.00000  Uiso   1.00
N405   N     0.19278   0.81539   0.32529   0.00000  Uiso   1.00
O406   O     0.17154   0.85755   0.00037   0.00000  Uiso   1.00
O407   O     0.16974   0.77125   0.31801   0.00000  Uiso   1.00
N408   N     0.30604   0.85828   0.01336   0.00000  Uiso   1.00
O409   O     0.33484   0.82352   0.00003   0.00000  Uiso   1.00
O410   O     0.32030   0.90595   0.03916   0.00000  Uiso   1.00
O411   O     0.75326   0.76204   0.20659   0.00000  Uiso   1.00
O412   O     0.74675   0.90462   0.12674   0.00000  Uiso   1.00
O413   O     0.74480   0.75226   0.10279   0.00000  Uiso   1.00
O414   O     0.75520   0.91441   0.23055   0.00000  Uiso   1.00
C415   C     0.74667   0.73347   0.15129   0.00000  Uiso   1.00
C416   C     0.75193   0.93313   0.18177   0.00000  Uiso   1.00
O417   O     0.68936   0.83821   0.21857   0.00000  Uiso   1.00
O418   O     0.81065   0.82845   0.11476   0.00000  Uiso   1.00
O419   O     0.68090   0.82843   0.11477   0.00000  Uiso   1.00
O420   O     0.81910   0.83824   0.21857   0.00000  Uiso   1.00
C421   C     0.66472   0.83377   0.16783   0.00000  Uiso   1.00
C422   C     0.83527   0.83201   0.16557   0.00000  Uiso   1.00
Cu423  Cu    0.75501   0.83913   0.22813   0.00000  Uiso   1.00
Cu424  Cu    0.74500   0.82754   0.10521   0.00000  Uiso   1.00
C425   C     0.90922   0.87983   0.18988   0.00000  Uiso   1.00
C426   C     0.59086   0.78793   0.16837   0.00000  Uiso   1.00
C427   C     0.88371   0.83315   0.16389   0.00000  Uiso   1.00
C428   C     0.61665   0.83426   0.17129   0.00000  Uiso   1.00
C429   C     0.90379   0.78848   0.13659   0.00000  Uiso   1.00
C430   C     0.59690   0.88173   0.18325   0.00000  Uiso   1.00
C431   C     0.95052   0.78870   0.14167   0.00000  Uiso   1.00
C432   C     0.55047   0.88202   0.18733   0.00000  Uiso   1.00
C433   C     0.97690   0.83558   0.16712   0.00000  Uiso   1.00
C434   C     0.52375   0.83490   0.16951   0.00000  Uiso   1.00
C435   C     0.95660   0.88267   0.19047   0.00000  Uiso   1.00
C436   C     0.54411   0.78700   0.15571   0.00000  Uiso   1.00
C437   C     0.97101   0.74217   0.12302   0.00000  Uiso   1.00
C438   C     0.53077   0.92832   0.20972   0.00000  Uiso   1.00
C439   C     0.51741   0.74010   0.12989   0.00000  Uiso   1.00
C440   C     0.98454   0.92979   0.21407   0.00000  Uiso   1.00
H441   H     0.95024   0.70678   0.10524   0.00000  Uiso   1.00
H442   H     0.55220   0.96344   0.22545   0.00000  Uiso   1.00
C443   C     0.73911   0.67779   0.14418   0.00000  Uiso   1.00
C444   C     0.75846   0.98869   0.18793   0.00000  Uiso   1.00
N445   N     0.73745   0.81881   0.01284   0.00000  Uiso   1.00
N446   N     0.76256   0.84786   0.32049   0.00000  Uiso   1.00
N447   N     0.88539   0.92414   0.21263   0.00000  Uiso   1.00
O448   O     0.87251   0.93134   0.26755   0.00000  Uiso   1.00
O449   O     0.86688   0.94801   0.17398   0.00000  Uiso   1.00
N450   N     0.60956   0.74920   0.19627   0.00000  Uiso   1.00
O451   O     0.64979   0.73568   0.18788   0.00000  Uiso   1.00
O452   O     0.59083   0.73751   0.24198   0.00000  Uiso   1.00
N453   N     0.87670   0.74312   0.10346   0.00000  Uiso   1.00
O454   O     0.84887   0.71930   0.13118   0.00000  Uiso   1.00
O455   O     0.88081   0.72473   0.04570   0.00000  Uiso   1.00
N456   N     0.62426   0.92941   0.19362   0.00000  Uiso   1.00
O457   O     0.61790   0.96090   0.15796   0.00000  Uiso   1.00
O458   O     0.65528   0.94158   0.23867   0.00000  Uiso   1.00
C459   C     0.53870   0.68895   0.10751   0.00000  Uiso   1.00
C460   C     0.50748   0.97486   0.07561   0.00000  Uiso   1.00
H461   H     0.98441   0.96411   0.10755   0.00000  Uiso   1.00
H462   H     0.98770   0.98254   0.03609   0.00000  Uiso   1.00
H463   H     0.52748   0.94130   0.05925   0.00000  Uiso   1.00
H464   H     0.56424   0.69484   0.07609   0.00000  Uiso   1.00
H465   H     0.55519   0.67798   0.14715   0.00000  Uiso   1.00
C466   C     0.96553   0.98139   0.24256   0.00000  Uiso   1.00
C467   C     0.99812   0.69522   0.26972   0.00000  Uiso   1.00
H468   H     0.52463   0.68653   0.30182   0.00000  Uiso   1.00
H469   H     0.51286   0.70889   0.23255   0.00000  Uiso   1.00
H470   H     0.97973   0.72727   0.29512   0.00000  Uiso   1.00
H471   H     0.94334   0.99287   0.20726   0.00000  Uiso   1.00
H472   H     0.94639   0.97574   0.28076   0.00000  Uiso   1.00
C473   C     0.70770   0.97953   0.08941   0.00000  Uiso   1.00
C474   C     0.67613   0.67512   0.05474   0.00000  Uiso   1.00
H475   H     0.66081   0.70671   0.08500   0.00000  Uiso   1.00
H476   H     0.69379   0.69128   0.02146   0.00000  Uiso   1.00
H477   H     0.64876   0.98076   0.02852   0.00000  Uiso   1.00
H478   H     0.72817   0.95673   0.05540   0.00000  Uiso   1.00
H479   H     0.68557   0.95186   0.10575   0.00000  Uiso   1.00
C480   C     0.79253   0.68331   0.24040   0.00000  Uiso   1.00
C481   C     0.77103   0.70044   0.29987   0.00000  Uiso   1.00
H482   H     0.74018   0.71953   0.29207   0.00000  Uiso   1.00
H483   H     0.76281   0.99962   0.31872   0.00000  Uiso   1.00
H484   H     0.79451   0.72796   0.00046   0.00000  Uiso   1.00
H485   H     0.81776   0.99013   0.24889   0.00000  Uiso   1.00
H486   H     0.81249   0.71594   0.22975   0.00000  Uiso   1.00
N487   N     0.69278   0.81539   0.32529   0.00000  Uiso   1.00
O488   O     0.67154   0.85755   0.00037   0.00000  Uiso   1.00
O489   O     0.66974   0.77125   0.31801   0.00000  Uiso   1.00
N490   N     0.80604   0.85828   0.01336   0.00000  Uiso   1.00
O491   O     0.83484   0.82352   0.00003   0.00000  Uiso   1.00
O492   O     0.82030   0.90595   0.03916   0.00000  Uiso   1.00
O493   O     0.25326   0.09538   0.53992   0.00000  Uiso   1.00
O494   O     0.24675   0.23796   0.46008   0.00000  Uiso   1.00
O495   O     0.24480   0.08559   0.43612   0.00000  Uiso   1.00
O496   O     0.25520   0.24774   0.56388   0.00000  Uiso   1.00
C497   C     0.24667   0.06680   0.48462   0.00000  Uiso   1.00
C498   C     0.25193   0.26646   0.51510   0.00000  Uiso   1.00
O499   O     0.18936   0.17155   0.55191   0.00000  Uiso   1.00
O500   O     0.31065   0.16179   0.44809   0.00000  Uiso   1.00
O501   O     0.18090   0.16176   0.44810   0.00000  Uiso   1.00
O502   O     0.31910   0.17157   0.55190   0.00000  Uiso   1.00
C503   C     0.16472   0.16711   0.50116   0.00000  Uiso   1.00
C504   C     0.33527   0.16534   0.49890   0.00000  Uiso   1.00
Cu505  Cu    0.25501   0.17246   0.56146   0.00000  Uiso   1.00
Cu506  Cu    0.24500   0.16087   0.43854   0.00000  Uiso   1.00
C507   C     0.40922   0.21316   0.52321   0.00000  Uiso   1.00
C508   C     0.09086   0.12127   0.50171   0.00000  Uiso   1.00
C509   C     0.38371   0.16649   0.49722   0.00000  Uiso   1.00
C510   C     0.11665   0.16759   0.50462   0.00000  Uiso   1.00
C511   C     0.40379   0.12182   0.46993   0.00000  Uiso   1.00
C512   C     0.09690   0.21506   0.51658   0.00000  Uiso   1.00
C513   C     0.45052   0.12203   0.47500   0.00000  Uiso   1.00
C514   C     0.05047   0.21535   0.52066   0.00000  Uiso   1.00
C515   C     0.47690   0.16891   0.50045   0.00000  Uiso   1.00
C516   C     0.02375   0.16823   0.50285   0.00000  Uiso   1.00
C517   C     0.45660   0.21600   0.52381   0.00000  Uiso   1.00
C518   C     0.04411   0.12033   0.48905   0.00000  Uiso   1.00
C519   C     0.47101   0.07551   0.45635   0.00000  Uiso   1.00
C520   C     0.03077   0.26166   0.54306   0.00000  Uiso   1.00
C521   C     0.01741   0.07343   0.46323   0.00000  Uiso   1.00
C522   C     0.48454   0.26312   0.54740   0.00000  Uiso   1.00
H523   H     0.45024   0.04011   0.43857   0.00000  Uiso   1.00
H524   H     0.05220   0.29677   0.55878   0.00000  Uiso   1.00
C525   C     0.23911   0.01113   0.47752   0.00000  Uiso   1.00
C526   C     0.25846   0.32202   0.52127   0.00000  Uiso   1.00
N527   N     0.23745   0.15214   0.34617   0.00000  Uiso   1.00
N528   N     0.26256   0.18119   0.65383   0.00000  Uiso   1.00
N529   N     0.38539   0.25747   0.54597   0.00000  Uiso   1.00
O530   O     0.37251   0.26467   0.60089   0.00000  Uiso   1.00
O531   O     0.36688   0.28134   0.50731   0.00000  Uiso   1.00
N532   N     0.10956   0.08254   0.52961   0.00000  Uiso   1.00
O533   O     0.14979   0.06902   0.52121   0.00000  Uiso   1.00
O534   O     0.09083   0.07085   0.57532   0.00000  Uiso   1.00
N535   N     0.37670   0.07646   0.43679   0.00000  Uiso   1.00
O536   O     0.34887   0.05263   0.46452   0.00000  Uiso   1.00
O537   O     0.38081   0.05807   0.37903   0.00000  Uiso   1.00
N538   N     0.12426   0.26275   0.52695   0.00000  Uiso   1.00
O539   O     0.11790   0.29424   0.49130   0.00000  Uiso   1.00
O540   O     0.15528   0.27491   0.57201   0.00000  Uiso   1.00
C541   C     0.03870   0.02228   0.44084   0.00000  Uiso   1.00
C542   C     0.00748   0.30819   0.40894   0.00000  Uiso   1.00
H543   H     0.48441   0.29745   0.44089   0.00000  Uiso   1.00
H544   H     0.48770   0.31587   0.36942   0.00000  Uiso   1.00
H545   H     0.02748   0.27463   0.39259   0.00000  Uiso   1.00
H546   H     0.06424   0.02817   0.40942   0.00000  Uiso   1.00
H547   H     0.05519   0.01132   0.48048   0.00000  Uiso   1.00
C548   C     0.46553   0.31472   0.57589   0.00000  Uiso   1.00
C549   C     0.49812   0.02855   0.60305   0.00000  Uiso   1.00
H550   H     0.02463   0.01987   0.63516   0.00000  Uiso   1.00
H551   H     0.01286   0.04222   0.56588   0.00000  Uiso   1.00
H552   H     0.47973   0.06060   0.62845   0.00000  Uiso   1.00
H553   H     0.44334   0.32620   0.54060   0.00000  Uiso   1.00
H554   H     0.44639   0.30907   0.61409   0.00000  Uiso   1.00
C555   C     0.20770   0.31287   0.42275   0.00000  Uiso   1.00
C556   C     0.17613   0.00845   0.38807   0.00000  Uiso   1.00
H557   H     0.16081   0.04004   0.41833   0.00000  Uiso   1.00
H558   H     0.19379   0.02462   0.35479   0.00000  Uiso   1.00
H559   H     0.14876   0.31409   0.36186   0.00000  Uiso   1.00
H560   H     0.22817   0.29006   0.38873   0.00000  Uiso   1.00
H561   H     0.18557   0.28519   0.43908   0.00000  Uiso   1.00
C562   C     0.29253   0.01664   0.57373   0.00000  Uiso   1.00
C563   C     0.27103   0.03377   0.63320   0.00000  Uiso   1.00
H564   H     0.24018   0.05286   0.62540   0.00000  Uiso   1.00
H565   H     0.26281   0.33296   0.65206   0.00000  Uiso   1.00
H566   H     0.29451   0.06130   0.33379   0.00000  Uiso   1.00
H567   H     0.31776   0.32346   0.58223   0.00000  Uiso   1.00
H568   H     0.31249   0.04928   0.56309   0.00000  Uiso   1.00
N569   N     0.19278   0.14872   0.65862   0.00000  Uiso   1.00
O570   O     0.17154   0.19089   0.33370   0.00000  Uiso   1.00
O571   O     0.16974   0.10459   0.65134   0.00000  Uiso   1.00
N572   N     0.30604   0.19161   0.34669   0.00000  Uiso   1.00
O573   O     0.33484   0.15685   0.33336   0.00000  Uiso   1.00
O574   O     0.32030   0.23928   0.37250   0.00000  Uiso   1.00
O575   O     0.75326   0.09538   0.53992   0.00000  Uiso   1.00
O576   O     0.74675   0.23796   0.46008   0.00000  Uiso   1.00
O577   O     0.74480   0.08559   0.43612   0.00000  Uiso   1.00
O578   O     0.75520   0.24774   0.56388   0.00000  Uiso   1.00
C579   C     0.74667   0.06680   0.48462   0.00000  Uiso   1.00
C580   C     0.75193   0.26646   0.51510   0.00000  Uiso   1.00
O581   O     0.68936   0.17155   0.55191   0.00000  Uiso   1.00
O582   O     0.81065   0.16179   0.44809   0.00000  Uiso   1.00
O583   O     0.68090   0.16176   0.44810   0.00000  Uiso   1.00
O584   O     0.81910   0.17157   0.55190   0.00000  Uiso   1.00
C585   C     0.66472   0.16711   0.50116   0.00000  Uiso   1.00
C586   C     0.83527   0.16534   0.49890   0.00000  Uiso   1.00
Cu587  Cu    0.75501   0.17246   0.56146   0.00000  Uiso   1.00
Cu588  Cu    0.74500   0.16087   0.43854   0.00000  Uiso   1.00
C589   C     0.90922   0.21316   0.52321   0.00000  Uiso   1.00
C590   C     0.59086   0.12127   0.50171   0.00000  Uiso   1.00
C591   C     0.88371   0.16649   0.49722   0.00000  Uiso   1.00
C592   C     0.61665   0.16759   0.50462   0.00000  Uiso   1.00
C593   C     0.90379   0.12182   0.46993   0.00000  Uiso   1.00
C594   C     0.59690   0.21506   0.51658   0.00000  Uiso   1.00
C595   C     0.95052   0.12203   0.47500   0.00000  Uiso   1.00
C596   C     0.55047   0.21535   0.52066   0.00000  Uiso   1.00
C597   C     0.97690   0.16891   0.50045   0.00000  Uiso   1.00
C598   C     0.52375   0.16823   0.50285   0.00000  Uiso   1.00
C599   C     0.95660   0.21600   0.52381   0.00000  Uiso   1.00
C600   C     0.54411   0.12033   0.48905   0.00000  Uiso   1.00
C601   C     0.97101   0.07551   0.45635   0.00000  Uiso   1.00
C602   C     0.53077   0.26166   0.54306   0.00000  Uiso   1.00
C603   C     0.51741   0.07343   0.46323   0.00000  Uiso   1.00
C604   C     0.98454   0.26312   0.54740   0.00000  Uiso   1.00
H605   H     0.95024   0.04011   0.43857   0.00000  Uiso   1.00
H606   H     0.55220   0.29677   0.55878   0.00000  Uiso   1.00
C607   C     0.73911   0.01113   0.47752   0.00000  Uiso   1.00
C608   C     0.75846   0.32202   0.52127   0.00000  Uiso   1.00
N609   N     0.73745   0.15214   0.34617   0.00000  Uiso   1.00
N610   N     0.76256   0.18119   0.65383   0.00000  Uiso   1.00
N611   N     0.88539   0.25747   0.54597   0.00000  Uiso   1.00
O612   O     0.87251   0.26467   0.60089   0.00000  Uiso   1.00
O613   O     0.86688   0.28134   0.50731   0.00000  Uiso   1.00
N614   N     0.60956   0.08254   0.52961   0.00000  Uiso   1.00
O615   O     0.64979   0.06902   0.52121   0.00000  Uiso   1.00
O616   O     0.59083   0.07085   0.57532   0.00000  Uiso   1.00
N617   N     0.87670   0.07646   0.43679   0.00000  Uiso   1.00
O618   O     0.84887   0.05263   0.46452   0.00000  Uiso   1.00
O619   O     0.88081   0.05807   0.37903   0.00000  Uiso   1.00
N620   N     0.62426   0.26275   0.52695   0.00000  Uiso   1.00
O621   O     0.61790   0.29424   0.49130   0.00000  Uiso   1.00
O622   O     0.65528   0.27491   0.57201   0.00000  Uiso   1.00
C623   C     0.53870   0.02228   0.44084   0.00000  Uiso   1.00
C624   C     0.50748   0.30819   0.40894   0.00000  Uiso   1.00
H625   H     0.98441   0.29745   0.44089   0.00000  Uiso   1.00
H626   H     0.98770   0.31587   0.36942   0.00000  Uiso   1.00
H627   H     0.52748   0.27463   0.39259   0.00000  Uiso   1.00
H628   H     0.56424   0.02817   0.40942   0.00000  Uiso   1.00
H629   H     0.55519   0.01132   0.48048   0.00000  Uiso   1.00
C630   C     0.96553   0.31472   0.57589   0.00000  Uiso   1.00
C631   C     0.99812   0.02855   0.60305   0.00000  Uiso   1.00
H632   H     0.52463   0.01987   0.63516   0.00000  Uiso   1.00
H633   H     0.51286   0.04222   0.56588   0.00000  Uiso   1.00
H634   H     0.97973   0.06060   0.62845   0.00000  Uiso   1.00
H635   H     0.94334   0.32620   0.54060   0.00000  Uiso   1.00
H636   H     0.94639   0.30907   0.61409   0.00000  Uiso   1.00
C637   C     0.70770   0.31287   0.42275   0.00000  Uiso   1.00
C638   C     0.67613   0.00845   0.38807   0.00000  Uiso   1.00
H639   H     0.66081   0.04004   0.41833   0.00000  Uiso   1.00
H640   H     0.69379   0.02462   0.35479   0.00000  Uiso   1.00
H641   H     0.64876   0.31409   0.36186   0.00000  Uiso   1.00
H642   H     0.72817   0.29006   0.38873   0.00000  Uiso   1.00
H643   H     0.68557   0.28519   0.43908   0.00000  Uiso   1.00
C644   C     0.79253   0.01664   0.57373   0.00000  Uiso   1.00
C645   C     0.77103   0.03377   0.63320   0.00000  Uiso   1.00
H646   H     0.74018   0.05286   0.62540   0.00000  Uiso   1.00
H647   H     0.76281   0.33296   0.65206   0.00000  Uiso   1.00
H648   H     0.79451   0.06130   0.33379   0.00000  Uiso   1.00
H649   H     0.81776   0.32346   0.58223   0.00000  Uiso   1.00
H650   H     0.81249   0.04928   0.56309   0.00000  Uiso   1.00
N651   N     0.69278   0.14872   0.65862   0.00000  Uiso   1.00
O652   O     0.67154   0.19089   0.33370   0.00000  Uiso   1.00
O653   O     0.66974   0.10459   0.65134   0.00000  Uiso   1.00
N654   N     0.80604   0.19161   0.34669   0.00000  Uiso   1.00
O655   O     0.83484   0.15685   0.33336   0.00000  Uiso   1.00
O656   O     0.82030   0.23928   0.37250   0.00000  Uiso   1.00
O657   O     0.25326   0.42871   0.53992   0.00000  Uiso   1.00
O658   O     0.24675   0.57129   0.46008   0.00000  Uiso   1.00
O659   O     0.24480   0.41892   0.43612   0.00000  Uiso   1.00
O660   O     0.25520   0.58108   0.56388   0.00000  Uiso   1.00
C661   C     0.24667   0.40014   0.48462   0.00000  Uiso   1.00
C662   C     0.25193   0.59980   0.51510   0.00000  Uiso   1.00
O663   O     0.18936   0.50488   0.55191   0.00000  Uiso   1.00
O664   O     0.31065   0.49512   0.44809   0.00000  Uiso   1.00
O665   O     0.18090   0.49510   0.44810   0.00000  Uiso   1.00
O666   O     0.31910   0.50490   0.55190   0.00000  Uiso   1.00
C667   C     0.16472   0.50044   0.50116   0.00000  Uiso   1.00
C668   C     0.33527   0.49868   0.49890   0.00000  Uiso   1.00
Cu669  Cu    0.25501   0.50579   0.56146   0.00000  Uiso   1.00
Cu670  Cu    0.24500   0.49421   0.43854   0.00000  Uiso   1.00
C671   C     0.40922   0.54649   0.52321   0.00000  Uiso   1.00
C672   C     0.09086   0.45460   0.50171   0.00000  Uiso   1.00
C673   C     0.38371   0.49982   0.49722   0.00000  Uiso   1.00
C674   C     0.11665   0.50092   0.50462   0.00000  Uiso   1.00
C675   C     0.40379   0.45515   0.46993   0.00000  Uiso   1.00
C676   C     0.09690   0.54840   0.51658   0.00000  Uiso   1.00
C677   C     0.45052   0.45537   0.47500   0.00000  Uiso   1.00
C678   C     0.05047   0.54868   0.52066   0.00000  Uiso   1.00
C679   C     0.47690   0.50224   0.50045   0.00000  Uiso   1.00
C680   C     0.02375   0.50157   0.50285   0.00000  Uiso   1.00
C681   C     0.45660   0.54933   0.52381   0.00000  Uiso   1.00
C682   C     0.04411   0.45367   0.48905   0.00000  Uiso   1.00
C683   C     0.47101   0.40884   0.45635   0.00000  Uiso   1.00
C684   C     0.03077   0.59499   0.54306   0.00000  Uiso   1.00
C685   C     0.01741   0.40676   0.46323   0.00000  Uiso   1.00
C686   C     0.48454   0.59646   0.54740   0.00000  Uiso   1.00
H687   H     0.45024   0.37344   0.43857   0.00000  Uiso   1.00
H688   H     0.05220   0.63010   0.55878   0.00000  Uiso   1.00
C689   C     0.23911   0.34446   0.47752   0.00000  Uiso   1.00
C690   C     0.25846   0.65536   0.52127   0.00000  Uiso   1.00
N691   N     0.23745   0.48547   0.34617   0.00000  Uiso   1.00
N692   N     0.26256   0.51453   0.65383   0.00000  Uiso   1.00
N693   N     0.38539   0.59080   0.54597   0.00000  Uiso   1.00
O694   O     0.37251   0.59800   0.60089   0.00000  Uiso   1.00
O695   O     0.36688   0.61467   0.50731   0.00000  Uiso   1.00
N696   N     0.10956   0.41587   0.52961   0.00000  Uiso   1.00
O697   O     0.14979   0.40235   0.52121   0.00000  Uiso   1.00
O698   O     0.09083   0.40418   0.57532   0.00000  Uiso   1.00
N699   N     0.37670   0.40979   0.43679   0.00000  Uiso   1.00
O700   O     0.34887   0.38596   0.46452   0.00000  Uiso   1.00
O701   O     0.38081   0.39140   0.37903   0.00000  Uiso   1.00
N702   N     0.12426   0.59608   0.52695   0.00000  Uiso   1.00
O703   O     0.11790   0.62757   0.49130   0.00000  Uiso   1.00
O704   O     0.15528   0.60825   0.57201   0.00000  Uiso   1.00
C705   C     0.03870   0.35561   0.44084   0.00000  Uiso   1.00
C706   C     0.00748   0.64153   0.40894   0.00000  Uiso   1.00
H707   H     0.48441   0.63078   0.44089   0.00000  Uiso   1.00
H708   H     0.48770   0.64920   0.36942   0.00000  Uiso   1.00
H709   H     0.02748   0.60796   0.39259   0.00000  Uiso   1.00
H710   H     0.06424   0.36151   0.40942   0.00000  Uiso   1.00
H711   H     0.05519   0.34465   0.48048   0.00000  Uiso   1.00
C712   C     0.46553   0.64805   0.57589   0.00000  Uiso   1.00
C713   C     0.49812   0.36188   0.60305   0.00000  Uiso   1.00
H714   H     0.02463   0.35320   0.63516   0.00000  Uiso   1.00
H715   H     0.01286   0.37556   0.56588   0.00000  Uiso   1.00
H716   H     0.47973   0.39393   0.62845   0.00000  Uiso   1.00
H717   H     0.44334   0.65953   0.54060   0.00000  Uiso   1.00
H718   H     0.44639   0.64240   0.61409   0.00000  Uiso   1.00
C719   C     0.20770   0.64620   0.42275   0.00000  Uiso   1.00
C720   C     0.17613   0.34179   0.38807   0.00000  Uiso   1.00
H721   H     0.16081   0.37337   0.41833   0.00000  Uiso   1.00
H722   H     0.19379   0.35795   0.35479   0.00000  Uiso   1.00
H723   H     0.14876   0.64742   0.36186   0.00000  Uiso   1.00
H724   H     0.22817   0.62340   0.38873   0.00000  Uiso   1.00
H725   H     0.18557   0.61853   0.43908   0.00000  Uiso   1.00
C726   C     0.29253   0.34998   0.57373   0.00000  Uiso   1.00
C727   C     0.27103   0.36711   0.63320   0.00000  Uiso   1.00
H728   H     0.24018   0.38619   0.62540   0.00000  Uiso   1.00
H729   H     0.26281   0.66629   0.65206   0.00000  Uiso   1.00
H730   H     0.29451   0.39463   0.33379   0.00000  Uiso   1.00
H731   H     0.31776   0.65680   0.58223   0.00000  Uiso   1.00
H732   H     0.31249   0.38261   0.56309   0.00000  Uiso   1.00
N733   N     0.19278   0.48206   0.65862   0.00000  Uiso   1.00
O734   O     0.17154   0.52422   0.33370   0.00000  Uiso   1.00
O735   O     0.16974   0.43792   0.65134   0.00000  Uiso   1.00
N736   N     0.30604   0.52495   0.34669   0.00000  Uiso   1.00
O737   O     0.33484   0.49019   0.33336   0.00000  Uiso   1.00
O738   O     0.32030   0.57262   0.37250   0.00000  Uiso   1.00
O739   O     0.75326   0.42871   0.53992   0.00000  Uiso   1.00
O740   O     0.74675   0.57129   0.46008   0.00000  Uiso   1.00
O741   O     0.74480   0.41892   0.43612   0.00000  Uiso   1.00
O742   O     0.75520   0.58108   0.56388   0.00000  Uiso   1.00
C743   C     0.74667   0.40014   0.48462   0.00000  Uiso   1.00
C744   C     0.75193   0.59980   0.51510   0.00000  Uiso   1.00
O745   O     0.68936   0.50488   0.55191   0.00000  Uiso   1.00
O746   O     0.81065   0.49512   0.44809   0.00000  Uiso   1.00
O747   O     0.68090   0.49510   0.44810   0.00000  Uiso   1.00
O748   O     0.81910   0.50490   0.55190   0.00000  Uiso   1.00
C749   C     0.66472   0.50044   0.50116   0.00000  Uiso   1.00
C750   C     0.83527   0.49868   0.49890   0.00000  Uiso   1.00
Cu751  Cu    0.75501   0.50579   0.56146   0.00000  Uiso   1.00
Cu752  Cu    0.74500   0.49421   0.43854   0.00000  Uiso   1.00
C753   C     0.90922   0.54649   0.52321   0.00000  Uiso   1.00
C754   C     0.59086   0.45460   0.50171   0.00000  Uiso   1.00
C755   C     0.88371   0.49982   0.49722   0.00000  Uiso   1.00
C756   C     0.61665   0.50092   0.50462   0.00000  Uiso   1.00
C757   C     0.90379   0.45515   0.46993   0.00000  Uiso   1.00
C758   C     0.59690   0.54840   0.51658   0.00000  Uiso   1.00
C759   C     0.95052   0.45537   0.47500   0.00000  Uiso   1.00
C760   C     0.55047   0.54868   0.52066   0.00000  Uiso   1.00
C761   C     0.97690   0.50224   0.50045   0.00000  Uiso   1.00
C762   C     0.52375   0.50157   0.50285   0.00000  Uiso   1.00
C763   C     0.95660   0.54933   0.52381   0.00000  Uiso   1.00
C764   C     0.54411   0.45367   0.48905   0.00000  Uiso   1.00
C765   C     0.97101   0.40884   0.45635   0.00000  Uiso   1.00
C766   C     0.53077   0.59499   0.54306   0.00000  Uiso   1.00
C767   C     0.51741   0.40676   0.46323   0.00000  Uiso   1.00
C768   C     0.98454   0.59646   0.54740   0.00000  Uiso   1.00
H769   H     0.95024   0.37344   0.43857   0.00000  Uiso   1.00
H770   H     0.55220   0.63010   0.55878   0.00000  Uiso   1.00
C771   C     0.73911   0.34446   0.47752   0.00000  Uiso   1.00
C772   C     0.75846   0.65536   0.52127   0.00000  Uiso   1.00
N773   N     0.73745   0.48547   0.34617   0.00000  Uiso   1.00
N774   N     0.76256   0.51453   0.65383   0.00000  Uiso   1.00
N775   N     0.88539   0.59080   0.54597   0.00000  Uiso   1.00
O776   O     0.87251   0.59800   0.60089   0.00000  Uiso   1.00
O777   O     0.86688   0.61467   0.50731   0.00000  Uiso   1.00
N778   N     0.60956   0.41587   0.52961   0.00000  Uiso   1.00
O779   O     0.64979   0.40235   0.52121   0.00000  Uiso   1.00
O780   O     0.59083   0.40418   0.57532   0.00000  Uiso   1.00
N781   N     0.87670   0.40979   0.43679   0.00000  Uiso   1.00
O782   O     0.84887   0.38596   0.46452   0.00000  Uiso   1.00
O783   O     0.88081   0.39140   0.37903   0.00000  Uiso   1.00
N784   N     0.62426   0.59608   0.52695   0.00000  Uiso   1.00
O785   O     0.61790   0.62757   0.49130   0.00000  Uiso   1.00
O786   O     0.65528   0.60825   0.57201   0.00000  Uiso   1.00
C787   C     0.53870   0.35561   0.44084   0.00000  Uiso   1.00
C788   C     0.50748   0.64153   0.40894   0.00000  Uiso   1.00
H789   H     0.98441   0.63078   0.44089   0.00000  Uiso   1.00
H790   H     0.98770   0.64920   0.36942   0.00000  Uiso   1.00
H791   H     0.52748   0.60796   0.39259   0.00000  Uiso   1.00
H792   H     0.56424   0.36151   0.40942   0.00000  Uiso   1.00
H793   H     0.55519   0.34465   0.48048   0.00000  Uiso   1.00
C794   C     0.96553   0.64805   0.57589   0.00000  Uiso   1.00
C795   C     0.99812   0.36188   0.60305   0.00000  Uiso   1.00
H796   H     0.52463   0.35320   0.63516   0.00000  Uiso   1.00
H797   H     0.51286   0.37556   0.56588   0.00000  Uiso   1.00
H798   H     0.97973   0.39393   0.62845   0.00000  Uiso   1.00
H799   H     0.94334   0.65953   0.54060   0.00000  Uiso   1.00
H800   H     0.94639   0.64240   0.61409   0.00000  Uiso   1.00
C801   C     0.70770   0.64620   0.42275   0.00000  Uiso   1.00
C802   C     0.67613   0.34179   0.38807   0.00000  Uiso   1.00
H803   H     0.66081   0.37337   0.41833   0.00000  Uiso   1.00
H804   H     0.69379   0.35795   0.35479   0.00000  Uiso   1.00
H805   H     0.64876   0.64742   0.36186   0.00000  Uiso   1.00
H806   H     0.72817   0.62340   0.38873   0.00000  Uiso   1.00
H807   H     0.68557   0.61853   0.43908   0.00000  Uiso   1.00
C808   C     0.79253   0.34998   0.57373   0.00000  Uiso   1.00
C809   C     0.77103   0.36711   0.63320   0.00000  Uiso   1.00
H810   H     0.74018   0.38619   0.62540   0.00000  Uiso   1.00
H811   H     0.76281   0.66629   0.65206   0.00000  Uiso   1.00
H812   H     0.79451   0.39463   0.33379   0.00000  Uiso   1.00
H813   H     0.81776   0.65680   0.58223   0.00000  Uiso   1.00
H814   H     0.81249   0.38261   0.56309   0.00000  Uiso   1.00
N815   N     0.69278   0.48206   0.65862   0.00000  Uiso   1.00
O816   O     0.67154   0.52422   0.33370   0.00000  Uiso   1.00
O817   O     0.66974   0.43792   0.65134   0.00000  Uiso   1.00
N818   N     0.80604   0.52495   0.34669   0.00000  Uiso   1.00
O819   O     0.83484   0.49019   0.33336   0.00000  Uiso   1.00
O820   O     0.82030   0.57262   0.37250   0.00000  Uiso   1.00
O821   O     0.25326   0.76204   0.53992   0.00000  Uiso   1.00
O822   O     0.24675   0.90462   0.46008   0.00000  Uiso   1.00
O823   O     0.24480   0.75226   0.43612   0.00000  Uiso   1.00
O824   O     0.25520   0.91441   0.56388   0.00000  Uiso   1.00
C825   C     0.24667   0.73347   0.48462   0.00000  Uiso   1.00
C826   C     0.25193   0.93313   0.51510   0.00000  Uiso   1.00
O827   O     0.18936   0.83821   0.55191   0.00000  Uiso   1.00
O828   O     0.31065   0.82845   0.44809   0.00000  Uiso   1.00
O829   O     0.18090   0.82843   0.44810   0.00000  Uiso   1.00
O830   O     0.31910   0.83824   0.55190   0.00000  Uiso   1.00
C831   C     0.16472   0.83377   0.50116   0.00000  Uiso   1.00
C832   C     0.33527   0.83201   0.49890   0.00000  Uiso   1.00
Cu833  Cu    0.25501   0.83913   0.56146   0.00000  Uiso   1.00
Cu834  Cu    0.24500   0.82754   0.43854   0.00000  Uiso   1.00
C835   C     0.40922   0.87983   0.52321   0.00000  Uiso   1.00
C836   C     0.09086   0.78793   0.50171   0.00000  Uiso   1.00
C837   C     0.38371   0.83315   0.49722   0.00000  Uiso   1.00
C838   C     0.11665   0.83426   0.50462   0.00000  Uiso   1.00
C839   C     0.40379   0.78848   0.46993   0.00000  Uiso   1.00
C840   C     0.09690   0.88173   0.51658   0.00000  Uiso   1.00
C841   C     0.45052   0.78870   0.47500   0.00000  Uiso   1.00
C842   C     0.05047   0.88202   0.52066   0.00000  Uiso   1.00
C843   C     0.47690   0.83558   0.50045   0.00000  Uiso   1.00
C844   C     0.02375   0.83490   0.50285   0.00000  Uiso   1.00
C845   C     0.45660   0.88267   0.52381   0.00000  Uiso   1.00
C846   C     0.04411   0.78700   0.48905   0.00000  Uiso   1.00
C847   C     0.47101   0.74217   0.45635   0.00000  Uiso   1.00
C848   C     0.03077   0.92832   0.54306   0.00000  Uiso   1.00
C849   C     0.01741   0.74010   0.46323   0.00000  Uiso   1.00
C850   C     0.48454   0.92979   0.54740   0.00000  Uiso   1.00
H851   H     0.45024   0.70678   0.43857   0.00000  Uiso   1.00
H852   H     0.05220   0.96344   0.55878   0.00000  Uiso   1.00
C853   C     0.23911   0.67779   0.47752   0.00000  Uiso   1.00
C854   C     0.25846   0.98869   0.52127   0.00000  Uiso   1.00
N855   N     0.23745   0.81881   0.34617   0.00000  Uiso   1.00
N856   N     0.26256   0.84786   0.65383   0.00000  Uiso   1.00
N857   N     0.38539   0.92414   0.54597   0.00000  Uiso   1.00
O858   O     0.37251   0.93134   0.60089   0.00000  Uiso   1.00
O859   O     0.36688   0.94801   0.50731   0.00000  Uiso   1.00
N860   N     0.10956   0.74920   0.52961   0.00000  Uiso   1.00
O861   O     0.14979   0.73568   0.52121   0.00000  Uiso   1.00
O862   O     0.09083   0.73751   0.57532   0.00000  Uiso   1.00
N863   N     0.37670   0.74312   0.43679   0.00000  Uiso   1.00
O864   O     0.34887   0.71930   0.46452   0.00000  Uiso   1.00
O865   O     0.38081   0.72473   0.37903   0.00000  Uiso   1.00
N866   N     0.12426   0.92941   0.52695   0.00000  Uiso   1.00
O867   O     0.11790   0.96090   0.49130   0.00000  Uiso   1.00
O868   O     0.15528   0.94158   0.57201   0.00000  Uiso   1.00
C869   C     0.03870   0.68895   0.44084   0.00000  Uiso   1.00
C870   C     0.00748   0.97486   0.40894   0.00000  Uiso   1.00
H871   H     0.48441   0.96411   0.44089   0.00000  Uiso   1.00
H872   H     0.48770   0.98254   0.36942   0.00000  Uiso   1.00
H873   H     0.02748   0.94130   0.39259   0.00000  Uiso   1.00
H874   H     0.06424   0.69484   0.40942   0.00000  Uiso   1.00
H875   H     0.05519   0.67798   0.48048   0.00000  Uiso   1.00
C876   C     0.46553   0.98139   0.57589   0.00000  Uiso   1.00
C877   C     0.49812   0.69522   0.60305   0.00000  Uiso   1.00
H878   H     0.02463   0.68653   0.63516   0.00000  Uiso   1.00
H879   H     0.01286   0.70889   0.56588   0.00000  Uiso   1.00
H880   H     0.47973   0.72727   0.62845   0.00000  Uiso   1.00
H881   H     0.44334   0.99287   0.54060   0.00000  Uiso   1.00
H882   H     0.44639   0.97574   0.61409   0.00000  Uiso   1.00
C883   C     0.20770   0.97953   0.42275   0.00000  Uiso   1.00
C884   C     0.17613   0.67512   0.38807   0.00000  Uiso   1.00
H885   H     0.16081   0.70671   0.41833   0.00000  Uiso   1.00
H886   H     0.19379   0.69128   0.35479   0.00000  Uiso   1.00
H887   H     0.14876   0.98076   0.36186   0.00000  Uiso   1.00
H888   H     0.22817   0.95673   0.38873   0.00000  Uiso   1.00
H889   H     0.18557   0.95186   0.43908   0.00000  Uiso   1.00
C890   C     0.29253   0.68331   0.57373   0.00000  Uiso   1.00
C891   C     0.27103   0.70044   0.63320   0.00000  Uiso   1.00
H892   H     0.24018   0.71953   0.62540   0.00000  Uiso   1.00
H893   H     0.26281   0.99962   0.65206   0.00000  Uiso   1.00
H894   H     0.29451   0.72796   0.33379   0.00000  Uiso   1.00
H895   H     0.31776   0.99013   0.58223   0.00000  Uiso   1.00
H896   H     0.31249   0.71594   0.56309   0.00000  Uiso   1.00
N897   N     0.19278   0.81539   0.65862   0.00000  Uiso   1.00
O898   O     0.17154   0.85755   0.33370   0.00000  Uiso   1.00
O899   O     0.16974   0.77125   0.65134   0.00000  Uiso   1.00
N900   N     0.30604   0.85828   0.34669   0.00000  Uiso   1.00
O901   O     0.33484   0.82352   0.33336   0.00000  Uiso   1.00
O902   O     0.32030   0.90595   0.37250   0.00000  Uiso   1.00
O903   O     0.75326   0.76204   0.53992   0.00000  Uiso   1.00
O904   O     0.74675   0.90462   0.46008   0.00000  Uiso   1.00
O905   O     0.74480   0.75226   0.43612   0.00000  Uiso   1.00
O906   O     0.75520   0.91441   0.56388   0.00000  Uiso   1.00
C907   C     0.74667   0.73347   0.48462   0.00000  Uiso   1.00
C908   C     0.75193   0.93313   0.51510   0.00000  Uiso   1.00
O909   O     0.68936   0.83821   0.55191   0.00000  Uiso   1.00
O910   O     0.81065   0.82845   0.44809   0.00000  Uiso   1.00
O911   O     0.68090   0.82843   0.44810   0.00000  Uiso   1.00
O912   O     0.81910   0.83824   0.55190   0.00000  Uiso   1.00
C913   C     0.66472   0.83377   0.50116   0.00000  Uiso   1.00
C914   C     0.83527   0.83201   0.49890   0.00000  Uiso   1.00
Cu915  Cu    0.75501   0.83913   0.56146   0.00000  Uiso   1.00
Cu916  Cu    0.74500   0.82754   0.43854   0.00000  Uiso   1.00
C917   C     0.90922   0.87983   0.52321   0.00000  Uiso   1.00
C918   C     0.59086   0.78793   0.50171   0.00000  Uiso   1.00
C919   C     0.88371   0.83315   0.49722   0.00000  Uiso   1.00
C920   C     0.61665   0.83426   0.50462   0.00000  Uiso   1.00
C921   C     0.90379   0.78848   0.46993   0.00000  Uiso   1.00
C922   C     0.59690   0.88173   0.51658   0.00000  Uiso   1.00
C923   C     0.95052   0.78870   0.47500   0.00000  Uiso   1.00
C924   C     0.55047   0.88202   0.52066   0.00000  Uiso   1.00
C925   C     0.97690   0.83558   0.50045   0.00000  Uiso   1.00
C926   C     0.52375   0.83490   0.50285   0.00000  Uiso   1.00
C927   C     0.95660   0.88267   0.52381   0.00000  Uiso   1.00
C928   C     0.54411   0.78700   0.48905   0.00000  Uiso   1.00
C929   C     0.97101   0.74217   0.45635   0.00000  Uiso   1.00
C930   C     0.53077   0.92832   0.54306   0.00000  Uiso   1.00
C931   C     0.51741   0.74010   0.46323   0.00000  Uiso   1.00
C932   C     0.98454   0.92979   0.54740   0.00000  Uiso   1.00
H933   H     0.95024   0.70678   0.43857   0.00000  Uiso   1.00
H934   H     0.55220   0.96344   0.55878   0.00000  Uiso   1.00
C935   C     0.73911   0.67779   0.47752   0.00000  Uiso   1.00
C936   C     0.75846   0.98869   0.52127   0.00000  Uiso   1.00
N937   N     0.73745   0.81881   0.34617   0.00000  Uiso   1.00
N938   N     0.76256   0.84786   0.65383   0.00000  Uiso   1.00
N939   N     0.88539   0.92414   0.54597   0.00000  Uiso   1.00
O940   O     0.87251   0.93134   0.60089   0.00000  Uiso   1.00
O941   O     0.86688   0.94801   0.50731   0.00000  Uiso   1.00
N942   N     0.60956   0.74920   0.52961   0.00000  Uiso   1.00
O943   O     0.64979   0.73568   0.52121   0.00000  Uiso   1.00
O944   O     0.59083   0.73751   0.57532   0.00000  Uiso   1.00
N945   N     0.87670   0.74312   0.43679   0.00000  Uiso   1.00
O946   O     0.84887   0.71930   0.46452   0.00000  Uiso   1.00
O947   O     0.88081   0.72473   0.37903   0.00000  Uiso   1.00
N948   N     0.62426   0.92941   0.52695   0.00000  Uiso   1.00
O949   O     0.61790   0.96090   0.49130   0.00000  Uiso   1.00
O950   O     0.65528   0.94158   0.57201   0.00000  Uiso   1.00
C951   C     0.53870   0.68895   0.44084   0.00000  Uiso   1.00
C952   C     0.50748   0.97486   0.40894   0.00000  Uiso   1.00
H953   H     0.98441   0.96411   0.44089   0.00000  Uiso   1.00
H954   H     0.98770   0.98254   0.36942   0.00000  Uiso   1.00
H955   H     0.52748   0.94130   0.39259   0.00000  Uiso   1.00
H956   H     0.56424   0.69484   0.40942   0.00000  Uiso   1.00
H957   H     0.55519   0.67798   0.48048   0.00000  Uiso   1.00
C958   C     0.96553   0.98139   0.57589   0.00000  Uiso   1.00
C959   C     0.99812   0.69522   0.60305   0.00000  Uiso   1.00
H960   H     0.52463   0.68653   0.63516   0.00000  Uiso   1.00
H961   H     0.51286   0.70889   0.56588   0.00000  Uiso   1.00
H962   H     0.97973   0.72727   0.62845   0.00000  Uiso   1.00
H963   H     0.94334   0.99287   0.54060   0.00000  Uiso   1.00
H964   H     0.94639   0.97574   0.61409   0.00000  Uiso   1.00
C965   C     0.70770   0.97953   0.42275   0.00000  Uiso   1.00
C966   C     0.67613   0.67512   0.38807   0.00000  Uiso   1.00
H967   H     0.66081   0.70671   0.41833   0.00000  Uiso   1.00
H968   H     0.69379   0.69128   0.35479   0.00000  Uiso   1.00
H969   H     0.64876   0.98076   0.36186   0.00000  Uiso   1.00
H970   H     0.72817   0.95673   0.38873   0.00000  Uiso   1.00
H971   H     0.68557   0.95186   0.43908   0.00000  Uiso   1.00
C972   C     0.79253   0.68331   0.57373   0.00000  Uiso   1.00
C973   C     0.77103   0.70044   0.63320   0.00000  Uiso   1.00
H974   H     0.74018   0.71953   0.62540   0.00000  Uiso   1.00
H975   H     0.76281   0.99962   0.65206   0.00000  Uiso   1.00
H976   H     0.79451   0.72796   0.33379   0.00000  Uiso   1.00
H977   H     0.81776   0.99013   0.58223   0.00000  Uiso   1.00
H978   H     0.81249   0.71594   0.56309   0.00000  Uiso   1.00
N979   N     0.69278   0.81539   0.65862   0.00000  Uiso   1.00
O980   O     0.67154   0.85755   0.33370   0.00000  Uiso   1.00
O981   O     0.66974   0.77125   0.65134   0.00000  Uiso   1.00
N982   N     0.80604   0.85828   0.34669   0.00000  Uiso   1.00
O983   O     0.83484   0.82352   0.33336   0.00000  Uiso   1.00
O984   O     0.82030   0.90595   0.37250   0.00000  Uiso   1.00
O985   O     0.25326   0.09538   0.87326   0.00000  Uiso   1.00
O986   O     0.24675   0.23796   0.79341   0.00000  Uiso   1.00
O987   O     0.24480   0.08559   0.76945   0.00000  Uiso   1.00
O988   O     0.25520   0.24774   0.89721   0.00000  Uiso   1.00
C989   C     0.24667   0.06680   0.81796   0.00000  Uiso   1.00
C990   C     0.25193   0.26646   0.84843   0.00000  Uiso   1.00
O991   O     0.18936   0.17155   0.88524   0.00000  Uiso   1.00
O992   O     0.31065   0.16179   0.78143   0.00000  Uiso   1.00
O993   O     0.18090   0.16176   0.78143   0.00000  Uiso   1.00
O994   O     0.31910   0.17157   0.88523   0.00000  Uiso   1.00
C995   C     0.16472   0.16711   0.83449   0.00000  Uiso   1.00
C996   C     0.33527   0.16534   0.83223   0.00000  Uiso   1.00
Cu997  Cu    0.25501   0.17246   0.89479   0.00000  Uiso   1.00
Cu998  Cu    0.24500   0.16087   0.77187   0.00000  Uiso   1.00
C999   C     0.40922   0.21316   0.85655   0.00000  Uiso   1.00
C1000  C     0.09086   0.12127   0.83504   0.00000  Uiso   1.00
C1001  C     0.38371   0.16649   0.83056   0.00000  Uiso   1.00
C1002  C     0.11665   0.16759   0.83795   0.00000  Uiso   1.00
C1003  C     0.40379   0.12182   0.80326   0.00000  Uiso   1.00
C1004  C     0.09690   0.21506   0.84991   0.00000  Uiso   1.00
C1005  C     0.45052   0.12203   0.80834   0.00000  Uiso   1.00
C1006  C     0.05047   0.21535   0.85400   0.00000  Uiso   1.00
C1007  C     0.47690   0.16891   0.83379   0.00000  Uiso   1.00
C1008  C     0.02375   0.16823   0.83618   0.00000  Uiso   1.00
C1009  C     0.45660   0.21600   0.85714   0.00000  Uiso   1.00
C1010  C     0.04411   0.12033   0.82238   0.00000  Uiso   1.00
C1011  C     0.47101   0.07551   0.78969   0.00000  Uiso   1.00
C1012  C     0.03077   0.26166   0.87639   0.00000  Uiso   1.00
C1013  C     0.01741   0.07343   0.79656   0.00000  Uiso   1.00
C1014  C     0.48454   0.26312   0.88074   0.00000  Uiso   1.00
H1015  H     0.45024   0.04011   0.77190   0.00000  Uiso   1.00
H1016  H     0.05220   0.29677   0.89212   0.00000  Uiso   1.00
C1017  C     0.23911   0.01113   0.81085   0.00000  Uiso   1.00
C1018  C     0.25846   0.32202   0.85460   0.00000  Uiso   1.00
N1019  N     0.23745   0.15214   0.67951   0.00000  Uiso   1.00
N1020  N     0.26256   0.18119   0.98716   0.00000  Uiso   1.00
N1021  N     0.38539   0.25747   0.87930   0.00000  Uiso   1.00
O1022  O     0.37251   0.26467   0.93422   0.00000  Uiso   1.00
O1023  O     0.36688   0.28134   0.84064   0.00000  Uiso   1.00
N1024  N     0.10956   0.08254   0.86294   0.00000  Uiso   1.00
O1025  O     0.14979   0.06902   0.85455   0.00000  Uiso   1.00
O1026  O     0.09083   0.07085   0.90865   0.00000  Uiso   1.00
N1027  N     0.37670   0.07646   0.77013   0.00000  Uiso   1.00
O1028  O     0.34887   0.05263   0.79785   0.00000  Uiso   1.00
O1029  O     0.38081   0.05807   0.71236   0.00000  Uiso   1.00
N1030  N     0.12426   0.26275   0.86029   0.00000  Uiso   1.00
O1031  O     0.11790   0.29424   0.82463   0.00000  Uiso   1.00
O1032  O     0.15528   0.27491   0.90534   0.00000  Uiso   1.00
C1033  C     0.03870   0.02228   0.77417   0.00000  Uiso   1.00
C1034  C     0.00748   0.30819   0.74228   0.00000  Uiso   1.00
H1035  H     0.48441   0.29745   0.77422   0.00000  Uiso   1.00
H1036  H     0.48770   0.31587   0.70275   0.00000  Uiso   1.00
H1037  H     0.02748   0.27463   0.72592   0.00000  Uiso   1.00
H1038  H     0.06424   0.02817   0.74275   0.00000  Uiso   1.00
H1039  H     0.05519   0.01132   0.81381   0.00000  Uiso   1.00
C1040  C     0.46553   0.31472   0.90922   0.00000  Uiso   1.00
C1041  C     0.49812   0.02855   0.93638   0.00000  Uiso   1.00
H1042  H     0.02463   0.01987   0.96849   0.00000  Uiso   1.00
H1043  H     0.01286   0.04222   0.89921   0.00000  Uiso   1.00
H1044  H     0.47973   0.06060   0.96178   0.00000  Uiso   1.00
H1045  H     0.44334   0.32620   0.87393   0.00000  Uiso   1.00
H1046  H     0.44639   0.30907   0.94743   0.00000  Uiso   1.00
C1047  C     0.20770   0.31287   0.75608   0.00000  Uiso   1.00
C1048  C     0.17613   0.00845   0.72140   0.00000  Uiso   1.00
H1049  H     0.16081   0.04004   0.75166   0.00000  Uiso   1.00
H1050  H     0.19379   0.02462   0.68812   0.00000  Uiso   1.00
H1051  H     0.14876   0.31409   0.69519   0.00000  Uiso   1.00
H1052  H     0.22817   0.29006   0.72207   0.00000  Uiso   1.00
H1053  H     0.18557   0.28519   0.77242   0.00000  Uiso   1.00
C1054  C     0.29253   0.01664   0.90706   0.00000  Uiso   1.00
C1055  C     0.27103   0.03377   0.96653   0.00000  Uiso   1.00
H1056  H     0.24018   0.05286   0.95873   0.00000  Uiso   1.00
H1057  H     0.26281   0.33296   0.98539   0.00000  Uiso   1.00
H1058  H     0.29451   0.06130   0.66713   0.00000  Uiso   1.00
H1059  H     0.31776   0.32346   0.91556   0.00000  Uiso   1.00
H1060  H     0.31249   0.04928   0.89642   0.00000  Uiso   1.00
N1061  N     0.19278   0.14872   0.99195   0.00000  Uiso   1.00
O1062  O     0.17154   0.19089   0.66704   0.00000  Uiso   1.00
O1063  O     0.16974   0.10459   0.98467   0.00000  Uiso   1.00
N1064  N     0.30604   0.19161   0.68002   0.00000  Uiso   1.00
O1065  O     0.33484   0.15685   0.66670   0.00000  Uiso   1.00
O1066  O     0.32030   0.23928   0.70583   0.00000  Uiso   1.00
O1067  O     0.75326   0.09538   0.87326   0.00000  Uiso   1.00
O1068  O     0.74675   0.23796   0.79341   0.00000  Uiso   1.00
O1069  O     0.74480   0.08559   0.76945   0.00000  Uiso   1.00
O1070  O     0.75520   0.24774   0.89721   0.00000  Uiso   1.00
C1071  C     0.74667   0.06680   0.81796   0.00000  Uiso   1.00
C1072  C     0.75193   0.26646   0.84843   0.00000  Uiso   1.00
O1073  O     0.68936   0.17155   0.88524   0.00000  Uiso   1.00
O1074  O     0.81065   0.16179   0.78143   0.00000  Uiso   1.00
O1075  O     0.68090   0.16176   0.78143   0.00000  Uiso   1.00
O1076  O     0.81910   0.17157   0.88523   0.00000  Uiso   1.00
C1077  C     0.66472   0.16711   0.83449   0.00000  Uiso   1.00
C1078  C     0.83527   0.16534   0.83223   0.00000  Uiso   1.00
Cu1079 Cu    0.75501   0.17246   0.89479   0.00000  Uiso   1.00
Cu1080 Cu    0.74500   0.16087   0.77187   0.00000  Uiso   1.00
C1081  C     0.90922   0.21316   0.85655   0.00000  Uiso   1.00
C1082  C     0.59086   0.12127   0.83504   0.00000  Uiso   1.00
C1083  C     0.88371   0.16649   0.83056   0.00000  Uiso   1.00
C1084  C     0.61665   0.16759   0.83795   0.00000  Uiso   1.00
C1085  C     0.90379   0.12182   0.80326   0.00000  Uiso   1.00
C1086  C     0.59690   0.21506   0.84991   0.00000  Uiso   1.00
C1087  C     0.95052   0.12203   0.80834   0.00000  Uiso   1.00
C1088  C     0.55047   0.21535   0.85400   0.00000  Uiso   1.00
C1089  C     0.97690   0.16891   0.83379   0.00000  Uiso   1.00
C1090  C     0.52375   0.16823   0.83618   0.00000  Uiso   1.00
C1091  C     0.95660   0.21600   0.85714   0.00000  Uiso   1.00
C1092  C     0.54411   0.12033   0.82238   0.00000  Uiso   1.00
C1093  C     0.97101   0.07551   0.78969   0.00000  Uiso   1.00
C1094  C     0.53077   0.26166   0.87639   0.00000  Uiso   1.00
C1095  C     0.51741   0.07343   0.79656   0.00000  Uiso   1.00
C1096  C     0.98454   0.26312   0.88074   0.00000  Uiso   1.00
H1097  H     0.95024   0.04011   0.77190   0.00000  Uiso   1.00
H1098  H     0.55220   0.29677   0.89212   0.00000  Uiso   1.00
C1099  C     0.73911   0.01113   0.81085   0.00000  Uiso   1.00
C1100  C     0.75846   0.32202   0.85460   0.00000  Uiso   1.00
N1101  N     0.73745   0.15214   0.67951   0.00000  Uiso   1.00
N1102  N     0.76256   0.18119   0.98716   0.00000  Uiso   1.00
N1103  N     0.88539   0.25747   0.87930   0.00000  Uiso   1.00
O1104  O     0.87251   0.26467   0.93422   0.00000  Uiso   1.00
O1105  O     0.86688   0.28134   0.84064   0.00000  Uiso   1.00
N1106  N     0.60956   0.08254   0.86294   0.00000  Uiso   1.00
O1107  O     0.64979   0.06902   0.85455   0.00000  Uiso   1.00
O1108  O     0.59083   0.07085   0.90865   0.00000  Uiso   1.00
N1109  N     0.87670   0.07646   0.77013   0.00000  Uiso   1.00
O1110  O     0.84887   0.05263   0.79785   0.00000  Uiso   1.00
O1111  O     0.88081   0.05807   0.71236   0.00000  Uiso   1.00
N1112  N     0.62426   0.26275   0.86029   0.00000  Uiso   1.00
O1113  O     0.61790   0.29424   0.82463   0.00000  Uiso   1.00
O1114  O     0.65528   0.27491   0.90534   0.00000  Uiso   1.00
C1115  C     0.53870   0.02228   0.77417   0.00000  Uiso   1.00
C1116  C     0.50748   0.30819   0.74228   0.00000  Uiso   1.00
H1117  H     0.98441   0.29745   0.77422   0.00000  Uiso   1.00
H1118  H     0.98770   0.31587   0.70275   0.00000  Uiso   1.00
H1119  H     0.52748   0.27463   0.72592   0.00000  Uiso   1.00
H1120  H     0.56424   0.02817   0.74275   0.00000  Uiso   1.00
H1121  H     0.55519   0.01132   0.81381   0.00000  Uiso   1.00
C1122  C     0.96553   0.31472   0.90922   0.00000  Uiso   1.00
C1123  C     0.99812   0.02855   0.93638   0.00000  Uiso   1.00
H1124  H     0.52463   0.01987   0.96849   0.00000  Uiso   1.00
H1125  H     0.51286   0.04222   0.89921   0.00000  Uiso   1.00
H1126  H     0.97973   0.06060   0.96178   0.00000  Uiso   1.00
H1127  H     0.94334   0.32620   0.87393   0.00000  Uiso   1.00
H1128  H     0.94639   0.30907   0.94743   0.00000  Uiso   1.00
C1129  C     0.70770   0.31287   0.75608   0.00000  Uiso   1.00
C1130  C     0.67613   0.00845   0.72140   0.00000  Uiso   1.00
H1131  H     0.66081   0.04004   0.75166   0.00000  Uiso   1.00
H1132  H     0.69379   0.02462   0.68812   0.00000  Uiso   1.00
H1133  H     0.64876   0.31409   0.69519   0.00000  Uiso   1.00
H1134  H     0.72817   0.29006   0.72207   0.00000  Uiso   1.00
H1135  H     0.68557   0.28519   0.77242   0.00000  Uiso   1.00
C1136  C     0.79253   0.01664   0.90706   0.00000  Uiso   1.00
C1137  C     0.77103   0.03377   0.96653   0.00000  Uiso   1.00
H1138  H     0.74018   0.05286   0.95873   0.00000  Uiso   1.00
H1139  H     0.76281   0.33296   0.98539   0.00000  Uiso   1.00
H1140  H     0.79451   0.06130   0.66713   0.00000  Uiso   1.00
H1141  H     0.81776   0.32346   0.91556   0.00000  Uiso   1.00
H1142  H     0.81249   0.04928   0.89642   0.00000  Uiso   1.00
N1143  N     0.69278   0.14872   0.99195   0.00000  Uiso   1.00
O1144  O     0.67154   0.19089   0.66704   0.00000  Uiso   1.00
O1145  O     0.66974   0.10459   0.98467   0.00000  Uiso   1.00
N1146  N     0.80604   0.19161   0.68002   0.00000  Uiso   1.00
O1147  O     0.83484   0.15685   0.66670   0.00000  Uiso   1.00
O1148  O     0.82030   0.23928   0.70583   0.00000  Uiso   1.00
O1149  O     0.25326   0.42871   0.87326   0.00000  Uiso   1.00
O1150  O     0.24675   0.57129   0.79341   0.00000  Uiso   1.00
O1151  O     0.24480   0.41892   0.76945   0.00000  Uiso   1.00
O1152  O     0.25520   0.58108   0.89721   0.00000  Uiso   1.00
C1153  C     0.24667   0.40014   0.81796   0.00000  Uiso   1.00
C1154  C     0.25193   0.59980   0.84843   0.00000  Uiso   1.00
O1155  O     0.18936   0.50488   0.88524   0.00000  Uiso   1.00
O1156  O     0.31065   0.49512   0.78143   0.00000  Uiso   1.00
O1157  O     0.18090   0.49510   0.78143   0.00000  Uiso   1.00
O1158  O     0.31910   0.50490   0.88523   0.00000  Uiso   1.00
C1159  C     0.16472   0.50044   0.83449   0.00000  Uiso   1.00
C1160  C     0.33527   0.49868   0.83223   0.00000  Uiso   1.00
Cu1161 Cu    0.25501   0.50579   0.89479   0.00000  Uiso   1.00
Cu1162 Cu    0.24500   0.49421   0.77187   0.00000  Uiso   1.00
C1163  C     0.40922   0.54649   0.85655   0.00000  Uiso   1.00
C1164  C     0.09086   0.45460   0.83504   0.00000  Uiso   1.00
C1165  C     0.38371   0.49982   0.83056   0.00000  Uiso   1.00
C1166  C     0.11665   0.50092   0.83795   0.00000  Uiso   1.00
C1167  C     0.40379   0.45515   0.80326   0.00000  Uiso   1.00
C1168  C     0.09690   0.54840   0.84991   0.00000  Uiso   1.00
C1169  C     0.45052   0.45537   0.80834   0.00000  Uiso   1.00
C1170  C     0.05047   0.54868   0.85400   0.00000  Uiso   1.00
C1171  C     0.47690   0.50224   0.83379   0.00000  Uiso   1.00
C1172  C     0.02375   0.50157   0.83618   0.00000  Uiso   1.00
C1173  C     0.45660   0.54933   0.85714   0.00000  Uiso   1.00
C1174  C     0.04411   0.45367   0.82238   0.00000  Uiso   1.00
C1175  C     0.47101   0.40884   0.78969   0.00000  Uiso   1.00
C1176  C     0.03077   0.59499   0.87639   0.00000  Uiso   1.00
C1177  C     0.01741   0.40676   0.79656   0.00000  Uiso   1.00
C1178  C     0.48454   0.59646   0.88074   0.00000  Uiso   1.00
H1179  H     0.45024   0.37344   0.77190   0.00000  Uiso   1.00
H1180  H     0.05220   0.63010   0.89212   0.00000  Uiso   1.00
C1181  C     0.23911   0.34446   0.81085   0.00000  Uiso   1.00
C1182  C     0.25846   0.65536   0.85460   0.00000  Uiso   1.00
N1183  N     0.23745   0.48547   0.67951   0.00000  Uiso   1.00
N1184  N     0.26256   0.51453   0.98716   0.00000  Uiso   1.00
N1185  N     0.38539   0.59080   0.87930   0.00000  Uiso   1.00
O1186  O     0.37251   0.59800   0.93422   0.00000  Uiso   1.00
O1187  O     0.36688   0.61467   0.84064   0.00000  Uiso   1.00
N1188  N     0.10956   0.41587   0.86294   0.00000  Uiso   1.00
O1189  O     0.14979   0.40235   0.85455   0.00000  Uiso   1.00
O1190  O     0.09083   0.40418   0.90865   0.00000  Uiso   1.00
N1191  N     0.37670   0.40979   0.77013   0.00000  Uiso   1.00
O1192  O     0.34887   0.38596   0.79785   0.00000  Uiso   1.00
O1193  O     0.38081   0.39140   0.71236   0.00000  Uiso   1.00
N1194  N     0.12426   0.59608   0.86029   0.00000  Uiso   1.00
O1195  O     0.11790   0.62757   0.82463   0.00000  Uiso   1.00
O1196  O     0.15528   0.60825   0.90534   0.00000  Uiso   1.00
C1197  C     0.03870   0.35561   0.77417   0.00000  Uiso   1.00
C1198  C     0.00748   0.64153   0.74228   0.00000  Uiso   1.00
H1199  H     0.48441   0.63078   0.77422   0.00000  Uiso   1.00
H1200  H     0.48770   0.64920   0.70275   0.00000  Uiso   1.00
H1201  H     0.02748   0.60796   0.72592   0.00000  Uiso   1.00
H1202  H     0.06424   0.36151   0.74275   0.00000  Uiso   1.00
H1203  H     0.05519   0.34465   0.81381   0.00000  Uiso   1.00
C1204  C     0.46553   0.64805   0.90922   0.00000  Uiso   1.00
C1205  C     0.49812   0.36188   0.93638   0.00000  Uiso   1.00
H1206  H     0.02463   0.35320   0.96849   0.00000  Uiso   1.00
H1207  H     0.01286   0.37556   0.89921   0.00000  Uiso   1.00
H1208  H     0.47973   0.39393   0.96178   0.00000  Uiso   1.00
H1209  H     0.44334   0.65953   0.87393   0.00000  Uiso   1.00
H1210  H     0.44639   0.64240   0.94743   0.00000  Uiso   1.00
C1211  C     0.20770   0.64620   0.75608   0.00000  Uiso   1.00
C1212  C     0.17613   0.34179   0.72140   0.00000  Uiso   1.00
H1213  H     0.16081   0.37337   0.75166   0.00000  Uiso   1.00
H1214  H     0.19379   0.35795   0.68812   0.00000  Uiso   1.00
H1215  H     0.14876   0.64742   0.69519   0.00000  Uiso   1.00
H1216  H     0.22817   0.62340   0.72207   0.00000  Uiso   1.00
H1217  H     0.18557   0.61853   0.77242   0.00000  Uiso   1.00
C1218  C     0.29253   0.34998   0.90706   0.00000  Uiso   1.00
C1219  C     0.27103   0.36711   0.96653   0.00000  Uiso   1.00
H1220  H     0.24018   0.38619   0.95873   0.00000  Uiso   1.00
H1221  H     0.26281   0.66629   0.98539   0.00000  Uiso   1.00
H1222  H     0.29451   0.39463   0.66713   0.00000  Uiso   1.00
H1223  H     0.31776   0.65680   0.91556   0.00000  Uiso   1.00
H1224  H     0.31249   0.38261   0.89642   0.00000  Uiso   1.00
N1225  N     0.19278   0.48206   0.99195   0.00000  Uiso   1.00
O1226  O     0.17154   0.52422   0.66704   0.00000  Uiso   1.00
O1227  O     0.16974   0.43792   0.98467   0.00000  Uiso   1.00
N1228  N     0.30604   0.52495   0.68002   0.00000  Uiso   1.00
O1229  O     0.33484   0.49019   0.66670   0.00000  Uiso   1.00
O1230  O     0.32030   0.57262   0.70583   0.00000  Uiso   1.00
O1231  O     0.75326   0.42871   0.87326   0.00000  Uiso   1.00
O1232  O     0.74675   0.57129   0.79341   0.00000  Uiso   1.00
O1233  O     0.74480   0.41892   0.76945   0.00000  Uiso   1.00
O1234  O     0.75520   0.58108   0.89721   0.00000  Uiso   1.00
C1235  C     0.74667   0.40014   0.81796   0.00000  Uiso   1.00
C1236  C     0.75193   0.59980   0.84843   0.00000  Uiso   1.00
O1237  O     0.68936   0.50488   0.88524   0.00000  Uiso   1.00
O1238  O     0.81065   0.49512   0.78143   0.00000  Uiso   1.00
O1239  O     0.68090   0.49510   0.78143   0.00000  Uiso   1.00
O1240  O     0.81910   0.50490   0.88523   0.00000  Uiso   1.00
C1241  C     0.66472   0.50044   0.83449   0.00000  Uiso   1.00
C1242  C     0.83527   0.49868   0.83223   0.00000  Uiso   1.00
Cu1243 Cu    0.75501   0.50579   0.89479   0.00000  Uiso   1.00
Cu1244 Cu    0.74500   0.49421   0.77187   0.00000  Uiso   1.00
C1245  C     0.90922   0.54649   0.85655   0.00000  Uiso   1.00
C1246  C     0.59086   0.45460   0.83504   0.00000  Uiso   1.00
C1247  C     0.88371   0.49982   0.83056   0.00000  Uiso   1.00
C1248  C     0.61665   0.50092   0.83795   0.00000  Uiso   1.00
C1249  C     0.90379   0.45515   0.80326   0.00000  Uiso   1.00
C1250  C     0.59690   0.54840   0.84991   0.00000  Uiso   1.00
C1251  C     0.95052   0.45537   0.80834   0.00000  Uiso   1.00
C1252  C     0.55047   0.54868   0.85400   0.00000  Uiso   1.00
C1253  C     0.97690   0.50224   0.83379   0.00000  Uiso   1.00
C1254  C     0.52375   0.50157   0.83618   0.00000  Uiso   1.00
C1255  C     0.95660   0.54933   0.85714   0.00000  Uiso   1.00
C1256  C     0.54411   0.45367   0.82238   0.00000  Uiso   1.00
C1257  C     0.97101   0.40884   0.78969   0.00000  Uiso   1.00
C1258  C     0.53077   0.59499   0.87639   0.00000  Uiso   1.00
C1259  C     0.51741   0.40676   0.79656   0.00000  Uiso   1.00
C1260  C     0.98454   0.59646   0.88074   0.00000  Uiso   1.00
H1261  H     0.95024   0.37344   0.77190   0.00000  Uiso   1.00
H1262  H     0.55220   0.63010   0.89212   0.00000  Uiso   1.00
C1263  C     0.73911   0.34446   0.81085   0.00000  Uiso   1.00
C1264  C     0.75846   0.65536   0.85460   0.00000  Uiso   1.00
N1265  N     0.73745   0.48547   0.67951   0.00000  Uiso   1.00
N1266  N     0.76256   0.51453   0.98716   0.00000  Uiso   1.00
N1267  N     0.88539   0.59080   0.87930   0.00000  Uiso   1.00
O1268  O     0.87251   0.59800   0.93422   0.00000  Uiso   1.00
O1269  O     0.86688   0.61467   0.84064   0.00000  Uiso   1.00
N1270  N     0.60956   0.41587   0.86294   0.00000  Uiso   1.00
O1271  O     0.64979   0.40235   0.85455   0.00000  Uiso   1.00
O1272  O     0.59083   0.40418   0.90865   0.00000  Uiso   1.00
N1273  N     0.87670   0.40979   0.77013   0.00000  Uiso   1.00
O1274  O     0.84887   0.38596   0.79785   0.00000  Uiso   1.00
O1275  O     0.88081   0.39140   0.71236   0.00000  Uiso   1.00
N1276  N     0.62426   0.59608   0.86029   0.00000  Uiso   1.00
O1277  O     0.61790   0.62757   0.82463   0.00000  Uiso   1.00
O1278  O     0.65528   0.60825   0.90534   0.00000  Uiso   1.00
C1279  C     0.53870   0.35561   0.77417   0.00000  Uiso   1.00
C1280  C     0.50748   0.64153   0.74228   0.00000  Uiso   1.00
H1281  H     0.98441   0.63078   0.77422   0.00000  Uiso   1.00
H1282  H     0.98770   0.64920   0.70275   0.00000  Uiso   1.00
H1283  H     0.52748   0.60796   0.72592   0.00000  Uiso   1.00
H1284  H     0.56424   0.36151   0.74275   0.00000  Uiso   1.00
H1285  H     0.55519   0.34465   0.81381   0.00000  Uiso   1.00
C1286  C     0.96553   0.64805   0.90922   0.00000  Uiso   1.00
C1287  C     0.99812   0.36188   0.93638   0.00000  Uiso   1.00
H1288  H     0.52463   0.35320   0.96849   0.00000  Uiso   1.00
H1289  H     0.51286   0.37556   0.89921   0.00000  Uiso   1.00
H1290  H     0.97973   0.39393   0.96178   0.00000  Uiso   1.00
H1291  H     0.94334   0.65953   0.87393   0.00000  Uiso   1.00
H1292  H     0.94639   0.64240   0.94743   0.00000  Uiso   1.00
C1293  C     0.70770   0.64620   0.75608   0.00000  Uiso   1.00
C1294  C     0.67613   0.34179   0.72140   0.00000  Uiso   1.00
H1295  H     0.66081   0.37337   0.75166   0.00000  Uiso   1.00
H1296  H     0.69379   0.35795   0.68812   0.00000  Uiso   1.00
H1297  H     0.64876   0.64742   0.69519   0.00000  Uiso   1.00
H1298  H     0.72817   0.62340   0.72207   0.00000  Uiso   1.00
H1299  H     0.68557   0.61853   0.77242   0.00000  Uiso   1.00
C1300  C     0.79253   0.34998   0.90706   0.00000  Uiso   1.00
C1301  C     0.77103   0.36711   0.96653   0.00000  Uiso   1.00
H1302  H     0.74018   0.38619   0.95873   0.00000  Uiso   1.00
H1303  H     0.76281   0.66629   0.98539   0.00000  Uiso   1.00
H1304  H     0.79451   0.39463   0.66713   0.00000  Uiso   1.00
H1305  H     0.81776   0.65680   0.91556   0.00000  Uiso   1.00
H1306  H     0.81249   0.38261   0.89642   0.00000  Uiso   1.00
N1307  N     0.69278   0.48206   0.99195   0.00000  Uiso   1.00
O1308  O     0.67154   0.52422   0.66704   0.00000  Uiso   1.00
O1309  O     0.66974   0.43792   0.98467   0.00000  Uiso   1.00
N1310  N     0.80604   0.52495   0.68002   0.00000  Uiso   1.00
O1311  O     0.83484   0.49019   0.66670   0.00000  Uiso   1.00
O1312  O     0.82030   0.57262   0.70583   0.00000  Uiso   1.00
O1313  O     0.25326   0.76204   0.87326   0.00000  Uiso   1.00
O1314  O     0.24675   0.90462   0.79341   0.00000  Uiso   1.00
O1315  O     0.24480   0.75226   0.76945   0.00000  Uiso   1.00
O1316  O     0.25520   0.91441   0.89721   0.00000  Uiso   1.00
C1317  C     0.24667   0.73347   0.81796   0.00000  Uiso   1.00
C1318  C     0.25193   0.93313   0.84843   0.00000  Uiso   1.00
O1319  O     0.18936   0.83821   0.88524   0.00000  Uiso   1.00
O1320  O     0.31065   0.82845   0.78143   0.00000  Uiso   1.00
O1321  O     0.18090   0.82843   0.78143   0.00000  Uiso   1.00
O1322  O     0.31910   0.83824   0.88523   0.00000  Uiso   1.00
C1323  C     0.16472   0.83377   0.83449   0.00000  Uiso   1.00
C1324  C     0.33527   0.83201   0.83223   0.00000  Uiso   1.00
Cu1325 Cu    0.25501   0.83913   0.89479   0.00000  Uiso   1.00
Cu1326 Cu    0.24500   0.82754   0.77187   0.00000  Uiso   1.00
C1327  C     0.40922   0.87983   0.85655   0.00000  Uiso   1.00
C1328  C     0.09086   0.78793   0.83504   0.00000  Uiso   1.00
C1329  C     0.38371   0.83315   0.83056   0.00000  Uiso   1.00
C1330  C     0.11665   0.83426   0.83795   0.00000  Uiso   1.00
C1331  C     0.40379   0.78848   0.80326   0.00000  Uiso   1.00
C1332  C     0.09690   0.88173   0.84991   0.00000  Uiso   1.00
C1333  C     0.45052   0.78870   0.80834   0.00000  Uiso   1.00
C1334  C     0.05047   0.88202   0.85400   0.00000  Uiso   1.00
C1335  C     0.47690   0.83558   0.83379   0.00000  Uiso   1.00
C1336  C     0.02375   0.83490   0.83618   0.00000  Uiso   1.00
C1337  C     0.45660   0.88267   0.85714   0.00000  Uiso   1.00
C1338  C     0.04411   0.78700   0.82238   0.00000  Uiso   1.00
C1339  C     0.47101   0.74217   0.78969   0.00000  Uiso   1.00
C1340  C     0.03077   0.92832   0.87639   0.00000  Uiso   1.00
C1341  C     0.01741   0.74010   0.79656   0.00000  Uiso   1.00
C1342  C     0.48454   0.92979   0.88074   0.00000  Uiso   1.00
H1343  H     0.45024   0.70678   0.77190   0.00000  Uiso   1.00
H1344  H     0.05220   0.96344   0.89212   0.00000  Uiso   1.00
C1345  C     0.23911   0.67779   0.81085   0.00000  Uiso   1.00
C1346  C     0.25846   0.98869   0.85460   0.00000  Uiso   1.00
N1347  N     0.23745   0.81881   0.67951   0.00000  Uiso   1.00
N1348  N     0.26256   0.84786   0.98716   0.00000  Uiso   1.00
N1349  N     0.38539   0.92414   0.87930   0.00000  Uiso   1.00
O1350  O     0.37251   0.93134   0.93422   0.00000  Uiso   1.00
O1351  O     0.36688   0.94801   0.84064   0.00000  Uiso   1.00
N1352  N     0.10956   0.74920   0.86294   0.00000  Uiso   1.00
O1353  O     0.14979   0.73568   0.85455   0.00000  Uiso   1.00
O1354  O     0.09083   0.73751   0.90865   0.00000  Uiso   1.00
N1355  N     0.37670   0.74312   0.77013   0.00000  Uiso   1.00
O1356  O     0.34887   0.71930   0.79785   0.00000  Uiso   1.00
O1357  O     0.38081   0.72473   0.71236   0.00000  Uiso   1.00
N1358  N     0.12426   0.92941   0.86029   0.00000  Uiso   1.00
O1359  O     0.11790   0.96090   0.82463   0.00000  Uiso   1.00
O1360  O     0.15528   0.94158   0.90534   0.00000  Uiso   1.00
C1361  C     0.03870   0.68895   0.77417   0.00000  Uiso   1.00
C1362  C     0.00748   0.97486   0.74228   0.00000  Uiso   1.00
H1363  H     0.48441   0.96411   0.77422   0.00000  Uiso   1.00
H1364  H     0.48770   0.98254   0.70275   0.00000  Uiso   1.00
H1365  H     0.02748   0.94130   0.72592   0.00000  Uiso   1.00
H1366  H     0.06424   0.69484   0.74275   0.00000  Uiso   1.00
H1367  H     0.05519   0.67798   0.81381   0.00000  Uiso   1.00
C1368  C     0.46553   0.98139   0.90922   0.00000  Uiso   1.00
C1369  C     0.49812   0.69522   0.93638   0.00000  Uiso   1.00
H1370  H     0.02463   0.68653   0.96849   0.00000  Uiso   1.00
H1371  H     0.01286   0.70889   0.89921   0.00000  Uiso   1.00
H1372  H     0.47973   0.72727   0.96178   0.00000  Uiso   1.00
H1373  H     0.44334   0.99287   0.87393   0.00000  Uiso   1.00
H1374  H     0.44639   0.97574   0.94743   0.00000  Uiso   1.00
C1375  C     0.20770   0.97953   0.75608   0.00000  Uiso   1.00
C1376  C     0.17613   0.67512   0.72140   0.00000  Uiso   1.00
H1377  H     0.16081   0.70671   0.75166   0.00000  Uiso   1.00
H1378  H     0.19379   0.69128   0.68812   0.00000  Uiso   1.00
H1379  H     0.14876   0.98076   0.69519   0.00000  Uiso   1.00
H1380  H     0.22817   0.95673   0.72207   0.00000  Uiso   1.00
H1381  H     0.18557   0.95186   0.77242   0.00000  Uiso   1.00
C1382  C     0.29253   0.68331   0.90706   0.00000  Uiso   1.00
C1383  C     0.27103   0.70044   0.96653   0.00000  Uiso   1.00
H1384  H     0.24018   0.71953   0.95873   0.00000  Uiso   1.00
H1385  H     0.26281   0.99962   0.98539   0.00000  Uiso   1.00
H1386  H     0.29451   0.72796   0.66713   0.00000  Uiso   1.00
H1387  H     0.31776   0.99013   0.91556   0.00000  Uiso   1.00
H1388  H     0.31249   0.71594   0.89642   0.00000  Uiso   1.00
N1389  N     0.19278   0.81539   0.99195   0.00000  Uiso   1.00
O1390  O     0.17154   0.85755   0.66704   0.00000  Uiso   1.00
O1391  O     0.16974   0.77125   0.98467   0.00000  Uiso   1.00
N1392  N     0.30604   0.85828   0.68002   0.00000  Uiso   1.00
O1393  O     0.33484   0.82352   0.66670   0.00000  Uiso   1.00
O1394  O     0.32030   0.90595   0.70583   0.00000  Uiso   1.00
O1395  O     0.75326   0.76204   0.87326   0.00000  Uiso   1.00
O1396  O     0.74675   0.90462   0.79341   0.00000  Uiso   1.00
O1397  O     0.74480   0.75226   0.76945   0.00000  Uiso   1.00
O1398  O     0.75520   0.91441   0.89721   0.00000  Uiso   1.00
C1399  C     0.74667   0.73347   0.81796   0.00000  Uiso   1.00
C1400  C     0.75193   0.93313   0.84843   0.00000  Uiso   1.00
O1401  O     0.68936   0.83821   0.88524   0.00000  Uiso   1.00
O1402  O     0.81065   0.82845   0.78143   0.00000  Uiso   1.00
O1403  O     0.68090   0.82843   0.78143   0.00000  Uiso   1.00
O1404  O     0.81910   0.83824   0.88523   0.00000  Uiso   1.00
C1405  C     0.66472   0.83377   0.83449   0.00000  Uiso   1.00
C1406  C     0.83527   0.83201   0.83223   0.00000  Uiso   1.00
Cu1407 Cu    0.75501   0.83913   0.89479   0.00000  Uiso   1.00
Cu1408 Cu    0.74500   0.82754   0.77187   0.00000  Uiso   1.00
C1409  C     0.90922   0.87983   0.85655   0.00000  Uiso   1.00
C1410  C     0.59086   0.78793   0.83504   0.00000  Uiso   1.00
C1411  C     0.88371   0.83315   0.83056   0.00000  Uiso   1.00
C1412  C     0.61665   0.83426   0.83795   0.00000  Uiso   1.00
C1413  C     0.90379   0.78848   0.80326   0.00000  Uiso   1.00
C1414  C     0.59690   0.88173   0.84991   0.00000  Uiso   1.00
C1415  C     0.95052   0.78870   0.80834   0.00000  Uiso   1.00
C1416  C     0.55047   0.88202   0.85400   0.00000  Uiso   1.00
C1417  C     0.97690   0.83558   0.83379   0.00000  Uiso   1.00
C1418  C     0.52375   0.83490   0.83618   0.00000  Uiso   1.00
C1419  C     0.95660   0.88267   0.85714   0.00000  Uiso   1.00
C1420  C     0.54411   0.78700   0.82238   0.00000  Uiso   1.00
C1421  C     0.97101   0.74217   0.78969   0.00000  Uiso   1.00
C1422  C     0.53077   0.92832   0.87639   0.00000  Uiso   1.00
C1423  C     0.51741   0.74010   0.79656   0.00000  Uiso   1.00
C1424  C     0.98454   0.92979   0.88074   0.00000  Uiso   1.00
H1425  H     0.95024   0.70678   0.77190   0.00000  Uiso   1.00
H1426  H     0.55220   0.96344   0.89212   0.00000  Uiso   1.00
C1427  C     0.73911   0.67779   0.81085   0.00000  Uiso   1.00
C1428  C     0.75846   0.98869   0.85460   0.00000  Uiso   1.00
N1429  N     0.73745   0.81881   0.67951   0.00000  Uiso   1.00
N1430  N     0.76256   0.84786   0.98716   0.00000  Uiso   1.00
N1431  N     0.88539   0.92414   0.87930   0.00000  Uiso   1.00
O1432  O     0.87251   0.93134   0.93422   0.00000  Uiso   1.00
O1433  O     0.86688   0.94801   0.84064   0.00000  Uiso   1.00
N1434  N     0.60956   0.74920   0.86294   0.00000  Uiso   1.00
O1435  O     0.64979   0.73568   0.85455   0.00000  Uiso   1.00
O1436  O     0.59083   0.73751   0.90865   0.00000  Uiso   1.00
N1437  N     0.87670   0.74312   0.77013   0.00000  Uiso   1.00
O1438  O     0.84887   0.71930   0.79785   0.00000  Uiso   1.00
O1439  O     0.88081   0.72473   0.71236   0.00000  Uiso   1.00
N1440  N     0.62426   0.92941   0.86029   0.00000  Uiso   1.00
O1441  O     0.61790   0.96090   0.82463   0.00000  Uiso   1.00
O1442  O     0.65528   0.94158   0.90534   0.00000  Uiso   1.00
C1443  C     0.53870   0.68895   0.77417   0.00000  Uiso   1.00
C1444  C     0.50748   0.97486   0.74228   0.00000  Uiso   1.00
H1445  H     0.98441   0.96411   0.77422   0.00000  Uiso   1.00
H1446  H     0.98770   0.98254   0.70275   0.00000  Uiso   1.00
H1447  H     0.52748   0.94130   0.72592   0.00000  Uiso   1.00
H1448  H     0.56424   0.69484   0.74275   0.00000  Uiso   1.00
H1449  H     0.55519   0.67798   0.81381   0.00000  Uiso   1.00
C1450  C     0.96553   0.98139   0.90922   0.00000  Uiso   1.00
C1451  C     0.99812   0.69522   0.93638   0.00000  Uiso   1.00
H1452  H     0.52463   0.68653   0.96849   0.00000  Uiso   1.00
H1453  H     0.51286   0.70889   0.89921   0.00000  Uiso   1.00
H1454  H     0.97973   0.72727   0.96178   0.00000  Uiso   1.00
H1455  H     0.94334   0.99287   0.87393   0.00000  Uiso   1.00
H1456  H     0.94639   0.97574   0.94743   0.00000  Uiso   1.00
C1457  C     0.70770   0.97953   0.75608   0.00000  Uiso   1.00
C1458  C     0.67613   0.67512   0.72140   0.00000  Uiso   1.00
H1459  H     0.66081   0.70671   0.75166   0.00000  Uiso   1.00
H1460  H     0.69379   0.69128   0.68812   0.00000  Uiso   1.00
H1461  H     0.64876   0.98076   0.69519   0.00000  Uiso   1.00
H1462  H     0.72817   0.95673   0.72207   0.00000  Uiso   1.00
H1463  H     0.68557   0.95186   0.77242   0.00000  Uiso   1.00
C1464  C     0.79253   0.68331   0.90706   0.00000  Uiso   1.00
C1465  C     0.77103   0.70044   0.96653   0.00000  Uiso   1.00
H1466  H     0.74018   0.71953   0.95873   0.00000  Uiso   1.00
H1467  H     0.76281   0.99962   0.98539   0.00000  Uiso   1.00
H1468  H     0.79451   0.72796   0.66713   0.00000  Uiso   1.00
H1469  H     0.81776   0.99013   0.91556   0.00000  Uiso   1.00
H1470  H     0.81249   0.71594   0.89642   0.00000  Uiso   1.00
N1471  N     0.69278   0.81539   0.99195   0.00000  Uiso   1.00
O1472  O     0.67154   0.85755   0.66704   0.00000  Uiso   1.00
O1473  O     0.66974   0.77125   0.98467   0.00000  Uiso   1.00
N1474  N     0.80604   0.85828   0.68002   0.00000  Uiso   1.00
O1475  O     0.83484   0.82352   0.66670   0.00000  Uiso   1.00
O1476  O     0.82030   0.90595   0.70583   0.00000  Uiso   1.00
loop_
_geom_bond_atom_site_label_1
_geom_bond_atom_site_label_2
_geom_bond_distance
_geom_bond_site_symmetry_2
_ccdc_geom_bond_type
O1     C5      1.300   .     A
O1     Cu13    1.987   .     S
O2     C6      1.292   .     A
O2     Cu14    1.987   .     S
O3     Cu14    1.984   .     S
O3     C5      1.301   .     A
O4     Cu13    1.984   .     S
O4     C6      1.306   .     A
C5     C33     1.452   .     S
C6     C34     1.449   .     S
O7     C11     1.297   .     A
O7     Cu13    1.972   .     S
O8     C12     1.302   .     A
O8     Cu14    1.972   .     S
O9     Cu14    1.959   .     S
O9     C11     1.306   .     A
O10    C12     1.303   .     A
O10    Cu13    1.959   .     S
C11    C18     1.456   .     S
C12    C17     1.461   .     S
Cu13   Cu14    2.714   .     S
Cu13   N36     2.039   .     S
Cu14   N35     2.039   .     S
C15    C25     1.424   .     A
C15    N37     1.425   .     S
C15    C17     1.402   .     A
C16    C26     1.415   .     A
C16    N40     1.441   .     S
C16    C18     1.402   .     A
C17    C19     1.397   .     A
C18    C20     1.401   .     A
C19    C21     1.404   .     A
C19    N43     1.437   .     S
C20    C22     1.409   .     A
C20    N46     1.433   .     S
C21    C27     1.402   .     A
C21    C23     1.416   .     A
C22    C24     1.409   .     A
C22    C28     1.399   .     A
C23    C25     1.429   .     A
C23    C106    1.410   .     S
C24    C26     1.422   .     A
C24    C105    1.410   1_455 S
C25    C30     1.438   .     A
C26    C29     1.423   .     A
C27    H31     1.077   .     S
C27    C111    1.401   .     S
C28    H32     1.077   .     S
C28    C112    1.405   1_455 S
C29    C49     1.529   .     S
C29    C109    1.401   1_455 S
C30    C56     1.534   .     S
C30    C110    1.405   .     S
C33    C362    1.375   1_545 S
C33    C391    1.548   1_545 S
C34    C197    1.375   .     S
C34    C234    1.532   .     S
N35    N1020   1.305   1_554 S
N35    N1061   1.384   1_554 S
N36    N527    1.305   .     S
N36    N572    1.384   .     S
N37    O38     1.301   .     A
N37    O39     1.301   .     A
N40    O42     1.299   .     A
N40    O41     1.298   .     A
N43    O44     1.300   .     A
N43    O45     1.301   .     A
N46    O48     1.300   .     A
N46    O47     1.297   .     A
C49    H54     1.111   .     S
C49    H55     1.096   .     S
C49    C378    1.531   1_545 S
C50    H53     1.111   .     S
C50    C213    1.531   .     S
C50    H133    1.108   1_455 S
C50    H134    1.101   1_455 S
H51    C132    1.108   .     S
H52    C132    1.101   .     S
C56    H62     1.104   .     S
C56    H61     1.109   .     S
C56    C221    1.527   .     S
C57    H60     1.111   .     S
C57    C384    1.527   1_545 S
C57    H140    1.108   .     S
C57    H141    1.099   .     S
H58    C139    1.108   1_455 S
H59    C139    1.099   1_455 S
C63    H68     1.111   .     S
C63    H69     1.106   .     S
C63    C197    1.548   .     S
C63    C228    1.534   .     S
C64    H66     1.100   .     S
C64    H65     1.100   .     S
C64    C391    1.534   1_545 S
C64    H395    1.111   1_545 S
H67    C228    1.111   .     S
C70    C71     1.519   .     S
C70    H76     1.107   .     S
C70    C362    1.532   1_545 S
C70    H403    1.099   1_545 S
C71    H72     1.105   .     S
C71    H401    1.108   1_545 S
C71    H566    1.109   .     S
H73    C235    1.108   .     S
H74    C1055   1.109   1_554 S
H75    C234    1.099   .     S
N77    O79     1.298   .     A
N77    N527    1.384   .     S
N77    O570    1.302   .     S
O78    N1061   1.302   1_554 S
N80    O82     1.300   .     A
N80    O81     1.301   .     A
N80    N1020   1.384   1_554 S
O83    C87     1.300   .     A
O83    Cu95    1.987   .     S
O84    C88     1.292   .     A
O84    Cu96    1.987   .     S
O85    Cu96    1.984   .     S
O85    C87     1.301   .     A
O86    Cu95    1.984   .     S
O86    C88     1.306   .     A
C87    C115    1.452   .     S
C88    C116    1.449   .     S
O89    C93     1.297   .     A
O89    Cu95    1.972   .     S
O90    C94     1.302   .     A
O90    Cu96    1.972   .     S
O91    Cu96    1.959   .     S
O91    C93     1.306   .     A
O92    C94     1.303   .     A
O92    Cu95    1.959   .     S
C93    C100    1.456   .     S
C94    C99     1.461   .     S
Cu95   Cu96    2.714   .     S
Cu95   N118    2.039   .     S
Cu96   N117    2.039   .     S
C97    C107    1.424   .     A
C97    N119    1.425   .     S
C97    C99     1.402   .     A
C98    C108    1.415   .     A
C98    N122    1.441   .     S
C98    C100    1.402   .     A
C99    C101    1.397   .     A
C100   C102    1.401   .     A
C101   C103    1.404   .     A
C101   N125    1.437   .     S
C102   C104    1.409   .     A
C102   N128    1.433   .     S
C103   C109    1.402   .     A
C103   C105    1.416   .     A
C104   C106    1.409   .     A
C104   C110    1.399   .     A
C105   C107    1.429   .     A
C105   C24     1.410   1_655 S
C106   C108    1.422   .     A
C107   C112    1.438   .     A
C108   C111    1.423   .     A
C109   H113    1.077   .     S
C109   C29     1.401   1_655 S
C110   H114    1.077   .     S
C111   C131    1.529   .     S
C112   C138    1.534   .     S
C112   C28     1.405   1_655 S
C115   C444    1.375   1_545 S
C115   C473    1.548   1_545 S
C116   C279    1.375   .     S
C116   C316    1.532   .     S
N117   N1102   1.305   1_554 S
N117   N1143   1.384   1_554 S
N118   N609    1.305   .     S
N118   N654    1.384   .     S
N119   O120    1.301   .     A
N119   O121    1.301   .     A
N122   O124    1.299   .     A
N122   O123    1.298   .     A
N125   O126    1.300   .     A
N125   O127    1.301   .     A
N128   O130    1.300   .     A
N128   O129    1.297   .     A
C131   H136    1.111   .     S
C131   H137    1.096   .     S
C131   C460    1.531   1_545 S
C132   H135    1.111   .     S
C132   C295    1.531   .     S
H133   C50     1.108   1_655 S
H134   C50     1.101   1_655 S
C138   H144    1.104   .     S
C138   H143    1.109   .     S
C138   C303    1.527   .     S
C139   H142    1.111   .     S
C139   C466    1.527   1_545 S
C139   H58     1.108   1_655 S
C139   H59     1.099   1_655 S
C145   H150    1.111   .     S
C145   H151    1.106   .     S
C145   C279    1.548   .     S
C145   C310    1.534   .     S
C146   H148    1.100   .     S
C146   H147    1.100   .     S
C146   C473    1.534   1_545 S
C146   H477    1.111   1_545 S
H149   C310    1.111   .     S
C152   C153    1.519   .     S
C152   H158    1.107   .     S
C152   C444    1.532   1_545 S
C152   H485    1.099   1_545 S
C153   H154    1.105   .     S
C153   H483    1.108   1_545 S
C153   H648    1.109   .     S
H155   C317    1.108   .     S
H156   C1137   1.109   1_554 S
H157   C316    1.099   .     S
N159   O161    1.298   .     A
N159   N609    1.384   .     S
N159   O652    1.302   .     S
O160   N1143   1.302   1_554 S
N162   O164    1.300   .     A
N162   O163    1.301   .     A
N162   N1102   1.384   1_554 S
O165   C169    1.300   .     A
O165   Cu177   1.987   .     S
O166   C170    1.292   .     A
O166   Cu178   1.987   .     S
O167   Cu178   1.984   .     S
O167   C169    1.301   .     A
O168   Cu177   1.984   .     S
O168   C170    1.306   .     A
C169   C197    1.452   .     S
C170   C198    1.449   .     S
O171   C175    1.297   .     A
O171   Cu177   1.972   .     S
O172   C176    1.302   .     A
O172   Cu178   1.972   .     S
O173   Cu178   1.959   .     S
O173   C175    1.306   .     A
O174   C176    1.303   .     A
O174   Cu177   1.959   .     S
C175   C182    1.456   .     S
C176   C181    1.461   .     S
Cu177  Cu178   2.714   .     S
Cu177  N200    2.039   .     S
Cu178  N199    2.039   .     S
C179   C189    1.424   .     A
C179   N201    1.425   .     S
C179   C181    1.402   .     A
C180   C190    1.415   .     A
C180   N204    1.441   .     S
C180   C182    1.402   .     A
C181   C183    1.397   .     A
C182   C184    1.401   .     A
C183   C185    1.404   .     A
C183   N207    1.437   .     S
C184   C186    1.409   .     A
C184   N210    1.433   .     S
C185   C191    1.402   .     A
C185   C187    1.416   .     A
C186   C188    1.409   .     A
C186   C192    1.399   .     A
C187   C189    1.429   .     A
C187   C270    1.410   .     S
C188   C190    1.422   .     A
C188   C269    1.410   1_455 S
C189   C194    1.438   .     A
C190   C193    1.423   .     A
C191   H195    1.077   .     S
C191   C275    1.401   .     S
C192   H196    1.077   .     S
C192   C276    1.405   1_455 S
C193   C213    1.529   .     S
C193   C273    1.401   1_455 S
C194   C220    1.534   .     S
C194   C274    1.405   .     S
C198   C361    1.375   .     S
C198   C398    1.532   .     S
N199   N1184   1.305   1_554 S
N199   N1225   1.384   1_554 S
N200   N691    1.305   .     S
N200   N736    1.384   .     S
N201   O202    1.301   .     A
N201   O203    1.301   .     A
N204   O206    1.299   .     A
N204   O205    1.298   .     A
N207   O208    1.300   .     A
N207   O209    1.301   .     A
N210   O212    1.300   .     A
N210   O211    1.297   .     A
C213   H218    1.111   .     S
C213   H219    1.096   .     S
C214   H217    1.111   .     S
C214   C377    1.531   .     S
C214   H297    1.108   1_455 S
C214   H298    1.101   1_455 S
H215   C296    1.108   .     S
H216   C296    1.101   .     S
C220   H226    1.104   .     S
C220   H225    1.109   .     S
C220   C385    1.527   .     S
C221   H224    1.111   .     S
C221   H304    1.108   .     S
C221   H305    1.099   .     S
H222   C303    1.108   1_455 S
H223   C303    1.099   1_455 S
C227   H232    1.111   .     S
C227   H233    1.106   .     S
C227   C361    1.548   .     S
C227   C392    1.534   .     S
C228   H230    1.100   .     S
C228   H229    1.100   .     S
H231   C392    1.111   .     S
C234   C235    1.519   .     S
C234   H240    1.107   .     S
C235   H236    1.105   .     S
C235   H730    1.109   .     S
H237   C399    1.108   .     S
H238   C1219   1.109   1_554 S
H239   C398    1.099   .     S
N241   O243    1.298   .     A
N241   N691    1.384   .     S
N241   O734    1.302   .     S
O242   N1225   1.302   1_554 S
N244   O246    1.300   .     A
N244   O245    1.301   .     A
N244   N1184   1.384   1_554 S
O247   C251    1.300   .     A
O247   Cu259   1.987   .     S
O248   C252    1.292   .     A
O248   Cu260   1.987   .     S
O249   Cu260   1.984   .     S
O249   C251    1.301   .     A
O250   Cu259   1.984   .     S
O250   C252    1.306   .     A
C251   C279    1.452   .     S
C252   C280    1.449   .     S
O253   C257    1.297   .     A
O253   Cu259   1.972   .     S
O254   C258    1.302   .     A
O254   Cu260   1.972   .     S
O255   Cu260   1.959   .     S
O255   C257    1.306   .     A
O256   C258    1.303   .     A
O256   Cu259   1.959   .     S
C257   C264    1.456   .     S
C258   C263    1.461   .     S
Cu259  Cu260   2.714   .     S
Cu259  N282    2.039   .     S
Cu260  N281    2.039   .     S
C261   C271    1.424   .     A
C261   N283    1.425   .     S
C261   C263    1.402   .     A
C262   C272    1.415   .     A
C262   N286    1.441   .     S
C262   C264    1.402   .     A
C263   C265    1.397   .     A
C264   C266    1.401   .     A
C265   C267    1.404   .     A
C265   N289    1.437   .     S
C266   C268    1.409   .     A
C266   N292    1.433   .     S
C267   C273    1.402   .     A
C267   C269    1.416   .     A
C268   C270    1.409   .     A
C268   C274    1.399   .     A
C269   C271    1.429   .     A
C269   C188    1.410   1_655 S
C270   C272    1.422   .     A
C271   C276    1.438   .     A
C272   C275    1.423   .     A
C273   H277    1.077   .     S
C273   C193    1.401   1_655 S
C274   H278    1.077   .     S
C275   C295    1.529   .     S
C276   C302    1.534   .     S
C276   C192    1.405   1_655 S
C280   C443    1.375   .     S
C280   C480    1.532   .     S
N281   N1266   1.305   1_554 S
N281   N1307   1.384   1_554 S
N282   N773    1.305   .     S
N282   N818    1.384   .     S
N283   O284    1.301   .     A
N283   O285    1.301   .     A
N286   O288    1.299   .     A
N286   O287    1.298   .     A
N289   O290    1.300   .     A
N289   O291    1.301   .     A
N292   O294    1.300   .     A
N292   O293    1.297   .     A
C295   H300    1.111   .     S
C295   H301    1.096   .     S
C296   H299    1.111   .     S
C296   C459    1.531   .     S
H297   C214    1.108   1_655 S
H298   C214    1.101   1_655 S
C302   H308    1.104   .     S
C302   H307    1.109   .     S
C302   C467    1.527   .     S
C303   H306    1.111   .     S
C303   H222    1.108   1_655 S
C303   H223    1.099   1_655 S
C309   H314    1.111   .     S
C309   H315    1.106   .     S
C309   C443    1.548   .     S
C309   C474    1.534   .     S
C310   H312    1.100   .     S
C310   H311    1.100   .     S
H313   C474    1.111   .     S
C316   C317    1.519   .     S
C316   H322    1.107   .     S
C317   H318    1.105   .     S
C317   H812    1.109   .     S
H319   C481    1.108   .     S
H320   C1301   1.109   1_554 S
H321   C480    1.099   .     S
N323   O325    1.298   .     A
N323   N773    1.384   .     S
N323   O816    1.302   .     S
O324   N1307   1.302   1_554 S
N326   O328    1.300   .     A
N326   O327    1.301   .     A
N326   N1266   1.384   1_554 S
O329   C333    1.300   .     A
O329   Cu341   1.987   .     S
O330   C334    1.292   .     A
O330   Cu342   1.987   .     S
O331   Cu342   1.984   .     S
O331   C333    1.301   .     A
O332   Cu341   1.984   .     S
O332   C334    1.306   .     A
C333   C361    1.452   .     S
C334   C362    1.449   .     S
O335   C339    1.297   .     A
O335   Cu341   1.972   .     S
O336   C340    1.302   .     A
O336   Cu342   1.972   .     S
O337   Cu342   1.959   .     S
O337   C339    1.306   .     A
O338   C340    1.303   .     A
O338   Cu341   1.959   .     S
C339   C346    1.456   .     S
C340   C345    1.461   .     S
Cu341  Cu342   2.714   .     S
Cu341  N364    2.039   .     S
Cu342  N363    2.039   .     S
C343   C353    1.424   .     A
C343   N365    1.425   .     S
C343   C345    1.402   .     A
C344   C354    1.415   .     A
C344   N368    1.441   .     S
C344   C346    1.402   .     A
C345   C347    1.397   .     A
C346   C348    1.401   .     A
C347   C349    1.404   .     A
C347   N371    1.437   .     S
C348   C350    1.409   .     A
C348   N374    1.433   .     S
C349   C355    1.402   .     A
C349   C351    1.416   .     A
C350   C352    1.409   .     A
C350   C356    1.399   .     A
C351   C353    1.429   .     A
C351   C434    1.410   .     S
C352   C354    1.422   .     A
C352   C433    1.410   1_455 S
C353   C358    1.438   .     A
C354   C357    1.423   .     A
C355   H359    1.077   .     S
C355   C439    1.401   .     S
C356   H360    1.077   .     S
C356   C440    1.405   1_455 S
C357   C377    1.529   .     S
C357   C437    1.401   1_455 S
C358   C384    1.534   .     S
C358   C438    1.405   .     S
C362   C33     1.375   1_565 S
C362   C70     1.532   1_565 S
N363   N1348   1.305   1_554 S
N363   N1389   1.384   1_554 S
N364   N855    1.305   .     S
N364   N900    1.384   .     S
N365   O366    1.301   .     A
N365   O367    1.301   .     A
N368   O370    1.299   .     A
N368   O369    1.298   .     A
N371   O372    1.300   .     A
N371   O373    1.301   .     A
N374   O376    1.300   .     A
N374   O375    1.297   .     A
C377   H382    1.111   .     S
C377   H383    1.096   .     S
C378   H381    1.111   .     S
C378   C49     1.531   1_565 S
C378   H461    1.108   1_455 S
C378   H462    1.101   1_455 S
H379   C460    1.108   .     S
H380   C460    1.101   .     S
C384   H390    1.104   .     S
C384   H389    1.109   .     S
C384   C57     1.527   1_565 S
C385   H388    1.111   .     S
C385   H468    1.108   .     S
C385   H469    1.099   .     S
H386   C467    1.108   1_455 S
H387   C467    1.099   1_455 S
C391   H396    1.111   .     S
C391   H397    1.106   .     S
C391   C33     1.548   1_565 S
C391   C64     1.534   1_565 S
C392   H394    1.100   .     S
C392   H393    1.100   .     S
H395   C64     1.111   1_565 S
C398   C399    1.519   .     S
C398   H404    1.107   .     S
C399   H400    1.105   .     S
C399   H894    1.109   .     S
H401   C71     1.108   1_565 S
H402   C1383   1.109   1_554 S
H403   C70     1.099   1_565 S
N405   O407    1.298   .     A
N405   N855    1.384   .     S
N405   O898    1.302   .     S
O406   N1389   1.302   1_554 S
N408   O410    1.300   .     A
N408   O409    1.301   .     A
N408   N1348   1.384   1_554 S
O411   C415    1.300   .     A
O411   Cu423   1.987   .     S
O412   C416    1.292   .     A
O412   Cu424   1.987   .     S
O413   Cu424   1.984   .     S
O413   C415    1.301   .     A
O414   Cu423   1.984   .     S
O414   C416    1.306   .     A
C415   C443    1.452   .     S
C416   C444    1.449   .     S
O417   C421    1.297   .     A
O417   Cu423   1.972   .     S
O418   C422    1.302   .     A
O418   Cu424   1.972   .     S
O419   Cu424   1.959   .     S
O419   C421    1.306   .     A
O420   C422    1.303   .     A
O420   Cu423   1.959   .     S
C421   C428    1.456   .     S
C422   C427    1.461   .     S
Cu423  Cu424   2.714   .     S
Cu423  N446    2.039   .     S
Cu424  N445    2.039   .     S
C425   C435    1.424   .     A
C425   N447    1.425   .     S
C425   C427    1.402   .     A
C426   C436    1.415   .     A
C426   N450    1.441   .     S
C426   C428    1.402   .     A
C427   C429    1.397   .     A
C428   C430    1.401   .     A
C429   C431    1.404   .     A
C429   N453    1.437   .     S
C430   C432    1.409   .     A
C430   N456    1.433   .     S
C431   C437    1.402   .     A
C431   C433    1.416   .     A
C432   C434    1.409   .     A
C432   C438    1.399   .     A
C433   C435    1.429   .     A
C433   C352    1.410   1_655 S
C434   C436    1.422   .     A
C435   C440    1.438   .     A
C436   C439    1.423   .     A
C437   H441    1.077   .     S
C437   C357    1.401   1_655 S
C438   H442    1.077   .     S
C439   C459    1.529   .     S
C440   C466    1.534   .     S
C440   C356    1.405   1_655 S
C444   C115    1.375   1_565 S
C444   C152    1.532   1_565 S
N445   N1430   1.305   1_554 S
N445   N1471   1.384   1_554 S
N446   N937    1.305   .     S
N446   N982    1.384   .     S
N447   O448    1.301   .     A
N447   O449    1.301   .     A
N450   O452    1.299   .     A
N450   O451    1.298   .     A
N453   O454    1.300   .     A
N453   O455    1.301   .     A
N456   O458    1.300   .     A
N456   O457    1.297   .     A
C459   H464    1.111   .     S
C459   H465    1.096   .     S
C460   H463    1.111   .     S
C460   C131    1.531   1_565 S
H461   C378    1.108   1_655 S
H462   C378    1.101   1_655 S
C466   H472    1.104   .     S
C466   H471    1.109   .     S
C466   C139    1.527   1_565 S
C467   H470    1.111   .     S
C467   H386    1.108   1_655 S
C467   H387    1.099   1_655 S
C473   H478    1.111   .     S
C473   H479    1.106   .     S
C473   C115    1.548   1_565 S
C473   C146    1.534   1_565 S
C474   H476    1.100   .     S
C474   H475    1.100   .     S
H477   C146    1.111   1_565 S
C480   C481    1.519   .     S
C480   H486    1.107   .     S
C481   H482    1.105   .     S
C481   H976    1.109   .     S
H483   C153    1.108   1_565 S
H484   C1465   1.109   1_554 S
H485   C152    1.099   1_565 S
N487   O489    1.298   .     A
N487   N937    1.384   .     S
N487   O980    1.302   .     S
O488   N1471   1.302   1_554 S
N490   O492    1.300   .     A
N490   O491    1.301   .     A
N490   N1430   1.384   1_554 S
O493   C497    1.300   .     A
O493   Cu505   1.987   .     S
O494   C498    1.292   .     A
O494   Cu506   1.987   .     S
O495   Cu506   1.984   .     S
O495   C497    1.301   .     A
O496   Cu505   1.984   .     S
O496   C498    1.306   .     A
C497   C525    1.452   .     S
C498   C526    1.449   .     S
O499   C503    1.297   .     A
O499   Cu505   1.972   .     S
O500   C504    1.302   .     A
O500   Cu506   1.972   .     S
O501   Cu506   1.959   .     S
O501   C503    1.306   .     A
O502   C504    1.303   .     A
O502   Cu505   1.959   .     S
C503   C510    1.456   .     S
C504   C509    1.461   .     S
Cu505  Cu506   2.714   .     S
Cu505  N528    2.039   .     S
Cu506  N527    2.039   .     S
C507   C517    1.424   .     A
C507   N529    1.425   .     S
C507   C509    1.402   .     A
C508   C518    1.415   .     A
C508   N532    1.441   .     S
C508   C510    1.402   .     A
C509   C511    1.397   .     A
C510   C512    1.401   .     A
C511   C513    1.404   .     A
C511   N535    1.437   .     S
C512   C514    1.409   .     A
C512   N538    1.433   .     S
C513   C519    1.402   .     A
C513   C515    1.416   .     A
C514   C516    1.409   .     A
C514   C520    1.399   .     A
C515   C517    1.429   .     A
C515   C598    1.410   .     S
C516   C518    1.422   .     A
C516   C597    1.410   1_455 S
C517   C522    1.438   .     A
C518   C521    1.423   .     A
C519   H523    1.077   .     S
C519   C603    1.401   .     S
C520   H524    1.077   .     S
C520   C604    1.405   1_455 S
C521   C541    1.529   .     S
C521   C601    1.401   1_455 S
C522   C548    1.534   .     S
C522   C602    1.405   .     S
C525   C854    1.375   1_545 S
C525   C883    1.548   1_545 S
C526   C689    1.375   .     S
C526   C726    1.532   .     S
N528   N1019   1.305   .     S
N528   N1064   1.384   .     S
N529   O530    1.301   .     A
N529   O531    1.301   .     A
N532   O534    1.299   .     A
N532   O533    1.298   .     A
N535   O536    1.300   .     A
N535   O537    1.301   .     A
N538   O540    1.300   .     A
N538   O539    1.297   .     A
C541   H546    1.111   .     S
C541   H547    1.096   .     S
C541   C870    1.531   1_545 S
C542   H545    1.111   .     S
C542   C705    1.531   .     S
C542   H625    1.108   1_455 S
C542   H626    1.101   1_455 S
H543   C624    1.108   .     S
H544   C624    1.101   .     S
C548   H554    1.104   .     S
C548   H553    1.109   .     S
C548   C713    1.527   .     S
C549   H552    1.111   .     S
C549   C876    1.527   1_545 S
C549   H632    1.108   .     S
C549   H633    1.099   .     S
H550   C631    1.108   1_455 S
H551   C631    1.099   1_455 S
C555   H560    1.111   .     S
C555   H561    1.106   .     S
C555   C689    1.548   .     S
C555   C720    1.534   .     S
C556   H558    1.100   .     S
C556   H557    1.100   .     S
C556   C883    1.534   1_545 S
C556   H887    1.111   1_545 S
H559   C720    1.111   .     S
C562   C563    1.519   .     S
C562   H568    1.107   .     S
C562   C854    1.532   1_545 S
C562   H895    1.099   1_545 S
C563   H564    1.105   .     S
C563   H893    1.108   1_545 S
C563   H1058   1.109   .     S
H565   C727    1.108   .     S
H567   C726    1.099   .     S
N569   O571    1.298   .     A
N569   N1019   1.384   .     S
N569   O1062   1.302   .     S
N572   O574    1.300   .     A
N572   O573    1.301   .     A
O575   C579    1.300   .     A
O575   Cu587   1.987   .     S
O576   C580    1.292   .     A
O576   Cu588   1.987   .     S
O577   Cu588   1.984   .     S
O577   C579    1.301   .     A
O578   Cu587   1.984   .     S
O578   C580    1.306   .     A
C579   C607    1.452   .     S
C580   C608    1.449   .     S
O581   C585    1.297   .     A
O581   Cu587   1.972   .     S
O582   C586    1.302   .     A
O582   Cu588   1.972   .     S
O583   Cu588   1.959   .     S
O583   C585    1.306   .     A
O584   C586    1.303   .     A
O584   Cu587   1.959   .     S
C585   C592    1.456   .     S
C586   C591    1.461   .     S
Cu587  Cu588   2.714   .     S
Cu587  N610    2.039   .     S
Cu588  N609    2.039   .     S
C589   C599    1.424   .     A
C589   N611    1.425   .     S
C589   C591    1.402   .     A
C590   C600    1.415   .     A
C590   N614    1.441   .     S
C590   C592    1.402   .     A
C591   C593    1.397   .     A
C592   C594    1.401   .     A
C593   C595    1.404   .     A
C593   N617    1.437   .     S
C594   C596    1.409   .     A
C594   N620    1.433   .     S
C595   C601    1.402   .     A
C595   C597    1.416   .     A
C596   C598    1.409   .     A
C596   C602    1.399   .     A
C597   C599    1.429   .     A
C597   C516    1.410   1_655 S
C598   C600    1.422   .     A
C599   C604    1.438   .     A
C600   C603    1.423   .     A
C601   H605    1.077   .     S
C601   C521    1.401   1_655 S
C602   H606    1.077   .     S
C603   C623    1.529   .     S
C604   C630    1.534   .     S
C604   C520    1.405   1_655 S
C607   C936    1.375   1_545 S
C607   C965    1.548   1_545 S
C608   C771    1.375   .     S
C608   C808    1.532   .     S
N610   N1101   1.305   .     S
N610   N1146   1.384   .     S
N611   O612    1.301   .     A
N611   O613    1.301   .     A
N614   O616    1.299   .     A
N614   O615    1.298   .     A
N617   O618    1.300   .     A
N617   O619    1.301   .     A
N620   O622    1.300   .     A
N620   O621    1.297   .     A
C623   H628    1.111   .     S
C623   H629    1.096   .     S
C623   C952    1.531   1_545 S
C624   H627    1.111   .     S
C624   C787    1.531   .     S
H625   C542    1.108   1_655 S
H626   C542    1.101   1_655 S
C630   H636    1.104   .     S
C630   H635    1.109   .     S
C630   C795    1.527   .     S
C631   H634    1.111   .     S
C631   C958    1.527   1_545 S
C631   H550    1.108   1_655 S
C631   H551    1.099   1_655 S
C637   H642    1.111   .     S
C637   H643    1.106   .     S
C637   C771    1.548   .     S
C637   C802    1.534   .     S
C638   H640    1.100   .     S
C638   H639    1.100   .     S
C638   C965    1.534   1_545 S
C638   H969    1.111   1_545 S
H641   C802    1.111   .     S
C644   C645    1.519   .     S
C644   H650    1.107   .     S
C644   C936    1.532   1_545 S
C644   H977    1.099   1_545 S
C645   H646    1.105   .     S
C645   H975    1.108   1_545 S
C645   H1140   1.109   .     S
H647   C809    1.108   .     S
H649   C808    1.099   .     S
N651   O653    1.298   .     A
N651   N1101   1.384   .     S
N651   O1144   1.302   .     S
N654   O656    1.300   .     A
N654   O655    1.301   .     A
O657   C661    1.300   .     A
O657   Cu669   1.987   .     S
O658   C662    1.292   .     A
O658   Cu670   1.987   .     S
O659   Cu670   1.984   .     S
O659   C661    1.301   .     A
O660   Cu669   1.984   .     S
O660   C662    1.306   .     A
C661   C689    1.452   .     S
C662   C690    1.449   .     S
O663   C667    1.297   .     A
O663   Cu669   1.972   .     S
O664   C668    1.302   .     A
O664   Cu670   1.972   .     S
O665   Cu670   1.959   .     S
O665   C667    1.306   .     A
O666   C668    1.303   .     A
O666   Cu669   1.959   .     S
C667   C674    1.456   .     S
C668   C673    1.461   .     S
Cu669  Cu670   2.714   .     S
Cu669  N692    2.039   .     S
Cu670  N691    2.039   .     S
C671   C681    1.424   .     A
C671   N693    1.425   .     S
C671   C673    1.402   .     A
C672   C682    1.415   .     A
C672   N696    1.441   .     S
C672   C674    1.402   .     A
C673   C675    1.397   .     A
C674   C676    1.401   .     A
C675   C677    1.404   .     A
C675   N699    1.437   .     S
C676   C678    1.409   .     A
C676   N702    1.433   .     S
C677   C683    1.402   .     A
C677   C679    1.416   .     A
C678   C680    1.409   .     A
C678   C684    1.399   .     A
C679   C681    1.429   .     A
C679   C762    1.410   .     S
C680   C682    1.422   .     A
C680   C761    1.410   1_455 S
C681   C686    1.438   .     A
C682   C685    1.423   .     A
C683   H687    1.077   .     S
C683   C767    1.401   .     S
C684   H688    1.077   .     S
C684   C768    1.405   1_455 S
C685   C705    1.529   .     S
C685   C765    1.401   1_455 S
C686   C712    1.534   .     S
C686   C766    1.405   .     S
C690   C853    1.375   .     S
C690   C890    1.532   .     S
N692   N1183   1.305   .     S
N692   N1228   1.384   .     S
N693   O694    1.301   .     A
N693   O695    1.301   .     A
N696   O698    1.299   .     A
N696   O697    1.298   .     A
N699   O700    1.300   .     A
N699   O701    1.301   .     A
N702   O704    1.300   .     A
N702   O703    1.297   .     A
C705   H710    1.111   .     S
C705   H711    1.096   .     S
C706   H709    1.111   .     S
C706   C869    1.531   .     S
C706   H789    1.108   1_455 S
C706   H790    1.101   1_455 S
H707   C788    1.108   .     S
H708   C788    1.101   .     S
C712   H718    1.104   .     S
C712   H717    1.109   .     S
C712   C877    1.527   .     S
C713   H716    1.111   .     S
C713   H796    1.108   .     S
C713   H797    1.099   .     S
H714   C795    1.108   1_455 S
H715   C795    1.099   1_455 S
C719   H724    1.111   .     S
C719   H725    1.106   .     S
C719   C853    1.548   .     S
C719   C884    1.534   .     S
C720   H722    1.100   .     S
C720   H721    1.100   .     S
H723   C884    1.111   .     S
C726   C727    1.519   .     S
C726   H732    1.107   .     S
C727   H728    1.105   .     S
C727   H1222   1.109   .     S
H729   C891    1.108   .     S
H731   C890    1.099   .     S
N733   O735    1.298   .     A
N733   N1183   1.384   .     S
N733   O1226   1.302   .     S
N736   O738    1.300   .     A
N736   O737    1.301   .     A
O739   C743    1.300   .     A
O739   Cu751   1.987   .     S
O740   C744    1.292   .     A
O740   Cu752   1.987   .     S
O741   Cu752   1.984   .     S
O741   C743    1.301   .     A
O742   Cu751   1.984   .     S
O742   C744    1.306   .     A
C743   C771    1.452   .     S
C744   C772    1.449   .     S
O745   C749    1.297   .     A
O745   Cu751   1.972   .     S
O746   C750    1.302   .     A
O746   Cu752   1.972   .     S
O747   Cu752   1.959   .     S
O747   C749    1.306   .     A
O748   C750    1.303   .     A
O748   Cu751   1.959   .     S
C749   C756    1.456   .     S
C750   C755    1.461   .     S
Cu751  Cu752   2.714   .     S
Cu751  N774    2.039   .     S
Cu752  N773    2.039   .     S
C753   C763    1.424   .     A
C753   N775    1.425   .     S
C753   C755    1.402   .     A
C754   C764    1.415   .     A
C754   N778    1.441   .     S
C754   C756    1.402   .     A
C755   C757    1.397   .     A
C756   C758    1.401   .     A
C757   C759    1.404   .     A
C757   N781    1.437   .     S
C758   C760    1.409   .     A
C758   N784    1.433   .     S
C759   C765    1.402   .     A
C759   C761    1.416   .     A
C760   C762    1.409   .     A
C760   C766    1.399   .     A
C761   C763    1.429   .     A
C761   C680    1.410   1_655 S
C762   C764    1.422   .     A
C763   C768    1.438   .     A
C764   C767    1.423   .     A
C765   H769    1.077   .     S
C765   C685    1.401   1_655 S
C766   H770    1.077   .     S
C767   C787    1.529   .     S
C768   C794    1.534   .     S
C768   C684    1.405   1_655 S
C772   C935    1.375   .     S
C772   C972    1.532   .     S
N774   N1265   1.305   .     S
N774   N1310   1.384   .     S
N775   O776    1.301   .     A
N775   O777    1.301   .     A
N778   O780    1.299   .     A
N778   O779    1.298   .     A
N781   O782    1.300   .     A
N781   O783    1.301   .     A
N784   O786    1.300   .     A
N784   O785    1.297   .     A
C787   H792    1.111   .     S
C787   H793    1.096   .     S
C788   H791    1.111   .     S
C788   C951    1.531   .     S
H789   C706    1.108   1_655 S
H790   C706    1.101   1_655 S
C794   H800    1.104   .     S
C794   H799    1.109   .     S
C794   C959    1.527   .     S
C795   H798    1.111   .     S
C795   H714    1.108   1_655 S
C795   H715    1.099   1_655 S
C801   H806    1.111   .     S
C801   H807    1.106   .     S
C801   C935    1.548   .     S
C801   C966    1.534   .     S
C802   H804    1.100   .     S
C802   H803    1.100   .     S
H805   C966    1.111   .     S
C808   C809    1.519   .     S
C808   H814    1.107   .     S
C809   H810    1.105   .     S
C809   H1304   1.109   .     S
H811   C973    1.108   .     S
H813   C972    1.099   .     S
N815   O817    1.298   .     A
N815   N1265   1.384   .     S
N815   O1308   1.302   .     S
N818   O820    1.300   .     A
N818   O819    1.301   .     A
O821   C825    1.300   .     A
O821   Cu833   1.987   .     S
O822   C826    1.292   .     A
O822   Cu834   1.987   .     S
O823   Cu834   1.984   .     S
O823   C825    1.301   .     A
O824   Cu833   1.984   .     S
O824   C826    1.306   .     A
C825   C853    1.452   .     S
C826   C854    1.449   .     S
O827   C831    1.297   .     A
O827   Cu833   1.972   .     S
O828   C832    1.302   .     A
O828   Cu834   1.972   .     S
O829   Cu834   1.959   .     S
O829   C831    1.306   .     A
O830   C832    1.303   .     A
O830   Cu833   1.959   .     S
C831   C838    1.456   .     S
C832   C837    1.461   .     S
Cu833  Cu834   2.714   .     S
Cu833  N856    2.039   .     S
Cu834  N855    2.039   .     S
C835   C845    1.424   .     A
C835   N857    1.425   .     S
C835   C837    1.402   .     A
C836   C846    1.415   .     A
C836   N860    1.441   .     S
C836   C838    1.402   .     A
C837   C839    1.397   .     A
C838   C840    1.401   .     A
C839   C841    1.404   .     A
C839   N863    1.437   .     S
C840   C842    1.409   .     A
C840   N866    1.433   .     S
C841   C847    1.402   .     A
C841   C843    1.416   .     A
C842   C844    1.409   .     A
C842   C848    1.399   .     A
C843   C845    1.429   .     A
C843   C926    1.410   .     S
C844   C846    1.422   .     A
C844   C925    1.410   1_455 S
C845   C850    1.438   .     A
C846   C849    1.423   .     A
C847   H851    1.077   .     S
C847   C931    1.401   .     S
C848   H852    1.077   .     S
C848   C932    1.405   1_455 S
C849   C869    1.529   .     S
C849   C929    1.401   1_455 S
C850   C876    1.534   .     S
C850   C930    1.405   .     S
C854   C525    1.375   1_565 S
C854   C562    1.532   1_565 S
N856   N1347   1.305   .     S
N856   N1392   1.384   .     S
N857   O858    1.301   .     A
N857   O859    1.301   .     A
N860   O862    1.299   .     A
N860   O861    1.298   .     A
N863   O864    1.300   .     A
N863   O865    1.301   .     A
N866   O868    1.300   .     A
N866   O867    1.297   .     A
C869   H874    1.111   .     S
C869   H875    1.096   .     S
C870   H873    1.111   .     S
C870   C541    1.531   1_565 S
C870   H953    1.108   1_455 S
C870   H954    1.101   1_455 S
H871   C952    1.108   .     S
H872   C952    1.101   .     S
C876   H882    1.104   .     S
C876   H881    1.109   .     S
C876   C549    1.527   1_565 S
C877   H880    1.111   .     S
C877   H960    1.108   .     S
C877   H961    1.099   .     S
H878   C959    1.108   1_455 S
H879   C959    1.099   1_455 S
C883   H888    1.111   .     S
C883   H889    1.106   .     S
C883   C525    1.548   1_565 S
C883   C556    1.534   1_565 S
C884   H886    1.100   .     S
C884   H885    1.100   .     S
H887   C556    1.111   1_565 S
C890   C891    1.519   .     S
C890   H896    1.107   .     S
C891   H892    1.105   .     S
C891   H1386   1.109   .     S
H893   C563    1.108   1_565 S
H895   C562    1.099   1_565 S
N897   O899    1.298   .     A
N897   N1347   1.384   .     S
N897   O1390   1.302   .     S
N900   O902    1.300   .     A
N900   O901    1.301   .     A
O903   C907    1.300   .     A
O903   Cu915   1.987   .     S
O904   C908    1.292   .     A
O904   Cu916   1.987   .     S
O905   Cu916   1.984   .     S
O905   C907    1.301   .     A
O906   Cu915   1.984   .     S
O906   C908    1.306   .     A
C907   C935    1.452   .     S
C908   C936    1.449   .     S
O909   C913    1.297   .     A
O909   Cu915   1.972   .     S
O910   C914    1.302   .     A
O910   Cu916   1.972   .     S
O911   Cu916   1.959   .     S
O911   C913    1.306   .     A
O912   C914    1.303   .     A
O912   Cu915   1.959   .     S
C913   C920    1.456   .     S
C914   C919    1.461   .     S
Cu915  Cu916   2.714   .     S
Cu915  N938    2.039   .     S
Cu916  N937    2.039   .     S
C917   C927    1.424   .     A
C917   N939    1.425   .     S
C917   C919    1.402   .     A
C918   C928    1.415   .     A
C918   N942    1.441   .     S
C918   C920    1.402   .     A
C919   C921    1.397   .     A
C920   C922    1.401   .     A
C921   C923    1.404   .     A
C921   N945    1.437   .     S
C922   C924    1.409   .     A
C922   N948    1.433   .     S
C923   C929    1.402   .     A
C923   C925    1.416   .     A
C924   C926    1.409   .     A
C924   C930    1.399   .     A
C925   C927    1.429   .     A
C925   C844    1.410   1_655 S
C926   C928    1.422   .     A
C927   C932    1.438   .     A
C928   C931    1.423   .     A
C929   H933    1.077   .     S
C929   C849    1.401   1_655 S
C930   H934    1.077   .     S
C931   C951    1.529   .     S
C932   C958    1.534   .     S
C932   C848    1.405   1_655 S
C936   C607    1.375   1_565 S
C936   C644    1.532   1_565 S
N938   N1429   1.305   .     S
N938   N1474   1.384   .     S
N939   O940    1.301   .     A
N939   O941    1.301   .     A
N942   O944    1.299   .     A
N942   O943    1.298   .     A
N945   O946    1.300   .     A
N945   O947    1.301   .     A
N948   O950    1.300   .     A
N948   O949    1.297   .     A
C951   H956    1.111   .     S
C951   H957    1.096   .     S
C952   H955    1.111   .     S
C952   C623    1.531   1_565 S
H953   C870    1.108   1_655 S
H954   C870    1.101   1_655 S
C958   H964    1.104   .     S
C958   H963    1.109   .     S
C958   C631    1.527   1_565 S
C959   H962    1.111   .     S
C959   H878    1.108   1_655 S
C959   H879    1.099   1_655 S
C965   H970    1.111   .     S
C965   H971    1.106   .     S
C965   C607    1.548   1_565 S
C965   C638    1.534   1_565 S
C966   H968    1.100   .     S
C966   H967    1.100   .     S
H969   C638    1.111   1_565 S
C972   C973    1.519   .     S
C972   H978    1.107   .     S
C973   H974    1.105   .     S
C973   H1468   1.109   .     S
H975   C645    1.108   1_565 S
H977   C644    1.099   1_565 S
N979   O981    1.298   .     A
N979   N1429   1.384   .     S
N979   O1472   1.302   .     S
N982   O984    1.300   .     A
N982   O983    1.301   .     A
O985   C989    1.300   .     A
O985   Cu997   1.987   .     S
O986   C990    1.292   .     A
O986   Cu998   1.987   .     S
O987   Cu998   1.984   .     S
O987   C989    1.301   .     A
O988   Cu997   1.984   .     S
O988   C990    1.306   .     A
C989   C1017   1.452   .     S
C990   C1018   1.449   .     S
O991   C995    1.297   .     A
O991   Cu997   1.972   .     S
O992   C996    1.302   .     A
O992   Cu998   1.972   .     S
O993   Cu998   1.959   .     S
O993   C995    1.306   .     A
O994   C996    1.303   .     A
O994   Cu997   1.959   .     S
C995   C1002   1.456   .     S
C996   C1001   1.461   .     S
Cu997  Cu998   2.714   .     S
Cu997  N1020   2.039   .     S
Cu998  N1019   2.039   .     S
C999   C1009   1.424   .     A
C999   N1021   1.425   .     S
C999   C1001   1.402   .     A
C1000  C1010   1.415   .     A
C1000  N1024   1.441   .     S
C1000  C1002   1.402   .     A
C1001  C1003   1.397   .     A
C1002  C1004   1.401   .     A
C1003  C1005   1.404   .     A
C1003  N1027   1.437   .     S
C1004  C1006   1.409   .     A
C1004  N1030   1.433   .     S
C1005  C1011   1.402   .     A
C1005  C1007   1.416   .     A
C1006  C1008   1.409   .     A
C1006  C1012   1.399   .     A
C1007  C1009   1.429   .     A
C1007  C1090   1.410   .     S
C1008  C1010   1.422   .     A
C1008  C1089   1.410   1_455 S
C1009  C1014   1.438   .     A
C1010  C1013   1.423   .     A
C1011  H1015   1.077   .     S
C1011  C1095   1.401   .     S
C1012  H1016   1.077   .     S
C1012  C1096   1.405   1_455 S
C1013  C1033   1.529   .     S
C1013  C1093   1.401   1_455 S
C1014  C1040   1.534   .     S
C1014  C1094   1.405   .     S
C1017  C1346   1.375   1_545 S
C1017  C1375   1.548   1_545 S
C1018  C1181   1.375   .     S
C1018  C1218   1.532   .     S
N1020  N35     1.305   1_556 S
N1020  N80     1.384   1_556 S
N1021  O1022   1.301   .     A
N1021  O1023   1.301   .     A
N1024  O1026   1.299   .     A
N1024  O1025   1.298   .     A
N1027  O1028   1.300   .     A
N1027  O1029   1.301   .     A
N1030  O1032   1.300   .     A
N1030  O1031   1.297   .     A
C1033  H1038   1.111   .     S
C1033  H1039   1.096   .     S
C1033  C1362   1.531   1_545 S
C1034  H1037   1.111   .     S
C1034  C1197   1.531   .     S
C1034  H1117   1.108   1_455 S
C1034  H1118   1.101   1_455 S
H1035  C1116   1.108   .     S
H1036  C1116   1.101   .     S
C1040  H1046   1.104   .     S
C1040  H1045   1.109   .     S
C1040  C1205   1.527   .     S
C1041  H1044   1.111   .     S
C1041  C1368   1.527   1_545 S
C1041  H1124   1.108   .     S
C1041  H1125   1.099   .     S
H1042  C1123   1.108   1_455 S
H1043  C1123   1.099   1_455 S
C1047  H1052   1.111   .     S
C1047  H1053   1.106   .     S
C1047  C1181   1.548   .     S
C1047  C1212   1.534   .     S
C1048  H1050   1.100   .     S
C1048  H1049   1.100   .     S
C1048  C1375   1.534   1_545 S
C1048  H1379   1.111   1_545 S
H1051  C1212   1.111   .     S
C1054  C1055   1.519   .     S
C1054  H1060   1.107   .     S
C1054  C1346   1.532   1_545 S
C1054  H1387   1.099   1_545 S
C1055  H1056   1.105   .     S
C1055  H1385   1.108   1_545 S
C1055  H74     1.109   1_556 S
H1057  C1219   1.108   .     S
H1059  C1218   1.099   .     S
N1061  O1063   1.298   .     A
N1061  N35     1.384   1_556 S
N1061  O78     1.302   1_556 S
N1064  O1066   1.300   .     A
N1064  O1065   1.301   .     A
O1067  C1071   1.300   .     A
O1067  Cu1079  1.987   .     S
O1068  C1072   1.292   .     A
O1068  Cu1080  1.987   .     S
O1069  Cu1080  1.984   .     S
O1069  C1071   1.301   .     A
O1070  Cu1079  1.984   .     S
O1070  C1072   1.306   .     A
C1071  C1099   1.452   .     S
C1072  C1100   1.449   .     S
O1073  C1077   1.297   .     A
O1073  Cu1079  1.972   .     S
O1074  C1078   1.302   .     A
O1074  Cu1080  1.972   .     S
O1075  Cu1080  1.959   .     S
O1075  C1077   1.306   .     A
O1076  C1078   1.303   .     A
O1076  Cu1079  1.959   .     S
C1077  C1084   1.456   .     S
C1078  C1083   1.461   .     S
Cu1079 Cu1080  2.714   .     S
Cu1079 N1102   2.039   .     S
Cu1080 N1101   2.039   .     S
C1081  C1091   1.424   .     A
C1081  N1103   1.425   .     S
C1081  C1083   1.402   .     A
C1082  C1092   1.415   .     A
C1082  N1106   1.441   .     S
C1082  C1084   1.402   .     A
C1083  C1085   1.397   .     A
C1084  C1086   1.401   .     A
C1085  C1087   1.404   .     A
C1085  N1109   1.437   .     S
C1086  C1088   1.409   .     A
C1086  N1112   1.433   .     S
C1087  C1093   1.402   .     A
C1087  C1089   1.416   .     A
C1088  C1090   1.409   .     A
C1088  C1094   1.399   .     A
C1089  C1091   1.429   .     A
C1089  C1008   1.410   1_655 S
C1090  C1092   1.422   .     A
C1091  C1096   1.438   .     A
C1092  C1095   1.423   .     A
C1093  H1097   1.077   .     S
C1093  C1013   1.401   1_655 S
C1094  H1098   1.077   .     S
C1095  C1115   1.529   .     S
C1096  C1122   1.534   .     S
C1096  C1012   1.405   1_655 S
C1099  C1428   1.375   1_545 S
C1099  C1457   1.548   1_545 S
C1100  C1263   1.375   .     S
C1100  C1300   1.532   .     S
N1102  N117    1.305   1_556 S
N1102  N162    1.384   1_556 S
N1103  O1104   1.301   .     A
N1103  O1105   1.301   .     A
N1106  O1108   1.299   .     A
N1106  O1107   1.298   .     A
N1109  O1110   1.300   .     A
N1109  O1111   1.301   .     A
N1112  O1114   1.300   .     A
N1112  O1113   1.297   .     A
C1115  H1120   1.111   .     S
C1115  H1121   1.096   .     S
C1115  C1444   1.531   1_545 S
C1116  H1119   1.111   .     S
C1116  C1279   1.531   .     S
H1117  C1034   1.108   1_655 S
H1118  C1034   1.101   1_655 S
C1122  H1128   1.104   .     S
C1122  H1127   1.109   .     S
C1122  C1287   1.527   .     S
C1123  H1126   1.111   .     S
C1123  C1450   1.527   1_545 S
C1123  H1042   1.108   1_655 S
C1123  H1043   1.099   1_655 S
C1129  H1134   1.111   .     S
C1129  H1135   1.106   .     S
C1129  C1263   1.548   .     S
C1129  C1294   1.534   .     S
C1130  H1132   1.100   .     S
C1130  H1131   1.100   .     S
C1130  C1457   1.534   1_545 S
C1130  H1461   1.111   1_545 S
H1133  C1294   1.111   .     S
C1136  C1137   1.519   .     S
C1136  H1142   1.107   .     S
C1136  C1428   1.532   1_545 S
C1136  H1469   1.099   1_545 S
C1137  H1138   1.105   .     S
C1137  H1467   1.108   1_545 S
C1137  H156    1.109   1_556 S
H1139  C1301   1.108   .     S
H1141  C1300   1.099   .     S
N1143  O1145   1.298   .     A
N1143  N117    1.384   1_556 S
N1143  O160    1.302   1_556 S
N1146  O1148   1.300   .     A
N1146  O1147   1.301   .     A
O1149  C1153   1.300   .     A
O1149  Cu1161  1.987   .     S
O1150  C1154   1.292   .     A
O1150  Cu1162  1.987   .     S
O1151  Cu1162  1.984   .     S
O1151  C1153   1.301   .     A
O1152  Cu1161  1.984   .     S
O1152  C1154   1.306   .     A
C1153  C1181   1.452   .     S
C1154  C1182   1.449   .     S
O1155  C1159   1.297   .     A
O1155  Cu1161  1.972   .     S
O1156  C1160   1.302   .     A
O1156  Cu1162  1.972   .     S
O1157  Cu1162  1.959   .     S
O1157  C1159   1.306   .     A
O1158  C1160   1.303   .     A
O1158  Cu1161  1.959   .     S
C1159  C1166   1.456   .     S
C1160  C1165   1.461   .     S
Cu1161 Cu1162  2.714   .     S
Cu1161 N1184   2.039   .     S
Cu1162 N1183   2.039   .     S
C1163  C1173   1.424   .     A
C1163  N1185   1.425   .     S
C1163  C1165   1.402   .     A
C1164  C1174   1.415   .     A
C1164  N1188   1.441   .     S
C1164  C1166   1.402   .     A
C1165  C1167   1.397   .     A
C1166  C1168   1.401   .     A
C1167  C1169   1.404   .     A
C1167  N1191   1.437   .     S
C1168  C1170   1.409   .     A
C1168  N1194   1.433   .     S
C1169  C1175   1.402   .     A
C1169  C1171   1.416   .     A
C1170  C1172   1.409   .     A
C1170  C1176   1.399   .     A
C1171  C1173   1.429   .     A
C1171  C1254   1.410   .     S
C1172  C1174   1.422   .     A
C1172  C1253   1.410   1_455 S
C1173  C1178   1.438   .     A
C1174  C1177   1.423   .     A
C1175  H1179   1.077   .     S
C1175  C1259   1.401   .     S
C1176  H1180   1.077   .     S
C1176  C1260   1.405   1_455 S
C1177  C1197   1.529   .     S
C1177  C1257   1.401   1_455 S
C1178  C1204   1.534   .     S
C1178  C1258   1.405   .     S
C1182  C1345   1.375   .     S
C1182  C1382   1.532   .     S
N1184  N199    1.305   1_556 S
N1184  N244    1.384   1_556 S
N1185  O1186   1.301   .     A
N1185  O1187   1.301   .     A
N1188  O1190   1.299   .     A
N1188  O1189   1.298   .     A
N1191  O1192   1.300   .     A
N1191  O1193   1.301   .     A
N1194  O1196   1.300   .     A
N1194  O1195   1.297   .     A
C1197  H1202   1.111   .     S
C1197  H1203   1.096   .     S
C1198  H1201   1.111   .     S
C1198  C1361   1.531   .     S
C1198  H1281   1.108   1_455 S
C1198  H1282   1.101   1_455 S
H1199  C1280   1.108   .     S
H1200  C1280   1.101   .     S
C1204  H1210   1.104   .     S
C1204  H1209   1.109   .     S
C1204  C1369   1.527   .     S
C1205  H1208   1.111   .     S
C1205  H1288   1.108   .     S
C1205  H1289   1.099   .     S
H1206  C1287   1.108   1_455 S
H1207  C1287   1.099   1_455 S
C1211  H1216   1.111   .     S
C1211  H1217   1.106   .     S
C1211  C1345   1.548   .     S
C1211  C1376   1.534   .     S
C1212  H1214   1.100   .     S
C1212  H1213   1.100   .     S
H1215  C1376   1.111   .     S
C1218  C1219   1.519   .     S
C1218  H1224   1.107   .     S
C1219  H1220   1.105   .     S
C1219  H238    1.109   1_556 S
H1221  C1383   1.108   .     S
H1223  C1382   1.099   .     S
N1225  O1227   1.298   .     A
N1225  N199    1.384   1_556 S
N1225  O242    1.302   1_556 S
N1228  O1230   1.300   .     A
N1228  O1229   1.301   .     A
O1231  C1235   1.300   .     A
O1231  Cu1243  1.987   .     S
O1232  C1236   1.292   .     A
O1232  Cu1244  1.987   .     S
O1233  Cu1244  1.984   .     S
O1233  C1235   1.301   .     A
O1234  Cu1243  1.984   .     S
O1234  C1236   1.306   .     A
C1235  C1263   1.452   .     S
C1236  C1264   1.449   .     S
O1237  C1241   1.297   .     A
O1237  Cu1243  1.972   .     S
O1238  C1242   1.302   .     A
O1238  Cu1244  1.972   .     S
O1239  Cu1244  1.959   .     S
O1239  C1241   1.306   .     A
O1240  C1242   1.303   .     A
O1240  Cu1243  1.959   .     S
C1241  C1248   1.456   .     S
C1242  C1247   1.461   .     S
Cu1243 Cu1244  2.714   .     S
Cu1243 N1266   2.039   .     S
Cu1244 N1265   2.039   .     S
C1245  C1255   1.424   .     A
C1245  N1267   1.425   .     S
C1245  C1247   1.402   .     A
C1246  C1256   1.415   .     A
C1246  N1270   1.441   .     S
C1246  C1248   1.402   .     A
C1247  C1249   1.397   .     A
C1248  C1250   1.401   .     A
C1249  C1251   1.404   .     A
C1249  N1273   1.437   .     S
C1250  C1252   1.409   .     A
C1250  N1276   1.433   .     S
C1251  C1257   1.402   .     A
C1251  C1253   1.416   .     A
C1252  C1254   1.409   .     A
C1252  C1258   1.399   .     A
C1253  C1255   1.429   .     A
C1253  C1172   1.410   1_655 S
C1254  C1256   1.422   .     A
C1255  C1260   1.438   .     A
C1256  C1259   1.423   .     A
C1257  H1261   1.077   .     S
C1257  C1177   1.401   1_655 S
C1258  H1262   1.077   .     S
C1259  C1279   1.529   .     S
C1260  C1286   1.534   .     S
C1260  C1176   1.405   1_655 S
C1264  C1427   1.375   .     S
C1264  C1464   1.532   .     S
N1266  N281    1.305   1_556 S
N1266  N326    1.384   1_556 S
N1267  O1268   1.301   .     A
N1267  O1269   1.301   .     A
N1270  O1272   1.299   .     A
N1270  O1271   1.298   .     A
N1273  O1274   1.300   .     A
N1273  O1275   1.301   .     A
N1276  O1278   1.300   .     A
N1276  O1277   1.297   .     A
C1279  H1284   1.111   .     S
C1279  H1285   1.096   .     S
C1280  H1283   1.111   .     S
C1280  C1443   1.531   .     S
H1281  C1198   1.108   1_655 S
H1282  C1198   1.101   1_655 S
C1286  H1292   1.104   .     S
C1286  H1291   1.109   .     S
C1286  C1451   1.527   .     S
C1287  H1290   1.111   .     S
C1287  H1206   1.108   1_655 S
C1287  H1207   1.099   1_655 S
C1293  H1298   1.111   .     S
C1293  H1299   1.106   .     S
C1293  C1427   1.548   .     S
C1293  C1458   1.534   .     S
C1294  H1296   1.100   .     S
C1294  H1295   1.100   .     S
H1297  C1458   1.111   .     S
C1300  C1301   1.519   .     S
C1300  H1306   1.107   .     S
C1301  H1302   1.105   .     S
C1301  H320    1.109   1_556 S
H1303  C1465   1.108   .     S
H1305  C1464   1.099   .     S
N1307  O1309   1.298   .     A
N1307  N281    1.384   1_556 S
N1307  O324    1.302   1_556 S
N1310  O1312   1.300   .     A
N1310  O1311   1.301   .     A
O1313  C1317   1.300   .     A
O1313  Cu1325  1.987   .     S
O1314  C1318   1.292   .     A
O1314  Cu1326  1.987   .     S
O1315  Cu1326  1.984   .     S
O1315  C1317   1.301   .     A
O1316  Cu1325  1.984   .     S
O1316  C1318   1.306   .     A
C1317  C1345   1.452   .     S
C1318  C1346   1.449   .     S
O1319  C1323   1.297   .     A
O1319  Cu1325  1.972   .     S
O1320  C1324   1.302   .     A
O1320  Cu1326  1.972   .     S
O1321  Cu1326  1.959   .     S
O1321  C1323   1.306   .     A
O1322  C1324   1.303   .     A
O1322  Cu1325  1.959   .     S
C1323  C1330   1.456   .     S
C1324  C1329   1.461   .     S
Cu1325 Cu1326  2.714   .     S
Cu1325 N1348   2.039   .     S
Cu1326 N1347   2.039   .     S
C1327  C1337   1.424   .     A
C1327  N1349   1.425   .     S
C1327  C1329   1.402   .     A
C1328  C1338   1.415   .     A
C1328  N1352   1.441   .     S
C1328  C1330   1.402   .     A
C1329  C1331   1.397   .     A
C1330  C1332   1.401   .     A
C1331  C1333   1.404   .     A
C1331  N1355   1.437   .     S
C1332  C1334   1.409   .     A
C1332  N1358   1.433   .     S
C1333  C1339   1.402   .     A
C1333  C1335   1.416   .     A
C1334  C1336   1.409   .     A
C1334  C1340   1.399   .     A
C1335  C1337   1.429   .     A
C1335  C1418   1.410   .     S
C1336  C1338   1.422   .     A
C1336  C1417   1.410   1_455 S
C1337  C1342   1.438   .     A
C1338  C1341   1.423   .     A
C1339  H1343   1.077   .     S
C1339  C1423   1.401   .     S
C1340  H1344   1.077   .     S
C1340  C1424   1.405   1_455 S
C1341  C1361   1.529   .     S
C1341  C1421   1.401   1_455 S
C1342  C1368   1.534   .     S
C1342  C1422   1.405   .     S
C1346  C1017   1.375   1_565 S
C1346  C1054   1.532   1_565 S
N1348  N363    1.305   1_556 S
N1348  N408    1.384   1_556 S
N1349  O1350   1.301   .     A
N1349  O1351   1.301   .     A
N1352  O1354   1.299   .     A
N1352  O1353   1.298   .     A
N1355  O1356   1.300   .     A
N1355  O1357   1.301   .     A
N1358  O1360   1.300   .     A
N1358  O1359   1.297   .     A
C1361  H1366   1.111   .     S
C1361  H1367   1.096   .     S
C1362  H1365   1.111   .     S
C1362  C1033   1.531   1_565 S
C1362  H1445   1.108   1_455 S
C1362  H1446   1.101   1_455 S
H1363  C1444   1.108   .     S
H1364  C1444   1.101   .     S
C1368  H1374   1.104   .     S
C1368  H1373   1.109   .     S
C1368  C1041   1.527   1_565 S
C1369  H1372   1.111   .     S
C1369  H1452   1.108   .     S
C1369  H1453   1.099   .     S
H1370  C1451   1.108   1_455 S
H1371  C1451   1.099   1_455 S
C1375  H1380   1.111   .     S
C1375  H1381   1.106   .     S
C1375  C1017   1.548   1_565 S
C1375  C1048   1.534   1_565 S
C1376  H1378   1.100   .     S
C1376  H1377   1.100   .     S
H1379  C1048   1.111   1_565 S
C1382  C1383   1.519   .     S
C1382  H1388   1.107   .     S
C1383  H1384   1.105   .     S
C1383  H402    1.109   1_556 S
H1385  C1055   1.108   1_565 S
H1387  C1054   1.099   1_565 S
N1389  O1391   1.298   .     A
N1389  N363    1.384   1_556 S
N1389  O406    1.302   1_556 S
N1392  O1394   1.300   .     A
N1392  O1393   1.301   .     A
O1395  C1399   1.300   .     A
O1395  Cu1407  1.987   .     S
O1396  C1400   1.292   .     A
O1396  Cu1408  1.987   .     S
O1397  Cu1408  1.984   .     S
O1397  C1399   1.301   .     A
O1398  Cu1407  1.984   .     S
O1398  C1400   1.306   .     A
C1399  C1427   1.452   .     S
C1400  C1428   1.449   .     S
O1401  C1405   1.297   .     A
O1401  Cu1407  1.972   .     S
O1402  C1406   1.302   .     A
O1402  Cu1408  1.972   .     S
O1403  Cu1408  1.959   .     S
O1403  C1405   1.306   .     A
O1404  C1406   1.303   .     A
O1404  Cu1407  1.959   .     S
C1405  C1412   1.456   .     S
C1406  C1411   1.461   .     S
Cu1407 Cu1408  2.714   .     S
Cu1407 N1430   2.039   .     S
Cu1408 N1429   2.039   .     S
C1409  C1419   1.424   .     A
C1409  N1431   1.425   .     S
C1409  C1411   1.402   .     A
C1410  C1420   1.415   .     A
C1410  N1434   1.441   .     S
C1410  C1412   1.402   .     A
C1411  C1413   1.397   .     A
C1412  C1414   1.401   .     A
C1413  C1415   1.404   .     A
C1413  N1437   1.437   .     S
C1414  C1416   1.409   .     A
C1414  N1440   1.433   .     S
C1415  C1421   1.402   .     A
C1415  C1417   1.416   .     A
C1416  C1418   1.409   .     A
C1416  C1422   1.399   .     A
C1417  C1419   1.429   .     A
C1417  C1336   1.410   1_655 S
C1418  C1420   1.422   .     A
C1419  C1424   1.438   .     A
C1420  C1423   1.423   .     A
C1421  H1425   1.077   .     S
C1421  C1341   1.401   1_655 S
C1422  H1426   1.077   .     S
C1423  C1443   1.529   .     S
C1424  C1450   1.534   .     S
C1424  C1340   1.405   1_655 S
C1428  C1099   1.375   1_565 S
C1428  C1136   1.532   1_565 S
N1430  N445    1.305   1_556 S
N1430  N490    1.384   1_556 S
N1431  O1432   1.301   .     A
N1431  O1433   1.301   .     A
N1434  O1436   1.299   .     A
N1434  O1435   1.298   .     A
N1437  O1438   1.300   .     A
N1437  O1439   1.301   .     A
N1440  O1442   1.300   .     A
N1440  O1441   1.297   .     A
C1443  H1448   1.111   .     S
C1443  H1449   1.096   .     S
C1444  H1447   1.111   .     S
C1444  C1115   1.531   1_565 S
H1445  C1362   1.108   1_655 S
H1446  C1362   1.101   1_655 S
C1450  H1456   1.104   .     S
C1450  H1455   1.109   .     S
C1450  C1123   1.527   1_565 S
C1451  H1454   1.111   .     S
C1451  H1370   1.108   1_655 S
C1451  H1371   1.099   1_655 S
C1457  H1462   1.111   .     S
C1457  H1463   1.106   .     S
C1457  C1099   1.548   1_565 S
C1457  C1130   1.534   1_565 S
C1458  H1460   1.100   .     S
C1458  H1459   1.100   .     S
H1461  C1130   1.111   1_565 S
C1464  C1465   1.519   .     S
C1464  H1470   1.107   .     S
C1465  H1466   1.105   .     S
C1465  H484    1.109   1_556 S
H1467  C1137   1.108   1_565 S
H1469  C1136   1.099   1_565 S
N1471  O1473   1.298   .     A
N1471  N445    1.384   1_556 S
N1471  O488    1.302   1_556 S
N1474  O1476   1.300   .     A
N1474  O1475   1.301   .     A
