data_str_m2_o10_o18_pcu_sym.77
_audit_creation_date              2020-01-03
_audit_creation_method            'Materials Studio'
_symmetry_space_group_name_H-M    'P1'
_symmetry_Int_Tables_number       1
_symmetry_cell_setting            triclinic
loop_
_symmetry_equiv_pos_as_xyz
  x,y,z
_cell_length_a                    22.2075
_cell_length_b                    26.3536
_cell_length_c                    31.5858
_cell_angle_alpha                 95.5021
_cell_angle_beta                  75.3171
_cell_angle_gamma                 102.8806
loop_
_atom_site_label
_atom_site_type_symbol
_atom_site_fract_x
_atom_site_fract_y
_atom_site_fract_z
_atom_site_U_iso_or_equiv
_atom_site_adp_type
_atom_site_occupancy
C1     C     0.18109   0.26657   0.25178   0.00000  Uiso   1.00
C2     C     0.20551   0.17138   0.16678   0.00000  Uiso   1.00
C3     C     0.10336   0.16222   0.38154   0.00000  Uiso   1.00
C4     C     0.22945   0.18308   0.11999   0.00000  Uiso   1.00
C5     C     0.01881   0.13913   0.44707   0.00000  Uiso   1.00
C6     C     0.30236   0.23747   0.06280   0.00000  Uiso   1.00
C7     C     0.03793   0.14651   0.40182   0.00000  Uiso   1.00
C8     C     0.28972   0.21441   0.10343   0.00000  Uiso   1.00
C9     C     0.14744   0.17663   0.40772   0.00000  Uiso   1.00
C10    C     0.18616   0.16950   0.09342   0.00000  Uiso   1.00
C11    C     0.12860   0.17421   0.45353   0.00000  Uiso   1.00
C12    C     0.15234   0.06677   0.24809   0.00000  Uiso   1.00
C13    C     0.19927   0.18908   0.05148   0.00000  Uiso   1.00
C14    C     0.06400   0.15279   0.47277   0.00000  Uiso   1.00
C15    C     0.25932   0.22172   0.03548   0.00000  Uiso   1.00
C16    C     0.17255   0.19100   0.48070   0.00000  Uiso   1.00
C17    C     0.15373   0.17770   0.02537   0.00000  Uiso   1.00
C18    C     0.26731   0.07028   0.46246   0.00000  Uiso   1.00
C19    C     0.19490   0.05691   0.47877   0.00000  Uiso   1.00
C20    C     0.16887   0.33167   0.47668   0.00000  Uiso   1.00
C21    C     0.01797   0.32191   0.07615   0.00000  Uiso   1.00
C22    C     0.30883   0.01941   0.06249   0.00000  Uiso   1.00
C23    C     0.08928   0.15547   0.04305   0.00000  Uiso   1.00
C24    C     0.28161   0.05523   0.09997   0.00000  Uiso   1.00
C25    C     0.23362   0.22220   0.46525   0.00000  Uiso   1.00
C26    C     0.04515   0.14547   0.01764   0.00000  Uiso   1.00
C27    C     0.27517   0.23864   0.49261   0.00000  Uiso   1.00
C28    C     0.18499   0.32162   0.25833   0.00000  Uiso   1.00
C29    C     0.14869   0.01177   0.24137   0.00000  Uiso   1.00
C30    C     0.12786   0.16373   0.33340   0.00000  Uiso   1.00
Cl31   Cl    0.01739   0.22553   0.13220   0.00000  Uiso   1.00
Cl32   Cl    0.31101   0.13670   0.37256   0.00000  Uiso   1.00
Cl33   Cl    0.23229   0.01970   0.29485   0.00000  Uiso   1.00
Cl34   Cl    0.10187   0.31378   0.20459   0.00000  Uiso   1.00
Cu35   Cu    0.10737   0.16108   0.24517   0.00000  Uiso   1.00
Cu36   Cu    0.22596   0.17225   0.25484   0.00000  Uiso   1.00
H37    H     0.32912   0.13095   0.03336   0.00000  Uiso   1.00
H38    H     0.28026   0.05571   0.42778   0.00000  Uiso   1.00
H39    H     0.18100   0.07186   0.01321   0.00000  Uiso   1.00
H40    H     0.17331   0.07607   0.45823   0.00000  Uiso   1.00
H41    H     0.18536   0.31496   0.44318   0.00000  Uiso   1.00
H42    H     0.11612   0.32397   0.48504   0.00000  Uiso   1.00
H43    H     0.18447   0.31246   0.00061   0.00000  Uiso   1.00
H44    H     0.06636   0.01348   0.07228   0.00000  Uiso   1.00
H45    H     0.00085   0.31458   0.11169   0.00000  Uiso   1.00
H46    H     0.00459   0.04252   0.03422   0.00000  Uiso   1.00
H47    H     0.26816   0.32644   0.05219   0.00000  Uiso   1.00
H48    H     0.32077   0.26368   0.47953   0.00000  Uiso   1.00
H49    H     0.25016   0.03181   0.12765   0.00000  Uiso   1.00
H50    H     0.32034   0.08241   0.11182   0.00000  Uiso   1.00
H51    H     0.25275   0.07797   0.08852   0.00000  Uiso   1.00
H52    H     0.14242   0.14252   0.10624   0.00000  Uiso   1.00
H53    H     0.19699   0.18852   0.39161   0.00000  Uiso   1.00
H54    H     0.07061   0.14795   0.07722   0.00000  Uiso   1.00
H55    H     0.24933   0.23684   0.43267   0.00000  Uiso   1.00
H56    H     0.00147   0.20541   0.28452   0.00000  Uiso   1.00
H57    H     0.33190   0.12799   0.21542   0.00000  Uiso   1.00
H58    H     0.28881   0.05013   0.48220   0.00000  Uiso   1.00
N59    N     0.31506   0.18068   0.26212   0.00000  Uiso   1.00
N60    N     0.01827   0.15265   0.23788   0.00000  Uiso   1.00
O61    O     0.12815   0.23809   0.24686   0.00000  Uiso   1.00
O62    O     0.02332   0.27568   0.04950   0.00000  Uiso   1.00
O63    O     0.20518   0.09524   0.25314   0.00000  Uiso   1.00
O64    O     0.22829   0.24753   0.25503   0.00000  Uiso   1.00
O65    O     0.10504   0.08580   0.24498   0.00000  Uiso   1.00
O66    O     0.08851   0.15930   0.30855   0.00000  Uiso   1.00
O67    O     0.24482   0.17403   0.19146   0.00000  Uiso   1.00
O68    O     0.18866   0.16874   0.31671   0.00000  Uiso   1.00
O69    O     0.14468   0.16460   0.18329   0.00000  Uiso   1.00
O70    O     0.28800   0.12479   0.46706   0.00000  Uiso   1.00
C71    C     0.51443   0.26657   0.25178   0.00000  Uiso   1.00
C72    C     0.53885   0.17138   0.16678   0.00000  Uiso   1.00
C73    C     0.43670   0.16222   0.38154   0.00000  Uiso   1.00
C74    C     0.56278   0.18308   0.11999   0.00000  Uiso   1.00
C75    C     0.35215   0.13913   0.44707   0.00000  Uiso   1.00
C76    C     0.63569   0.23747   0.06280   0.00000  Uiso   1.00
C77    C     0.37127   0.14651   0.40182   0.00000  Uiso   1.00
C78    C     0.62306   0.21441   0.10343   0.00000  Uiso   1.00
C79    C     0.48077   0.17663   0.40772   0.00000  Uiso   1.00
C80    C     0.51950   0.16950   0.09342   0.00000  Uiso   1.00
C81    C     0.46193   0.17421   0.45353   0.00000  Uiso   1.00
C82    C     0.48567   0.06677   0.24809   0.00000  Uiso   1.00
C83    C     0.53260   0.18908   0.05148   0.00000  Uiso   1.00
C84    C     0.39734   0.15279   0.47277   0.00000  Uiso   1.00
C85    C     0.59265   0.22172   0.03548   0.00000  Uiso   1.00
C86    C     0.50588   0.19100   0.48070   0.00000  Uiso   1.00
C87    C     0.48707   0.17770   0.02537   0.00000  Uiso   1.00
C88    C     0.60064   0.07028   0.46246   0.00000  Uiso   1.00
C89    C     0.52824   0.05691   0.47877   0.00000  Uiso   1.00
C90    C     0.50220   0.33167   0.47668   0.00000  Uiso   1.00
C91    C     0.35130   0.32191   0.07615   0.00000  Uiso   1.00
C92    C     0.64216   0.01941   0.06249   0.00000  Uiso   1.00
C93    C     0.42261   0.15547   0.04305   0.00000  Uiso   1.00
C94    C     0.61494   0.05523   0.09997   0.00000  Uiso   1.00
C95    C     0.56695   0.22220   0.46525   0.00000  Uiso   1.00
C96    C     0.37848   0.14547   0.01764   0.00000  Uiso   1.00
C97    C     0.60850   0.23864   0.49261   0.00000  Uiso   1.00
C98    C     0.51833   0.32162   0.25833   0.00000  Uiso   1.00
C99    C     0.48202   0.01177   0.24137   0.00000  Uiso   1.00
C100   C     0.46119   0.16373   0.33340   0.00000  Uiso   1.00
Cl101  Cl    0.35072   0.22553   0.13220   0.00000  Uiso   1.00
Cl102  Cl    0.64434   0.13670   0.37256   0.00000  Uiso   1.00
Cl103  Cl    0.56562   0.01970   0.29485   0.00000  Uiso   1.00
Cl104  Cl    0.43520   0.31378   0.20459   0.00000  Uiso   1.00
Cu105  Cu    0.44071   0.16108   0.24517   0.00000  Uiso   1.00
Cu106  Cu    0.55929   0.17225   0.25484   0.00000  Uiso   1.00
H107   H     0.66246   0.13095   0.03336   0.00000  Uiso   1.00
H108   H     0.61359   0.05571   0.42778   0.00000  Uiso   1.00
H109   H     0.51433   0.07186   0.01321   0.00000  Uiso   1.00
H110   H     0.50664   0.07607   0.45823   0.00000  Uiso   1.00
H111   H     0.51869   0.31496   0.44318   0.00000  Uiso   1.00
H112   H     0.44945   0.32397   0.48504   0.00000  Uiso   1.00
H113   H     0.51781   0.31246   0.00061   0.00000  Uiso   1.00
H114   H     0.39969   0.01348   0.07228   0.00000  Uiso   1.00
H115   H     0.33418   0.31458   0.11169   0.00000  Uiso   1.00
H116   H     0.33793   0.04252   0.03422   0.00000  Uiso   1.00
H117   H     0.60150   0.32644   0.05219   0.00000  Uiso   1.00
H118   H     0.65410   0.26368   0.47953   0.00000  Uiso   1.00
H119   H     0.58349   0.03181   0.12765   0.00000  Uiso   1.00
H120   H     0.65368   0.08241   0.11182   0.00000  Uiso   1.00
H121   H     0.58609   0.07797   0.08852   0.00000  Uiso   1.00
H122   H     0.47575   0.14252   0.10624   0.00000  Uiso   1.00
H123   H     0.53032   0.18852   0.39161   0.00000  Uiso   1.00
H124   H     0.40394   0.14795   0.07722   0.00000  Uiso   1.00
H125   H     0.58266   0.23684   0.43267   0.00000  Uiso   1.00
H126   H     0.33481   0.20541   0.28452   0.00000  Uiso   1.00
H127   H     0.66523   0.12799   0.21542   0.00000  Uiso   1.00
H128   H     0.62214   0.05013   0.48220   0.00000  Uiso   1.00
N129   N     0.64839   0.18068   0.26212   0.00000  Uiso   1.00
N130   N     0.35161   0.15265   0.23788   0.00000  Uiso   1.00
O131   O     0.46148   0.23809   0.24686   0.00000  Uiso   1.00
O132   O     0.35665   0.27568   0.04950   0.00000  Uiso   1.00
O133   O     0.53852   0.09524   0.25314   0.00000  Uiso   1.00
O134   O     0.56163   0.24753   0.25503   0.00000  Uiso   1.00
O135   O     0.43837   0.08580   0.24498   0.00000  Uiso   1.00
O136   O     0.42185   0.15930   0.30855   0.00000  Uiso   1.00
O137   O     0.57815   0.17403   0.19146   0.00000  Uiso   1.00
O138   O     0.52199   0.16874   0.31671   0.00000  Uiso   1.00
O139   O     0.47801   0.16460   0.18329   0.00000  Uiso   1.00
O140   O     0.62133   0.12479   0.46706   0.00000  Uiso   1.00
C141   C     0.84776   0.26657   0.25178   0.00000  Uiso   1.00
C142   C     0.87218   0.17138   0.16678   0.00000  Uiso   1.00
C143   C     0.77003   0.16222   0.38154   0.00000  Uiso   1.00
C144   C     0.89611   0.18308   0.11999   0.00000  Uiso   1.00
C145   C     0.68548   0.13913   0.44707   0.00000  Uiso   1.00
C146   C     0.96902   0.23747   0.06280   0.00000  Uiso   1.00
C147   C     0.70460   0.14651   0.40182   0.00000  Uiso   1.00
C148   C     0.95639   0.21441   0.10343   0.00000  Uiso   1.00
C149   C     0.81410   0.17663   0.40772   0.00000  Uiso   1.00
C150   C     0.85283   0.16950   0.09342   0.00000  Uiso   1.00
C151   C     0.79527   0.17421   0.45353   0.00000  Uiso   1.00
C152   C     0.81901   0.06677   0.24809   0.00000  Uiso   1.00
C153   C     0.86593   0.18908   0.05148   0.00000  Uiso   1.00
C154   C     0.73067   0.15279   0.47277   0.00000  Uiso   1.00
C155   C     0.92598   0.22172   0.03548   0.00000  Uiso   1.00
C156   C     0.83921   0.19100   0.48070   0.00000  Uiso   1.00
C157   C     0.82040   0.17770   0.02537   0.00000  Uiso   1.00
C158   C     0.93398   0.07028   0.46246   0.00000  Uiso   1.00
C159   C     0.86157   0.05691   0.47877   0.00000  Uiso   1.00
C160   C     0.83553   0.33167   0.47668   0.00000  Uiso   1.00
C161   C     0.68463   0.32191   0.07615   0.00000  Uiso   1.00
C162   C     0.97549   0.01941   0.06249   0.00000  Uiso   1.00
C163   C     0.75595   0.15547   0.04305   0.00000  Uiso   1.00
C164   C     0.94827   0.05523   0.09997   0.00000  Uiso   1.00
C165   C     0.90028   0.22220   0.46525   0.00000  Uiso   1.00
C166   C     0.71181   0.14547   0.01764   0.00000  Uiso   1.00
C167   C     0.94183   0.23864   0.49261   0.00000  Uiso   1.00
C168   C     0.85166   0.32162   0.25833   0.00000  Uiso   1.00
C169   C     0.81535   0.01177   0.24137   0.00000  Uiso   1.00
C170   C     0.79452   0.16373   0.33340   0.00000  Uiso   1.00
Cl171  Cl    0.68406   0.22553   0.13220   0.00000  Uiso   1.00
Cl172  Cl    0.97768   0.13670   0.37256   0.00000  Uiso   1.00
Cl173  Cl    0.89895   0.01970   0.29485   0.00000  Uiso   1.00
Cl174  Cl    0.76853   0.31378   0.20459   0.00000  Uiso   1.00
Cu175  Cu    0.77404   0.16108   0.24517   0.00000  Uiso   1.00
Cu176  Cu    0.89263   0.17225   0.25484   0.00000  Uiso   1.00
H177   H     0.99579   0.13095   0.03336   0.00000  Uiso   1.00
H178   H     0.94692   0.05571   0.42778   0.00000  Uiso   1.00
H179   H     0.84767   0.07186   0.01321   0.00000  Uiso   1.00
H180   H     0.83998   0.07607   0.45823   0.00000  Uiso   1.00
H181   H     0.85203   0.31496   0.44318   0.00000  Uiso   1.00
H182   H     0.78278   0.32397   0.48504   0.00000  Uiso   1.00
H183   H     0.85114   0.31246   0.00061   0.00000  Uiso   1.00
H184   H     0.73303   0.01348   0.07228   0.00000  Uiso   1.00
H185   H     0.66752   0.31458   0.11169   0.00000  Uiso   1.00
H186   H     0.67126   0.04252   0.03422   0.00000  Uiso   1.00
H187   H     0.93483   0.32644   0.05219   0.00000  Uiso   1.00
H188   H     0.98743   0.26368   0.47953   0.00000  Uiso   1.00
H189   H     0.91683   0.03181   0.12765   0.00000  Uiso   1.00
H190   H     0.98701   0.08241   0.11182   0.00000  Uiso   1.00
H191   H     0.91942   0.07797   0.08852   0.00000  Uiso   1.00
H192   H     0.80908   0.14252   0.10624   0.00000  Uiso   1.00
H193   H     0.86366   0.18852   0.39161   0.00000  Uiso   1.00
H194   H     0.73727   0.14795   0.07722   0.00000  Uiso   1.00
H195   H     0.91599   0.23684   0.43267   0.00000  Uiso   1.00
H196   H     0.66814   0.20541   0.28452   0.00000  Uiso   1.00
H197   H     0.99856   0.12799   0.21542   0.00000  Uiso   1.00
H198   H     0.95547   0.05013   0.48220   0.00000  Uiso   1.00
N199   N     0.98173   0.18068   0.26212   0.00000  Uiso   1.00
N200   N     0.68494   0.15265   0.23788   0.00000  Uiso   1.00
O201   O     0.79482   0.23809   0.24686   0.00000  Uiso   1.00
O202   O     0.68999   0.27568   0.04950   0.00000  Uiso   1.00
O203   O     0.87185   0.09524   0.25314   0.00000  Uiso   1.00
O204   O     0.89496   0.24753   0.25503   0.00000  Uiso   1.00
O205   O     0.77171   0.08580   0.24498   0.00000  Uiso   1.00
O206   O     0.75518   0.15930   0.30855   0.00000  Uiso   1.00
O207   O     0.91149   0.17403   0.19146   0.00000  Uiso   1.00
O208   O     0.85532   0.16874   0.31671   0.00000  Uiso   1.00
O209   O     0.81134   0.16460   0.18329   0.00000  Uiso   1.00
O210   O     0.95466   0.12479   0.46706   0.00000  Uiso   1.00
C211   C     0.18109   0.59991   0.25178   0.00000  Uiso   1.00
C212   C     0.20551   0.50471   0.16678   0.00000  Uiso   1.00
C213   C     0.10336   0.49555   0.38154   0.00000  Uiso   1.00
C214   C     0.22945   0.51642   0.11999   0.00000  Uiso   1.00
C215   C     0.01881   0.47246   0.44707   0.00000  Uiso   1.00
C216   C     0.30236   0.57080   0.06280   0.00000  Uiso   1.00
C217   C     0.03793   0.47984   0.40182   0.00000  Uiso   1.00
C218   C     0.28972   0.54775   0.10343   0.00000  Uiso   1.00
C219   C     0.14744   0.50997   0.40772   0.00000  Uiso   1.00
C220   C     0.18616   0.50283   0.09342   0.00000  Uiso   1.00
C221   C     0.12860   0.50754   0.45353   0.00000  Uiso   1.00
C222   C     0.15234   0.40011   0.24809   0.00000  Uiso   1.00
C223   C     0.19927   0.52241   0.05148   0.00000  Uiso   1.00
C224   C     0.06400   0.48612   0.47277   0.00000  Uiso   1.00
C225   C     0.25932   0.55505   0.03548   0.00000  Uiso   1.00
C226   C     0.17255   0.52433   0.48070   0.00000  Uiso   1.00
C227   C     0.15373   0.51103   0.02537   0.00000  Uiso   1.00
C228   C     0.26731   0.40361   0.46246   0.00000  Uiso   1.00
C229   C     0.19490   0.39024   0.47877   0.00000  Uiso   1.00
C230   C     0.16887   0.66501   0.47668   0.00000  Uiso   1.00
C231   C     0.01797   0.65524   0.07615   0.00000  Uiso   1.00
C232   C     0.30883   0.35275   0.06249   0.00000  Uiso   1.00
C233   C     0.08928   0.48880   0.04305   0.00000  Uiso   1.00
C234   C     0.28161   0.38856   0.09997   0.00000  Uiso   1.00
C235   C     0.23362   0.55553   0.46525   0.00000  Uiso   1.00
C236   C     0.04515   0.47880   0.01764   0.00000  Uiso   1.00
C237   C     0.27517   0.57198   0.49261   0.00000  Uiso   1.00
C238   C     0.18499   0.65495   0.25833   0.00000  Uiso   1.00
C239   C     0.14869   0.34511   0.24137   0.00000  Uiso   1.00
C240   C     0.12786   0.49706   0.33340   0.00000  Uiso   1.00
Cl241  Cl    0.01739   0.55886   0.13220   0.00000  Uiso   1.00
Cl242  Cl    0.31101   0.47003   0.37256   0.00000  Uiso   1.00
Cl243  Cl    0.23229   0.35304   0.29485   0.00000  Uiso   1.00
Cl244  Cl    0.10187   0.64712   0.20459   0.00000  Uiso   1.00
Cu245  Cu    0.10737   0.49441   0.24517   0.00000  Uiso   1.00
Cu246  Cu    0.22596   0.50559   0.25484   0.00000  Uiso   1.00
H247   H     0.32912   0.46428   0.03336   0.00000  Uiso   1.00
H248   H     0.28026   0.38905   0.42778   0.00000  Uiso   1.00
H249   H     0.18100   0.40520   0.01321   0.00000  Uiso   1.00
H250   H     0.17331   0.40941   0.45823   0.00000  Uiso   1.00
H251   H     0.18536   0.64830   0.44318   0.00000  Uiso   1.00
H252   H     0.11612   0.65730   0.48504   0.00000  Uiso   1.00
H253   H     0.18447   0.64579   0.00061   0.00000  Uiso   1.00
H254   H     0.06636   0.34681   0.07228   0.00000  Uiso   1.00
H255   H     0.00085   0.64791   0.11169   0.00000  Uiso   1.00
H256   H     0.00459   0.37586   0.03422   0.00000  Uiso   1.00
H257   H     0.26816   0.65978   0.05219   0.00000  Uiso   1.00
H258   H     0.32077   0.59702   0.47953   0.00000  Uiso   1.00
H259   H     0.25016   0.36514   0.12765   0.00000  Uiso   1.00
H260   H     0.32034   0.41574   0.11182   0.00000  Uiso   1.00
H261   H     0.25275   0.41131   0.08852   0.00000  Uiso   1.00
H262   H     0.14242   0.47585   0.10624   0.00000  Uiso   1.00
H263   H     0.19699   0.52185   0.39161   0.00000  Uiso   1.00
H264   H     0.07061   0.48129   0.07722   0.00000  Uiso   1.00
H265   H     0.24933   0.57017   0.43267   0.00000  Uiso   1.00
H266   H     0.00147   0.53874   0.28452   0.00000  Uiso   1.00
H267   H     0.33190   0.46132   0.21542   0.00000  Uiso   1.00
H268   H     0.28881   0.38347   0.48220   0.00000  Uiso   1.00
N269   N     0.31506   0.51401   0.26212   0.00000  Uiso   1.00
N270   N     0.01827   0.48599   0.23788   0.00000  Uiso   1.00
O271   O     0.12815   0.57142   0.24686   0.00000  Uiso   1.00
O272   O     0.02332   0.60902   0.04950   0.00000  Uiso   1.00
O273   O     0.20518   0.42858   0.25314   0.00000  Uiso   1.00
O274   O     0.22829   0.58086   0.25503   0.00000  Uiso   1.00
O275   O     0.10504   0.41914   0.24498   0.00000  Uiso   1.00
O276   O     0.08851   0.49263   0.30855   0.00000  Uiso   1.00
O277   O     0.24482   0.50737   0.19146   0.00000  Uiso   1.00
O278   O     0.18866   0.50207   0.31671   0.00000  Uiso   1.00
O279   O     0.14468   0.49793   0.18329   0.00000  Uiso   1.00
O280   O     0.28800   0.45812   0.46706   0.00000  Uiso   1.00
C281   C     0.51443   0.59991   0.25178   0.00000  Uiso   1.00
C282   C     0.53885   0.50471   0.16678   0.00000  Uiso   1.00
C283   C     0.43670   0.49555   0.38154   0.00000  Uiso   1.00
C284   C     0.56278   0.51642   0.11999   0.00000  Uiso   1.00
C285   C     0.35215   0.47246   0.44707   0.00000  Uiso   1.00
C286   C     0.63569   0.57080   0.06280   0.00000  Uiso   1.00
C287   C     0.37127   0.47984   0.40182   0.00000  Uiso   1.00
C288   C     0.62306   0.54775   0.10343   0.00000  Uiso   1.00
C289   C     0.48077   0.50997   0.40772   0.00000  Uiso   1.00
C290   C     0.51950   0.50283   0.09342   0.00000  Uiso   1.00
C291   C     0.46193   0.50754   0.45353   0.00000  Uiso   1.00
C292   C     0.48567   0.40011   0.24809   0.00000  Uiso   1.00
C293   C     0.53260   0.52241   0.05148   0.00000  Uiso   1.00
C294   C     0.39734   0.48612   0.47277   0.00000  Uiso   1.00
C295   C     0.59265   0.55505   0.03548   0.00000  Uiso   1.00
C296   C     0.50588   0.52433   0.48070   0.00000  Uiso   1.00
C297   C     0.48707   0.51103   0.02537   0.00000  Uiso   1.00
C298   C     0.60064   0.40361   0.46246   0.00000  Uiso   1.00
C299   C     0.52824   0.39024   0.47877   0.00000  Uiso   1.00
C300   C     0.50220   0.66501   0.47668   0.00000  Uiso   1.00
C301   C     0.35130   0.65524   0.07615   0.00000  Uiso   1.00
C302   C     0.64216   0.35275   0.06249   0.00000  Uiso   1.00
C303   C     0.42261   0.48880   0.04305   0.00000  Uiso   1.00
C304   C     0.61494   0.38856   0.09997   0.00000  Uiso   1.00
C305   C     0.56695   0.55553   0.46525   0.00000  Uiso   1.00
C306   C     0.37848   0.47880   0.01764   0.00000  Uiso   1.00
C307   C     0.60850   0.57198   0.49261   0.00000  Uiso   1.00
C308   C     0.51833   0.65495   0.25833   0.00000  Uiso   1.00
C309   C     0.48202   0.34511   0.24137   0.00000  Uiso   1.00
C310   C     0.46119   0.49706   0.33340   0.00000  Uiso   1.00
Cl311  Cl    0.35072   0.55886   0.13220   0.00000  Uiso   1.00
Cl312  Cl    0.64434   0.47003   0.37256   0.00000  Uiso   1.00
Cl313  Cl    0.56562   0.35304   0.29485   0.00000  Uiso   1.00
Cl314  Cl    0.43520   0.64712   0.20459   0.00000  Uiso   1.00
Cu315  Cu    0.44071   0.49441   0.24517   0.00000  Uiso   1.00
Cu316  Cu    0.55929   0.50559   0.25484   0.00000  Uiso   1.00
H317   H     0.66246   0.46428   0.03336   0.00000  Uiso   1.00
H318   H     0.61359   0.38905   0.42778   0.00000  Uiso   1.00
H319   H     0.51433   0.40520   0.01321   0.00000  Uiso   1.00
H320   H     0.50664   0.40941   0.45823   0.00000  Uiso   1.00
H321   H     0.51869   0.64830   0.44318   0.00000  Uiso   1.00
H322   H     0.44945   0.65730   0.48504   0.00000  Uiso   1.00
H323   H     0.51781   0.64579   0.00061   0.00000  Uiso   1.00
H324   H     0.39969   0.34681   0.07228   0.00000  Uiso   1.00
H325   H     0.33418   0.64791   0.11169   0.00000  Uiso   1.00
H326   H     0.33793   0.37586   0.03422   0.00000  Uiso   1.00
H327   H     0.60150   0.65978   0.05219   0.00000  Uiso   1.00
H328   H     0.65410   0.59702   0.47953   0.00000  Uiso   1.00
H329   H     0.58349   0.36514   0.12765   0.00000  Uiso   1.00
H330   H     0.65368   0.41574   0.11182   0.00000  Uiso   1.00
H331   H     0.58609   0.41131   0.08852   0.00000  Uiso   1.00
H332   H     0.47575   0.47585   0.10624   0.00000  Uiso   1.00
H333   H     0.53032   0.52185   0.39161   0.00000  Uiso   1.00
H334   H     0.40394   0.48129   0.07722   0.00000  Uiso   1.00
H335   H     0.58266   0.57017   0.43267   0.00000  Uiso   1.00
H336   H     0.33481   0.53874   0.28452   0.00000  Uiso   1.00
H337   H     0.66523   0.46132   0.21542   0.00000  Uiso   1.00
H338   H     0.62214   0.38347   0.48220   0.00000  Uiso   1.00
N339   N     0.64839   0.51401   0.26212   0.00000  Uiso   1.00
N340   N     0.35161   0.48599   0.23788   0.00000  Uiso   1.00
O341   O     0.46148   0.57142   0.24686   0.00000  Uiso   1.00
O342   O     0.35665   0.60902   0.04950   0.00000  Uiso   1.00
O343   O     0.53852   0.42858   0.25314   0.00000  Uiso   1.00
O344   O     0.56163   0.58086   0.25503   0.00000  Uiso   1.00
O345   O     0.43837   0.41914   0.24498   0.00000  Uiso   1.00
O346   O     0.42185   0.49263   0.30855   0.00000  Uiso   1.00
O347   O     0.57815   0.50737   0.19146   0.00000  Uiso   1.00
O348   O     0.52199   0.50207   0.31671   0.00000  Uiso   1.00
O349   O     0.47801   0.49793   0.18329   0.00000  Uiso   1.00
O350   O     0.62133   0.45812   0.46706   0.00000  Uiso   1.00
C351   C     0.84776   0.59991   0.25178   0.00000  Uiso   1.00
C352   C     0.87218   0.50471   0.16678   0.00000  Uiso   1.00
C353   C     0.77003   0.49555   0.38154   0.00000  Uiso   1.00
C354   C     0.89611   0.51642   0.11999   0.00000  Uiso   1.00
C355   C     0.68548   0.47246   0.44707   0.00000  Uiso   1.00
C356   C     0.96902   0.57080   0.06280   0.00000  Uiso   1.00
C357   C     0.70460   0.47984   0.40182   0.00000  Uiso   1.00
C358   C     0.95639   0.54775   0.10343   0.00000  Uiso   1.00
C359   C     0.81410   0.50997   0.40772   0.00000  Uiso   1.00
C360   C     0.85283   0.50283   0.09342   0.00000  Uiso   1.00
C361   C     0.79527   0.50754   0.45353   0.00000  Uiso   1.00
C362   C     0.81901   0.40011   0.24809   0.00000  Uiso   1.00
C363   C     0.86593   0.52241   0.05148   0.00000  Uiso   1.00
C364   C     0.73067   0.48612   0.47277   0.00000  Uiso   1.00
C365   C     0.92598   0.55505   0.03548   0.00000  Uiso   1.00
C366   C     0.83921   0.52433   0.48070   0.00000  Uiso   1.00
C367   C     0.82040   0.51103   0.02537   0.00000  Uiso   1.00
C368   C     0.93398   0.40361   0.46246   0.00000  Uiso   1.00
C369   C     0.86157   0.39024   0.47877   0.00000  Uiso   1.00
C370   C     0.83553   0.66501   0.47668   0.00000  Uiso   1.00
C371   C     0.68463   0.65524   0.07615   0.00000  Uiso   1.00
C372   C     0.97549   0.35275   0.06249   0.00000  Uiso   1.00
C373   C     0.75595   0.48880   0.04305   0.00000  Uiso   1.00
C374   C     0.94827   0.38856   0.09997   0.00000  Uiso   1.00
C375   C     0.90028   0.55553   0.46525   0.00000  Uiso   1.00
C376   C     0.71181   0.47880   0.01764   0.00000  Uiso   1.00
C377   C     0.94183   0.57198   0.49261   0.00000  Uiso   1.00
C378   C     0.85166   0.65495   0.25833   0.00000  Uiso   1.00
C379   C     0.81535   0.34511   0.24137   0.00000  Uiso   1.00
C380   C     0.79452   0.49706   0.33340   0.00000  Uiso   1.00
Cl381  Cl    0.68406   0.55886   0.13220   0.00000  Uiso   1.00
Cl382  Cl    0.97768   0.47003   0.37256   0.00000  Uiso   1.00
Cl383  Cl    0.89895   0.35304   0.29485   0.00000  Uiso   1.00
Cl384  Cl    0.76853   0.64712   0.20459   0.00000  Uiso   1.00
Cu385  Cu    0.77404   0.49441   0.24517   0.00000  Uiso   1.00
Cu386  Cu    0.89263   0.50559   0.25484   0.00000  Uiso   1.00
H387   H     0.99579   0.46428   0.03336   0.00000  Uiso   1.00
H388   H     0.94692   0.38905   0.42778   0.00000  Uiso   1.00
H389   H     0.84767   0.40520   0.01321   0.00000  Uiso   1.00
H390   H     0.83998   0.40941   0.45823   0.00000  Uiso   1.00
H391   H     0.85203   0.64830   0.44318   0.00000  Uiso   1.00
H392   H     0.78278   0.65730   0.48504   0.00000  Uiso   1.00
H393   H     0.85114   0.64579   0.00061   0.00000  Uiso   1.00
H394   H     0.73303   0.34681   0.07228   0.00000  Uiso   1.00
H395   H     0.66752   0.64791   0.11169   0.00000  Uiso   1.00
H396   H     0.67126   0.37586   0.03422   0.00000  Uiso   1.00
H397   H     0.93483   0.65978   0.05219   0.00000  Uiso   1.00
H398   H     0.98743   0.59702   0.47953   0.00000  Uiso   1.00
H399   H     0.91683   0.36514   0.12765   0.00000  Uiso   1.00
H400   H     0.98701   0.41574   0.11182   0.00000  Uiso   1.00
H401   H     0.91942   0.41131   0.08852   0.00000  Uiso   1.00
H402   H     0.80908   0.47585   0.10624   0.00000  Uiso   1.00
H403   H     0.86366   0.52185   0.39161   0.00000  Uiso   1.00
H404   H     0.73727   0.48129   0.07722   0.00000  Uiso   1.00
H405   H     0.91599   0.57017   0.43267   0.00000  Uiso   1.00
H406   H     0.66814   0.53874   0.28452   0.00000  Uiso   1.00
H407   H     0.99856   0.46132   0.21542   0.00000  Uiso   1.00
H408   H     0.95547   0.38347   0.48220   0.00000  Uiso   1.00
N409   N     0.98173   0.51401   0.26212   0.00000  Uiso   1.00
N410   N     0.68494   0.48599   0.23788   0.00000  Uiso   1.00
O411   O     0.79482   0.57142   0.24686   0.00000  Uiso   1.00
O412   O     0.68999   0.60902   0.04950   0.00000  Uiso   1.00
O413   O     0.87185   0.42858   0.25314   0.00000  Uiso   1.00
O414   O     0.89496   0.58086   0.25503   0.00000  Uiso   1.00
O415   O     0.77171   0.41914   0.24498   0.00000  Uiso   1.00
O416   O     0.75518   0.49263   0.30855   0.00000  Uiso   1.00
O417   O     0.91149   0.50737   0.19146   0.00000  Uiso   1.00
O418   O     0.85532   0.50207   0.31671   0.00000  Uiso   1.00
O419   O     0.81134   0.49793   0.18329   0.00000  Uiso   1.00
O420   O     0.95466   0.45812   0.46706   0.00000  Uiso   1.00
C421   C     0.18109   0.93324   0.25178   0.00000  Uiso   1.00
C422   C     0.20551   0.83805   0.16678   0.00000  Uiso   1.00
C423   C     0.10336   0.82888   0.38154   0.00000  Uiso   1.00
C424   C     0.22945   0.84975   0.11999   0.00000  Uiso   1.00
C425   C     0.01881   0.80580   0.44707   0.00000  Uiso   1.00
C426   C     0.30236   0.90414   0.06280   0.00000  Uiso   1.00
C427   C     0.03793   0.81317   0.40182   0.00000  Uiso   1.00
C428   C     0.28972   0.88108   0.10343   0.00000  Uiso   1.00
C429   C     0.14744   0.84330   0.40772   0.00000  Uiso   1.00
C430   C     0.18616   0.83616   0.09342   0.00000  Uiso   1.00
C431   C     0.12860   0.84088   0.45353   0.00000  Uiso   1.00
C432   C     0.15234   0.73344   0.24809   0.00000  Uiso   1.00
C433   C     0.19927   0.85574   0.05148   0.00000  Uiso   1.00
C434   C     0.06400   0.81946   0.47277   0.00000  Uiso   1.00
C435   C     0.25932   0.88838   0.03548   0.00000  Uiso   1.00
C436   C     0.17255   0.85767   0.48070   0.00000  Uiso   1.00
C437   C     0.15373   0.84436   0.02537   0.00000  Uiso   1.00
C438   C     0.26731   0.73695   0.46246   0.00000  Uiso   1.00
C439   C     0.19490   0.72357   0.47877   0.00000  Uiso   1.00
C440   C     0.16887   0.99834   0.47668   0.00000  Uiso   1.00
C441   C     0.01797   0.98857   0.07615   0.00000  Uiso   1.00
C442   C     0.30883   0.68608   0.06249   0.00000  Uiso   1.00
C443   C     0.08928   0.82213   0.04305   0.00000  Uiso   1.00
C444   C     0.28161   0.72189   0.09997   0.00000  Uiso   1.00
C445   C     0.23362   0.88887   0.46525   0.00000  Uiso   1.00
C446   C     0.04515   0.81213   0.01764   0.00000  Uiso   1.00
C447   C     0.27517   0.90531   0.49261   0.00000  Uiso   1.00
C448   C     0.18499   0.98829   0.25833   0.00000  Uiso   1.00
C449   C     0.14869   0.67844   0.24137   0.00000  Uiso   1.00
C450   C     0.12786   0.83039   0.33340   0.00000  Uiso   1.00
Cl451  Cl    0.01739   0.89220   0.13220   0.00000  Uiso   1.00
Cl452  Cl    0.31101   0.80336   0.37256   0.00000  Uiso   1.00
Cl453  Cl    0.23229   0.68637   0.29485   0.00000  Uiso   1.00
Cl454  Cl    0.10187   0.98045   0.20459   0.00000  Uiso   1.00
Cu455  Cu    0.10737   0.82775   0.24517   0.00000  Uiso   1.00
Cu456  Cu    0.22596   0.83892   0.25484   0.00000  Uiso   1.00
H457   H     0.32912   0.79762   0.03336   0.00000  Uiso   1.00
H458   H     0.28026   0.72238   0.42778   0.00000  Uiso   1.00
H459   H     0.18100   0.73853   0.01321   0.00000  Uiso   1.00
H460   H     0.17331   0.74274   0.45823   0.00000  Uiso   1.00
H461   H     0.18536   0.98163   0.44318   0.00000  Uiso   1.00
H462   H     0.11612   0.99063   0.48504   0.00000  Uiso   1.00
H463   H     0.18447   0.97913   0.00061   0.00000  Uiso   1.00
H464   H     0.06636   0.68014   0.07228   0.00000  Uiso   1.00
H465   H     0.00085   0.98125   0.11169   0.00000  Uiso   1.00
H466   H     0.00459   0.70919   0.03422   0.00000  Uiso   1.00
H467   H     0.26816   0.99311   0.05219   0.00000  Uiso   1.00
H468   H     0.32077   0.93035   0.47953   0.00000  Uiso   1.00
H469   H     0.25016   0.69847   0.12765   0.00000  Uiso   1.00
H470   H     0.32034   0.74907   0.11182   0.00000  Uiso   1.00
H471   H     0.25275   0.74464   0.08852   0.00000  Uiso   1.00
H472   H     0.14242   0.80918   0.10624   0.00000  Uiso   1.00
H473   H     0.19699   0.85518   0.39161   0.00000  Uiso   1.00
H474   H     0.07061   0.81462   0.07722   0.00000  Uiso   1.00
H475   H     0.24933   0.90350   0.43267   0.00000  Uiso   1.00
H476   H     0.00147   0.87208   0.28452   0.00000  Uiso   1.00
H477   H     0.33190   0.79466   0.21542   0.00000  Uiso   1.00
H478   H     0.28881   0.71680   0.48220   0.00000  Uiso   1.00
N479   N     0.31506   0.84735   0.26212   0.00000  Uiso   1.00
N480   N     0.01827   0.81932   0.23788   0.00000  Uiso   1.00
O481   O     0.12815   0.90476   0.24686   0.00000  Uiso   1.00
O482   O     0.02332   0.94235   0.04950   0.00000  Uiso   1.00
O483   O     0.20518   0.76191   0.25314   0.00000  Uiso   1.00
O484   O     0.22829   0.91420   0.25503   0.00000  Uiso   1.00
O485   O     0.10504   0.75247   0.24498   0.00000  Uiso   1.00
O486   O     0.08851   0.82597   0.30855   0.00000  Uiso   1.00
O487   O     0.24482   0.84070   0.19146   0.00000  Uiso   1.00
O488   O     0.18866   0.83540   0.31671   0.00000  Uiso   1.00
O489   O     0.14468   0.83126   0.18329   0.00000  Uiso   1.00
O490   O     0.28800   0.79145   0.46706   0.00000  Uiso   1.00
C491   C     0.51443   0.93324   0.25178   0.00000  Uiso   1.00
C492   C     0.53885   0.83805   0.16678   0.00000  Uiso   1.00
C493   C     0.43670   0.82888   0.38154   0.00000  Uiso   1.00
C494   C     0.56278   0.84975   0.11999   0.00000  Uiso   1.00
C495   C     0.35215   0.80580   0.44707   0.00000  Uiso   1.00
C496   C     0.63569   0.90414   0.06280   0.00000  Uiso   1.00
C497   C     0.37127   0.81317   0.40182   0.00000  Uiso   1.00
C498   C     0.62306   0.88108   0.10343   0.00000  Uiso   1.00
C499   C     0.48077   0.84330   0.40772   0.00000  Uiso   1.00
C500   C     0.51950   0.83616   0.09342   0.00000  Uiso   1.00
C501   C     0.46193   0.84088   0.45353   0.00000  Uiso   1.00
C502   C     0.48567   0.73344   0.24809   0.00000  Uiso   1.00
C503   C     0.53260   0.85574   0.05148   0.00000  Uiso   1.00
C504   C     0.39734   0.81946   0.47277   0.00000  Uiso   1.00
C505   C     0.59265   0.88838   0.03548   0.00000  Uiso   1.00
C506   C     0.50588   0.85767   0.48070   0.00000  Uiso   1.00
C507   C     0.48707   0.84436   0.02537   0.00000  Uiso   1.00
C508   C     0.60064   0.73695   0.46246   0.00000  Uiso   1.00
C509   C     0.52824   0.72357   0.47877   0.00000  Uiso   1.00
C510   C     0.50220   0.99834   0.47668   0.00000  Uiso   1.00
C511   C     0.35130   0.98857   0.07615   0.00000  Uiso   1.00
C512   C     0.64216   0.68608   0.06249   0.00000  Uiso   1.00
C513   C     0.42261   0.82213   0.04305   0.00000  Uiso   1.00
C514   C     0.61494   0.72189   0.09997   0.00000  Uiso   1.00
C515   C     0.56695   0.88887   0.46525   0.00000  Uiso   1.00
C516   C     0.37848   0.81213   0.01764   0.00000  Uiso   1.00
C517   C     0.60850   0.90531   0.49261   0.00000  Uiso   1.00
C518   C     0.51833   0.98829   0.25833   0.00000  Uiso   1.00
C519   C     0.48202   0.67844   0.24137   0.00000  Uiso   1.00
C520   C     0.46119   0.83039   0.33340   0.00000  Uiso   1.00
Cl521  Cl    0.35072   0.89220   0.13220   0.00000  Uiso   1.00
Cl522  Cl    0.64434   0.80336   0.37256   0.00000  Uiso   1.00
Cl523  Cl    0.56562   0.68637   0.29485   0.00000  Uiso   1.00
Cl524  Cl    0.43520   0.98045   0.20459   0.00000  Uiso   1.00
Cu525  Cu    0.44071   0.82775   0.24517   0.00000  Uiso   1.00
Cu526  Cu    0.55929   0.83892   0.25484   0.00000  Uiso   1.00
H527   H     0.66246   0.79762   0.03336   0.00000  Uiso   1.00
H528   H     0.61359   0.72238   0.42778   0.00000  Uiso   1.00
H529   H     0.51433   0.73853   0.01321   0.00000  Uiso   1.00
H530   H     0.50664   0.74274   0.45823   0.00000  Uiso   1.00
H531   H     0.51869   0.98163   0.44318   0.00000  Uiso   1.00
H532   H     0.44945   0.99063   0.48504   0.00000  Uiso   1.00
H533   H     0.51781   0.97913   0.00061   0.00000  Uiso   1.00
H534   H     0.39969   0.68014   0.07228   0.00000  Uiso   1.00
H535   H     0.33418   0.98125   0.11169   0.00000  Uiso   1.00
H536   H     0.33793   0.70919   0.03422   0.00000  Uiso   1.00
H537   H     0.60150   0.99311   0.05219   0.00000  Uiso   1.00
H538   H     0.65410   0.93035   0.47953   0.00000  Uiso   1.00
H539   H     0.58349   0.69847   0.12765   0.00000  Uiso   1.00
H540   H     0.65368   0.74907   0.11182   0.00000  Uiso   1.00
H541   H     0.58609   0.74464   0.08852   0.00000  Uiso   1.00
H542   H     0.47575   0.80918   0.10624   0.00000  Uiso   1.00
H543   H     0.53032   0.85518   0.39161   0.00000  Uiso   1.00
H544   H     0.40394   0.81462   0.07722   0.00000  Uiso   1.00
H545   H     0.58266   0.90350   0.43267   0.00000  Uiso   1.00
H546   H     0.33481   0.87208   0.28452   0.00000  Uiso   1.00
H547   H     0.66523   0.79466   0.21542   0.00000  Uiso   1.00
H548   H     0.62214   0.71680   0.48220   0.00000  Uiso   1.00
N549   N     0.64839   0.84735   0.26212   0.00000  Uiso   1.00
N550   N     0.35161   0.81932   0.23788   0.00000  Uiso   1.00
O551   O     0.46148   0.90476   0.24686   0.00000  Uiso   1.00
O552   O     0.35665   0.94235   0.04950   0.00000  Uiso   1.00
O553   O     0.53852   0.76191   0.25314   0.00000  Uiso   1.00
O554   O     0.56163   0.91420   0.25503   0.00000  Uiso   1.00
O555   O     0.43837   0.75247   0.24498   0.00000  Uiso   1.00
O556   O     0.42185   0.82597   0.30855   0.00000  Uiso   1.00
O557   O     0.57815   0.84070   0.19146   0.00000  Uiso   1.00
O558   O     0.52199   0.83540   0.31671   0.00000  Uiso   1.00
O559   O     0.47801   0.83126   0.18329   0.00000  Uiso   1.00
O560   O     0.62133   0.79145   0.46706   0.00000  Uiso   1.00
C561   C     0.84776   0.93324   0.25178   0.00000  Uiso   1.00
C562   C     0.87218   0.83805   0.16678   0.00000  Uiso   1.00
C563   C     0.77003   0.82888   0.38154   0.00000  Uiso   1.00
C564   C     0.89611   0.84975   0.11999   0.00000  Uiso   1.00
C565   C     0.68548   0.80580   0.44707   0.00000  Uiso   1.00
C566   C     0.96902   0.90414   0.06280   0.00000  Uiso   1.00
C567   C     0.70460   0.81317   0.40182   0.00000  Uiso   1.00
C568   C     0.95639   0.88108   0.10343   0.00000  Uiso   1.00
C569   C     0.81410   0.84330   0.40772   0.00000  Uiso   1.00
C570   C     0.85283   0.83616   0.09342   0.00000  Uiso   1.00
C571   C     0.79527   0.84088   0.45353   0.00000  Uiso   1.00
C572   C     0.81901   0.73344   0.24809   0.00000  Uiso   1.00
C573   C     0.86593   0.85574   0.05148   0.00000  Uiso   1.00
C574   C     0.73067   0.81946   0.47277   0.00000  Uiso   1.00
C575   C     0.92598   0.88838   0.03548   0.00000  Uiso   1.00
C576   C     0.83921   0.85767   0.48070   0.00000  Uiso   1.00
C577   C     0.82040   0.84436   0.02537   0.00000  Uiso   1.00
C578   C     0.93398   0.73695   0.46246   0.00000  Uiso   1.00
C579   C     0.86157   0.72357   0.47877   0.00000  Uiso   1.00
C580   C     0.83553   0.99834   0.47668   0.00000  Uiso   1.00
C581   C     0.68463   0.98857   0.07615   0.00000  Uiso   1.00
C582   C     0.97549   0.68608   0.06249   0.00000  Uiso   1.00
C583   C     0.75595   0.82213   0.04305   0.00000  Uiso   1.00
C584   C     0.94827   0.72189   0.09997   0.00000  Uiso   1.00
C585   C     0.90028   0.88887   0.46525   0.00000  Uiso   1.00
C586   C     0.71181   0.81213   0.01764   0.00000  Uiso   1.00
C587   C     0.94183   0.90531   0.49261   0.00000  Uiso   1.00
C588   C     0.85166   0.98829   0.25833   0.00000  Uiso   1.00
C589   C     0.81535   0.67844   0.24137   0.00000  Uiso   1.00
C590   C     0.79452   0.83039   0.33340   0.00000  Uiso   1.00
Cl591  Cl    0.68406   0.89220   0.13220   0.00000  Uiso   1.00
Cl592  Cl    0.97768   0.80336   0.37256   0.00000  Uiso   1.00
Cl593  Cl    0.89895   0.68637   0.29485   0.00000  Uiso   1.00
Cl594  Cl    0.76853   0.98045   0.20459   0.00000  Uiso   1.00
Cu595  Cu    0.77404   0.82775   0.24517   0.00000  Uiso   1.00
Cu596  Cu    0.89263   0.83892   0.25484   0.00000  Uiso   1.00
H597   H     0.99579   0.79762   0.03336   0.00000  Uiso   1.00
H598   H     0.94692   0.72238   0.42778   0.00000  Uiso   1.00
H599   H     0.84767   0.73853   0.01321   0.00000  Uiso   1.00
H600   H     0.83998   0.74274   0.45823   0.00000  Uiso   1.00
H601   H     0.85203   0.98163   0.44318   0.00000  Uiso   1.00
H602   H     0.78278   0.99063   0.48504   0.00000  Uiso   1.00
H603   H     0.85114   0.97913   0.00061   0.00000  Uiso   1.00
H604   H     0.73303   0.68014   0.07228   0.00000  Uiso   1.00
H605   H     0.66752   0.98125   0.11169   0.00000  Uiso   1.00
H606   H     0.67126   0.70919   0.03422   0.00000  Uiso   1.00
H607   H     0.93483   0.99311   0.05219   0.00000  Uiso   1.00
H608   H     0.98743   0.93035   0.47953   0.00000  Uiso   1.00
H609   H     0.91683   0.69847   0.12765   0.00000  Uiso   1.00
H610   H     0.98701   0.74907   0.11182   0.00000  Uiso   1.00
H611   H     0.91942   0.74464   0.08852   0.00000  Uiso   1.00
H612   H     0.80908   0.80918   0.10624   0.00000  Uiso   1.00
H613   H     0.86366   0.85518   0.39161   0.00000  Uiso   1.00
H614   H     0.73727   0.81462   0.07722   0.00000  Uiso   1.00
H615   H     0.91599   0.90350   0.43267   0.00000  Uiso   1.00
H616   H     0.66814   0.87208   0.28452   0.00000  Uiso   1.00
H617   H     0.99856   0.79466   0.21542   0.00000  Uiso   1.00
H618   H     0.95547   0.71680   0.48220   0.00000  Uiso   1.00
N619   N     0.98173   0.84735   0.26212   0.00000  Uiso   1.00
N620   N     0.68494   0.81932   0.23788   0.00000  Uiso   1.00
O621   O     0.79482   0.90476   0.24686   0.00000  Uiso   1.00
O622   O     0.68999   0.94235   0.04950   0.00000  Uiso   1.00
O623   O     0.87185   0.76191   0.25314   0.00000  Uiso   1.00
O624   O     0.89496   0.91420   0.25503   0.00000  Uiso   1.00
O625   O     0.77171   0.75247   0.24498   0.00000  Uiso   1.00
O626   O     0.75518   0.82597   0.30855   0.00000  Uiso   1.00
O627   O     0.91149   0.84070   0.19146   0.00000  Uiso   1.00
O628   O     0.85532   0.83540   0.31671   0.00000  Uiso   1.00
O629   O     0.81134   0.83126   0.18329   0.00000  Uiso   1.00
O630   O     0.95466   0.79145   0.46706   0.00000  Uiso   1.00
C631   C     0.18109   0.26657   0.75178   0.00000  Uiso   1.00
C632   C     0.20551   0.17138   0.66678   0.00000  Uiso   1.00
C633   C     0.10336   0.16222   0.88154   0.00000  Uiso   1.00
C634   C     0.22945   0.18308   0.61999   0.00000  Uiso   1.00
C635   C     0.01881   0.13913   0.94707   0.00000  Uiso   1.00
C636   C     0.30236   0.23747   0.56280   0.00000  Uiso   1.00
C637   C     0.03793   0.14651   0.90182   0.00000  Uiso   1.00
C638   C     0.28972   0.21441   0.60343   0.00000  Uiso   1.00
C639   C     0.14744   0.17663   0.90772   0.00000  Uiso   1.00
C640   C     0.18616   0.16950   0.59342   0.00000  Uiso   1.00
C641   C     0.12860   0.17421   0.95353   0.00000  Uiso   1.00
C642   C     0.15234   0.06677   0.74809   0.00000  Uiso   1.00
C643   C     0.19927   0.18908   0.55148   0.00000  Uiso   1.00
C644   C     0.06400   0.15279   0.97277   0.00000  Uiso   1.00
C645   C     0.25932   0.22172   0.53548   0.00000  Uiso   1.00
C646   C     0.17255   0.19100   0.98070   0.00000  Uiso   1.00
C647   C     0.15373   0.17770   0.52537   0.00000  Uiso   1.00
C648   C     0.26731   0.07028   0.96246   0.00000  Uiso   1.00
C649   C     0.19490   0.05691   0.97877   0.00000  Uiso   1.00
C650   C     0.16887   0.33167   0.97668   0.00000  Uiso   1.00
C651   C     0.01797   0.32191   0.57615   0.00000  Uiso   1.00
C652   C     0.30883   0.01941   0.56249   0.00000  Uiso   1.00
C653   C     0.08928   0.15547   0.54305   0.00000  Uiso   1.00
C654   C     0.28161   0.05523   0.59997   0.00000  Uiso   1.00
C655   C     0.23362   0.22220   0.96525   0.00000  Uiso   1.00
C656   C     0.04515   0.14547   0.51764   0.00000  Uiso   1.00
C657   C     0.27517   0.23864   0.99261   0.00000  Uiso   1.00
C658   C     0.18499   0.32162   0.75833   0.00000  Uiso   1.00
C659   C     0.14869   0.01177   0.74137   0.00000  Uiso   1.00
C660   C     0.12786   0.16373   0.83340   0.00000  Uiso   1.00
Cl661  Cl    0.01739   0.22553   0.63220   0.00000  Uiso   1.00
Cl662  Cl    0.31101   0.13670   0.87256   0.00000  Uiso   1.00
Cl663  Cl    0.23229   0.01970   0.79485   0.00000  Uiso   1.00
Cl664  Cl    0.10187   0.31378   0.70459   0.00000  Uiso   1.00
Cu665  Cu    0.10737   0.16108   0.74517   0.00000  Uiso   1.00
Cu666  Cu    0.22596   0.17225   0.75484   0.00000  Uiso   1.00
H667   H     0.32912   0.13095   0.53336   0.00000  Uiso   1.00
H668   H     0.28026   0.05571   0.92778   0.00000  Uiso   1.00
H669   H     0.18100   0.07186   0.51321   0.00000  Uiso   1.00
H670   H     0.17331   0.07607   0.95823   0.00000  Uiso   1.00
H671   H     0.18536   0.31496   0.94318   0.00000  Uiso   1.00
H672   H     0.11612   0.32397   0.98504   0.00000  Uiso   1.00
H673   H     0.18447   0.31246   0.50061   0.00000  Uiso   1.00
H674   H     0.06636   0.01348   0.57228   0.00000  Uiso   1.00
H675   H     0.00085   0.31458   0.61169   0.00000  Uiso   1.00
H676   H     0.00459   0.04252   0.53422   0.00000  Uiso   1.00
H677   H     0.26816   0.32644   0.55219   0.00000  Uiso   1.00
H678   H     0.32077   0.26368   0.97953   0.00000  Uiso   1.00
H679   H     0.25016   0.03181   0.62765   0.00000  Uiso   1.00
H680   H     0.32034   0.08241   0.61182   0.00000  Uiso   1.00
H681   H     0.25275   0.07797   0.58852   0.00000  Uiso   1.00
H682   H     0.14242   0.14252   0.60624   0.00000  Uiso   1.00
H683   H     0.19699   0.18852   0.89161   0.00000  Uiso   1.00
H684   H     0.07061   0.14795   0.57722   0.00000  Uiso   1.00
H685   H     0.24933   0.23684   0.93267   0.00000  Uiso   1.00
H686   H     0.00147   0.20541   0.78452   0.00000  Uiso   1.00
H687   H     0.33190   0.12799   0.71542   0.00000  Uiso   1.00
H688   H     0.28881   0.05013   0.98220   0.00000  Uiso   1.00
N689   N     0.31506   0.18068   0.76212   0.00000  Uiso   1.00
N690   N     0.01827   0.15265   0.73788   0.00000  Uiso   1.00
O691   O     0.12815   0.23809   0.74686   0.00000  Uiso   1.00
O692   O     0.02332   0.27568   0.54950   0.00000  Uiso   1.00
O693   O     0.20518   0.09524   0.75314   0.00000  Uiso   1.00
O694   O     0.22829   0.24753   0.75503   0.00000  Uiso   1.00
O695   O     0.10504   0.08580   0.74498   0.00000  Uiso   1.00
O696   O     0.08851   0.15930   0.80855   0.00000  Uiso   1.00
O697   O     0.24482   0.17403   0.69146   0.00000  Uiso   1.00
O698   O     0.18866   0.16874   0.81671   0.00000  Uiso   1.00
O699   O     0.14468   0.16460   0.68329   0.00000  Uiso   1.00
O700   O     0.28800   0.12479   0.96706   0.00000  Uiso   1.00
C701   C     0.51443   0.26657   0.75178   0.00000  Uiso   1.00
C702   C     0.53885   0.17138   0.66678   0.00000  Uiso   1.00
C703   C     0.43670   0.16222   0.88154   0.00000  Uiso   1.00
C704   C     0.56278   0.18308   0.61999   0.00000  Uiso   1.00
C705   C     0.35215   0.13913   0.94707   0.00000  Uiso   1.00
C706   C     0.63569   0.23747   0.56280   0.00000  Uiso   1.00
C707   C     0.37127   0.14651   0.90182   0.00000  Uiso   1.00
C708   C     0.62306   0.21441   0.60343   0.00000  Uiso   1.00
C709   C     0.48077   0.17663   0.90772   0.00000  Uiso   1.00
C710   C     0.51950   0.16950   0.59342   0.00000  Uiso   1.00
C711   C     0.46193   0.17421   0.95353   0.00000  Uiso   1.00
C712   C     0.48567   0.06677   0.74809   0.00000  Uiso   1.00
C713   C     0.53260   0.18908   0.55148   0.00000  Uiso   1.00
C714   C     0.39734   0.15279   0.97277   0.00000  Uiso   1.00
C715   C     0.59265   0.22172   0.53548   0.00000  Uiso   1.00
C716   C     0.50588   0.19100   0.98070   0.00000  Uiso   1.00
C717   C     0.48707   0.17770   0.52537   0.00000  Uiso   1.00
C718   C     0.60064   0.07028   0.96246   0.00000  Uiso   1.00
C719   C     0.52824   0.05691   0.97877   0.00000  Uiso   1.00
C720   C     0.50220   0.33167   0.97668   0.00000  Uiso   1.00
C721   C     0.35130   0.32191   0.57615   0.00000  Uiso   1.00
C722   C     0.64216   0.01941   0.56249   0.00000  Uiso   1.00
C723   C     0.42261   0.15547   0.54305   0.00000  Uiso   1.00
C724   C     0.61494   0.05523   0.59997   0.00000  Uiso   1.00
C725   C     0.56695   0.22220   0.96525   0.00000  Uiso   1.00
C726   C     0.37848   0.14547   0.51764   0.00000  Uiso   1.00
C727   C     0.60850   0.23864   0.99261   0.00000  Uiso   1.00
C728   C     0.51833   0.32162   0.75833   0.00000  Uiso   1.00
C729   C     0.48202   0.01177   0.74137   0.00000  Uiso   1.00
C730   C     0.46119   0.16373   0.83340   0.00000  Uiso   1.00
Cl731  Cl    0.35072   0.22553   0.63220   0.00000  Uiso   1.00
Cl732  Cl    0.64434   0.13670   0.87256   0.00000  Uiso   1.00
Cl733  Cl    0.56562   0.01970   0.79485   0.00000  Uiso   1.00
Cl734  Cl    0.43520   0.31378   0.70459   0.00000  Uiso   1.00
Cu735  Cu    0.44071   0.16108   0.74517   0.00000  Uiso   1.00
Cu736  Cu    0.55929   0.17225   0.75484   0.00000  Uiso   1.00
H737   H     0.66246   0.13095   0.53336   0.00000  Uiso   1.00
H738   H     0.61359   0.05571   0.92778   0.00000  Uiso   1.00
H739   H     0.51433   0.07186   0.51321   0.00000  Uiso   1.00
H740   H     0.50664   0.07607   0.95823   0.00000  Uiso   1.00
H741   H     0.51869   0.31496   0.94318   0.00000  Uiso   1.00
H742   H     0.44945   0.32397   0.98504   0.00000  Uiso   1.00
H743   H     0.51781   0.31246   0.50061   0.00000  Uiso   1.00
H744   H     0.39969   0.01348   0.57228   0.00000  Uiso   1.00
H745   H     0.33418   0.31458   0.61169   0.00000  Uiso   1.00
H746   H     0.33793   0.04252   0.53422   0.00000  Uiso   1.00
H747   H     0.60150   0.32644   0.55219   0.00000  Uiso   1.00
H748   H     0.65410   0.26368   0.97953   0.00000  Uiso   1.00
H749   H     0.58349   0.03181   0.62765   0.00000  Uiso   1.00
H750   H     0.65368   0.08241   0.61182   0.00000  Uiso   1.00
H751   H     0.58609   0.07797   0.58852   0.00000  Uiso   1.00
H752   H     0.47575   0.14252   0.60624   0.00000  Uiso   1.00
H753   H     0.53032   0.18852   0.89161   0.00000  Uiso   1.00
H754   H     0.40394   0.14795   0.57722   0.00000  Uiso   1.00
H755   H     0.58266   0.23684   0.93267   0.00000  Uiso   1.00
H756   H     0.33481   0.20541   0.78452   0.00000  Uiso   1.00
H757   H     0.66523   0.12799   0.71542   0.00000  Uiso   1.00
H758   H     0.62214   0.05013   0.98220   0.00000  Uiso   1.00
N759   N     0.64839   0.18068   0.76212   0.00000  Uiso   1.00
N760   N     0.35161   0.15265   0.73788   0.00000  Uiso   1.00
O761   O     0.46148   0.23809   0.74686   0.00000  Uiso   1.00
O762   O     0.35665   0.27568   0.54950   0.00000  Uiso   1.00
O763   O     0.53852   0.09524   0.75314   0.00000  Uiso   1.00
O764   O     0.56163   0.24753   0.75503   0.00000  Uiso   1.00
O765   O     0.43837   0.08580   0.74498   0.00000  Uiso   1.00
O766   O     0.42185   0.15930   0.80855   0.00000  Uiso   1.00
O767   O     0.57815   0.17403   0.69146   0.00000  Uiso   1.00
O768   O     0.52199   0.16874   0.81671   0.00000  Uiso   1.00
O769   O     0.47801   0.16460   0.68329   0.00000  Uiso   1.00
O770   O     0.62133   0.12479   0.96706   0.00000  Uiso   1.00
C771   C     0.84776   0.26657   0.75178   0.00000  Uiso   1.00
C772   C     0.87218   0.17138   0.66678   0.00000  Uiso   1.00
C773   C     0.77003   0.16222   0.88154   0.00000  Uiso   1.00
C774   C     0.89611   0.18308   0.61999   0.00000  Uiso   1.00
C775   C     0.68548   0.13913   0.94707   0.00000  Uiso   1.00
C776   C     0.96902   0.23747   0.56280   0.00000  Uiso   1.00
C777   C     0.70460   0.14651   0.90182   0.00000  Uiso   1.00
C778   C     0.95639   0.21441   0.60343   0.00000  Uiso   1.00
C779   C     0.81410   0.17663   0.90772   0.00000  Uiso   1.00
C780   C     0.85283   0.16950   0.59342   0.00000  Uiso   1.00
C781   C     0.79527   0.17421   0.95353   0.00000  Uiso   1.00
C782   C     0.81901   0.06677   0.74809   0.00000  Uiso   1.00
C783   C     0.86593   0.18908   0.55148   0.00000  Uiso   1.00
C784   C     0.73067   0.15279   0.97277   0.00000  Uiso   1.00
C785   C     0.92598   0.22172   0.53548   0.00000  Uiso   1.00
C786   C     0.83921   0.19100   0.98070   0.00000  Uiso   1.00
C787   C     0.82040   0.17770   0.52537   0.00000  Uiso   1.00
C788   C     0.93398   0.07028   0.96246   0.00000  Uiso   1.00
C789   C     0.86157   0.05691   0.97877   0.00000  Uiso   1.00
C790   C     0.83553   0.33167   0.97668   0.00000  Uiso   1.00
C791   C     0.68463   0.32191   0.57615   0.00000  Uiso   1.00
C792   C     0.97549   0.01941   0.56249   0.00000  Uiso   1.00
C793   C     0.75595   0.15547   0.54305   0.00000  Uiso   1.00
C794   C     0.94827   0.05523   0.59997   0.00000  Uiso   1.00
C795   C     0.90028   0.22220   0.96525   0.00000  Uiso   1.00
C796   C     0.71181   0.14547   0.51764   0.00000  Uiso   1.00
C797   C     0.94183   0.23864   0.99261   0.00000  Uiso   1.00
C798   C     0.85166   0.32162   0.75833   0.00000  Uiso   1.00
C799   C     0.81535   0.01177   0.74137   0.00000  Uiso   1.00
C800   C     0.79452   0.16373   0.83340   0.00000  Uiso   1.00
Cl801  Cl    0.68406   0.22553   0.63220   0.00000  Uiso   1.00
Cl802  Cl    0.97768   0.13670   0.87256   0.00000  Uiso   1.00
Cl803  Cl    0.89895   0.01970   0.79485   0.00000  Uiso   1.00
Cl804  Cl    0.76853   0.31378   0.70459   0.00000  Uiso   1.00
Cu805  Cu    0.77404   0.16108   0.74517   0.00000  Uiso   1.00
Cu806  Cu    0.89263   0.17225   0.75484   0.00000  Uiso   1.00
H807   H     0.99579   0.13095   0.53336   0.00000  Uiso   1.00
H808   H     0.94692   0.05571   0.92778   0.00000  Uiso   1.00
H809   H     0.84767   0.07186   0.51321   0.00000  Uiso   1.00
H810   H     0.83998   0.07607   0.95823   0.00000  Uiso   1.00
H811   H     0.85203   0.31496   0.94318   0.00000  Uiso   1.00
H812   H     0.78278   0.32397   0.98504   0.00000  Uiso   1.00
H813   H     0.85114   0.31246   0.50061   0.00000  Uiso   1.00
H814   H     0.73303   0.01348   0.57228   0.00000  Uiso   1.00
H815   H     0.66752   0.31458   0.61169   0.00000  Uiso   1.00
H816   H     0.67126   0.04252   0.53422   0.00000  Uiso   1.00
H817   H     0.93483   0.32644   0.55219   0.00000  Uiso   1.00
H818   H     0.98743   0.26368   0.97953   0.00000  Uiso   1.00
H819   H     0.91683   0.03181   0.62765   0.00000  Uiso   1.00
H820   H     0.98701   0.08241   0.61182   0.00000  Uiso   1.00
H821   H     0.91942   0.07797   0.58852   0.00000  Uiso   1.00
H822   H     0.80908   0.14252   0.60624   0.00000  Uiso   1.00
H823   H     0.86366   0.18852   0.89161   0.00000  Uiso   1.00
H824   H     0.73727   0.14795   0.57722   0.00000  Uiso   1.00
H825   H     0.91599   0.23684   0.93267   0.00000  Uiso   1.00
H826   H     0.66814   0.20541   0.78452   0.00000  Uiso   1.00
H827   H     0.99856   0.12799   0.71542   0.00000  Uiso   1.00
H828   H     0.95547   0.05013   0.98220   0.00000  Uiso   1.00
N829   N     0.98173   0.18068   0.76212   0.00000  Uiso   1.00
N830   N     0.68494   0.15265   0.73788   0.00000  Uiso   1.00
O831   O     0.79482   0.23809   0.74686   0.00000  Uiso   1.00
O832   O     0.68999   0.27568   0.54950   0.00000  Uiso   1.00
O833   O     0.87185   0.09524   0.75314   0.00000  Uiso   1.00
O834   O     0.89496   0.24753   0.75503   0.00000  Uiso   1.00
O835   O     0.77171   0.08580   0.74498   0.00000  Uiso   1.00
O836   O     0.75518   0.15930   0.80855   0.00000  Uiso   1.00
O837   O     0.91149   0.17403   0.69146   0.00000  Uiso   1.00
O838   O     0.85532   0.16874   0.81671   0.00000  Uiso   1.00
O839   O     0.81134   0.16460   0.68329   0.00000  Uiso   1.00
O840   O     0.95466   0.12479   0.96706   0.00000  Uiso   1.00
C841   C     0.18109   0.59991   0.75178   0.00000  Uiso   1.00
C842   C     0.20551   0.50471   0.66678   0.00000  Uiso   1.00
C843   C     0.10336   0.49555   0.88154   0.00000  Uiso   1.00
C844   C     0.22945   0.51642   0.61999   0.00000  Uiso   1.00
C845   C     0.01881   0.47246   0.94707   0.00000  Uiso   1.00
C846   C     0.30236   0.57080   0.56280   0.00000  Uiso   1.00
C847   C     0.03793   0.47984   0.90182   0.00000  Uiso   1.00
C848   C     0.28972   0.54775   0.60343   0.00000  Uiso   1.00
C849   C     0.14744   0.50997   0.90772   0.00000  Uiso   1.00
C850   C     0.18616   0.50283   0.59342   0.00000  Uiso   1.00
C851   C     0.12860   0.50754   0.95353   0.00000  Uiso   1.00
C852   C     0.15234   0.40011   0.74809   0.00000  Uiso   1.00
C853   C     0.19927   0.52241   0.55148   0.00000  Uiso   1.00
C854   C     0.06400   0.48612   0.97277   0.00000  Uiso   1.00
C855   C     0.25932   0.55505   0.53548   0.00000  Uiso   1.00
C856   C     0.17255   0.52433   0.98070   0.00000  Uiso   1.00
C857   C     0.15373   0.51103   0.52537   0.00000  Uiso   1.00
C858   C     0.26731   0.40361   0.96246   0.00000  Uiso   1.00
C859   C     0.19490   0.39024   0.97877   0.00000  Uiso   1.00
C860   C     0.16887   0.66501   0.97668   0.00000  Uiso   1.00
C861   C     0.01797   0.65524   0.57615   0.00000  Uiso   1.00
C862   C     0.30883   0.35275   0.56249   0.00000  Uiso   1.00
C863   C     0.08928   0.48880   0.54305   0.00000  Uiso   1.00
C864   C     0.28161   0.38856   0.59997   0.00000  Uiso   1.00
C865   C     0.23362   0.55553   0.96525   0.00000  Uiso   1.00
C866   C     0.04515   0.47880   0.51764   0.00000  Uiso   1.00
C867   C     0.27517   0.57198   0.99261   0.00000  Uiso   1.00
C868   C     0.18499   0.65495   0.75833   0.00000  Uiso   1.00
C869   C     0.14869   0.34511   0.74137   0.00000  Uiso   1.00
C870   C     0.12786   0.49706   0.83340   0.00000  Uiso   1.00
Cl871  Cl    0.01739   0.55886   0.63220   0.00000  Uiso   1.00
Cl872  Cl    0.31101   0.47003   0.87256   0.00000  Uiso   1.00
Cl873  Cl    0.23229   0.35304   0.79485   0.00000  Uiso   1.00
Cl874  Cl    0.10187   0.64712   0.70459   0.00000  Uiso   1.00
Cu875  Cu    0.10737   0.49441   0.74517   0.00000  Uiso   1.00
Cu876  Cu    0.22596   0.50559   0.75484   0.00000  Uiso   1.00
H877   H     0.32912   0.46428   0.53336   0.00000  Uiso   1.00
H878   H     0.28026   0.38905   0.92778   0.00000  Uiso   1.00
H879   H     0.18100   0.40520   0.51321   0.00000  Uiso   1.00
H880   H     0.17331   0.40941   0.95823   0.00000  Uiso   1.00
H881   H     0.18536   0.64830   0.94318   0.00000  Uiso   1.00
H882   H     0.11612   0.65730   0.98504   0.00000  Uiso   1.00
H883   H     0.18447   0.64579   0.50061   0.00000  Uiso   1.00
H884   H     0.06636   0.34681   0.57228   0.00000  Uiso   1.00
H885   H     0.00085   0.64791   0.61169   0.00000  Uiso   1.00
H886   H     0.00459   0.37586   0.53422   0.00000  Uiso   1.00
H887   H     0.26816   0.65978   0.55219   0.00000  Uiso   1.00
H888   H     0.32077   0.59702   0.97953   0.00000  Uiso   1.00
H889   H     0.25016   0.36514   0.62765   0.00000  Uiso   1.00
H890   H     0.32034   0.41574   0.61182   0.00000  Uiso   1.00
H891   H     0.25275   0.41131   0.58852   0.00000  Uiso   1.00
H892   H     0.14242   0.47585   0.60624   0.00000  Uiso   1.00
H893   H     0.19699   0.52185   0.89161   0.00000  Uiso   1.00
H894   H     0.07061   0.48129   0.57722   0.00000  Uiso   1.00
H895   H     0.24933   0.57017   0.93267   0.00000  Uiso   1.00
H896   H     0.00147   0.53874   0.78452   0.00000  Uiso   1.00
H897   H     0.33190   0.46132   0.71542   0.00000  Uiso   1.00
H898   H     0.28881   0.38347   0.98220   0.00000  Uiso   1.00
N899   N     0.31506   0.51401   0.76212   0.00000  Uiso   1.00
N900   N     0.01827   0.48599   0.73788   0.00000  Uiso   1.00
O901   O     0.12815   0.57142   0.74686   0.00000  Uiso   1.00
O902   O     0.02332   0.60902   0.54950   0.00000  Uiso   1.00
O903   O     0.20518   0.42858   0.75314   0.00000  Uiso   1.00
O904   O     0.22829   0.58086   0.75503   0.00000  Uiso   1.00
O905   O     0.10504   0.41914   0.74498   0.00000  Uiso   1.00
O906   O     0.08851   0.49263   0.80855   0.00000  Uiso   1.00
O907   O     0.24482   0.50737   0.69146   0.00000  Uiso   1.00
O908   O     0.18866   0.50207   0.81671   0.00000  Uiso   1.00
O909   O     0.14468   0.49793   0.68329   0.00000  Uiso   1.00
O910   O     0.28800   0.45812   0.96706   0.00000  Uiso   1.00
C911   C     0.51443   0.59991   0.75178   0.00000  Uiso   1.00
C912   C     0.53885   0.50471   0.66678   0.00000  Uiso   1.00
C913   C     0.43670   0.49555   0.88154   0.00000  Uiso   1.00
C914   C     0.56278   0.51642   0.61999   0.00000  Uiso   1.00
C915   C     0.35215   0.47246   0.94707   0.00000  Uiso   1.00
C916   C     0.63569   0.57080   0.56280   0.00000  Uiso   1.00
C917   C     0.37127   0.47984   0.90182   0.00000  Uiso   1.00
C918   C     0.62306   0.54775   0.60343   0.00000  Uiso   1.00
C919   C     0.48077   0.50997   0.90772   0.00000  Uiso   1.00
C920   C     0.51950   0.50283   0.59342   0.00000  Uiso   1.00
C921   C     0.46193   0.50754   0.95353   0.00000  Uiso   1.00
C922   C     0.48567   0.40011   0.74809   0.00000  Uiso   1.00
C923   C     0.53260   0.52241   0.55148   0.00000  Uiso   1.00
C924   C     0.39734   0.48612   0.97277   0.00000  Uiso   1.00
C925   C     0.59265   0.55505   0.53548   0.00000  Uiso   1.00
C926   C     0.50588   0.52433   0.98070   0.00000  Uiso   1.00
C927   C     0.48707   0.51103   0.52537   0.00000  Uiso   1.00
C928   C     0.60064   0.40361   0.96246   0.00000  Uiso   1.00
C929   C     0.52824   0.39024   0.97877   0.00000  Uiso   1.00
C930   C     0.50220   0.66501   0.97668   0.00000  Uiso   1.00
C931   C     0.35130   0.65524   0.57615   0.00000  Uiso   1.00
C932   C     0.64216   0.35275   0.56249   0.00000  Uiso   1.00
C933   C     0.42261   0.48880   0.54305   0.00000  Uiso   1.00
C934   C     0.61494   0.38856   0.59997   0.00000  Uiso   1.00
C935   C     0.56695   0.55553   0.96525   0.00000  Uiso   1.00
C936   C     0.37848   0.47880   0.51764   0.00000  Uiso   1.00
C937   C     0.60850   0.57198   0.99261   0.00000  Uiso   1.00
C938   C     0.51833   0.65495   0.75833   0.00000  Uiso   1.00
C939   C     0.48202   0.34511   0.74137   0.00000  Uiso   1.00
C940   C     0.46119   0.49706   0.83340   0.00000  Uiso   1.00
Cl941  Cl    0.35072   0.55886   0.63220   0.00000  Uiso   1.00
Cl942  Cl    0.64434   0.47003   0.87256   0.00000  Uiso   1.00
Cl943  Cl    0.56562   0.35304   0.79485   0.00000  Uiso   1.00
Cl944  Cl    0.43520   0.64712   0.70459   0.00000  Uiso   1.00
Cu945  Cu    0.44071   0.49441   0.74517   0.00000  Uiso   1.00
Cu946  Cu    0.55929   0.50559   0.75484   0.00000  Uiso   1.00
H947   H     0.66246   0.46428   0.53336   0.00000  Uiso   1.00
H948   H     0.61359   0.38905   0.92778   0.00000  Uiso   1.00
H949   H     0.51433   0.40520   0.51321   0.00000  Uiso   1.00
H950   H     0.50664   0.40941   0.95823   0.00000  Uiso   1.00
H951   H     0.51869   0.64830   0.94318   0.00000  Uiso   1.00
H952   H     0.44945   0.65730   0.98504   0.00000  Uiso   1.00
H953   H     0.51781   0.64579   0.50061   0.00000  Uiso   1.00
H954   H     0.39969   0.34681   0.57228   0.00000  Uiso   1.00
H955   H     0.33418   0.64791   0.61169   0.00000  Uiso   1.00
H956   H     0.33793   0.37586   0.53422   0.00000  Uiso   1.00
H957   H     0.60150   0.65978   0.55219   0.00000  Uiso   1.00
H958   H     0.65410   0.59702   0.97953   0.00000  Uiso   1.00
H959   H     0.58349   0.36514   0.62765   0.00000  Uiso   1.00
H960   H     0.65368   0.41574   0.61182   0.00000  Uiso   1.00
H961   H     0.58609   0.41131   0.58852   0.00000  Uiso   1.00
H962   H     0.47575   0.47585   0.60624   0.00000  Uiso   1.00
H963   H     0.53032   0.52185   0.89161   0.00000  Uiso   1.00
H964   H     0.40394   0.48129   0.57722   0.00000  Uiso   1.00
H965   H     0.58266   0.57017   0.93267   0.00000  Uiso   1.00
H966   H     0.33481   0.53874   0.78452   0.00000  Uiso   1.00
H967   H     0.66523   0.46132   0.71542   0.00000  Uiso   1.00
H968   H     0.62214   0.38347   0.98220   0.00000  Uiso   1.00
N969   N     0.64839   0.51401   0.76212   0.00000  Uiso   1.00
N970   N     0.35161   0.48599   0.73788   0.00000  Uiso   1.00
O971   O     0.46148   0.57142   0.74686   0.00000  Uiso   1.00
O972   O     0.35665   0.60902   0.54950   0.00000  Uiso   1.00
O973   O     0.53852   0.42858   0.75314   0.00000  Uiso   1.00
O974   O     0.56163   0.58086   0.75503   0.00000  Uiso   1.00
O975   O     0.43837   0.41914   0.74498   0.00000  Uiso   1.00
O976   O     0.42185   0.49263   0.80855   0.00000  Uiso   1.00
O977   O     0.57815   0.50737   0.69146   0.00000  Uiso   1.00
O978   O     0.52199   0.50207   0.81671   0.00000  Uiso   1.00
O979   O     0.47801   0.49793   0.68329   0.00000  Uiso   1.00
O980   O     0.62133   0.45812   0.96706   0.00000  Uiso   1.00
C981   C     0.84776   0.59991   0.75178   0.00000  Uiso   1.00
C982   C     0.87218   0.50471   0.66678   0.00000  Uiso   1.00
C983   C     0.77003   0.49555   0.88154   0.00000  Uiso   1.00
C984   C     0.89611   0.51642   0.61999   0.00000  Uiso   1.00
C985   C     0.68548   0.47246   0.94707   0.00000  Uiso   1.00
C986   C     0.96902   0.57080   0.56280   0.00000  Uiso   1.00
C987   C     0.70460   0.47984   0.90182   0.00000  Uiso   1.00
C988   C     0.95639   0.54775   0.60343   0.00000  Uiso   1.00
C989   C     0.81410   0.50997   0.90772   0.00000  Uiso   1.00
C990   C     0.85283   0.50283   0.59342   0.00000  Uiso   1.00
C991   C     0.79527   0.50754   0.95353   0.00000  Uiso   1.00
C992   C     0.81901   0.40011   0.74809   0.00000  Uiso   1.00
C993   C     0.86593   0.52241   0.55148   0.00000  Uiso   1.00
C994   C     0.73067   0.48612   0.97277   0.00000  Uiso   1.00
C995   C     0.92598   0.55505   0.53548   0.00000  Uiso   1.00
C996   C     0.83921   0.52433   0.98070   0.00000  Uiso   1.00
C997   C     0.82040   0.51103   0.52537   0.00000  Uiso   1.00
C998   C     0.93398   0.40361   0.96246   0.00000  Uiso   1.00
C999   C     0.86157   0.39024   0.97877   0.00000  Uiso   1.00
C1000  C     0.83553   0.66501   0.97668   0.00000  Uiso   1.00
C1001  C     0.68463   0.65524   0.57615   0.00000  Uiso   1.00
C1002  C     0.97549   0.35275   0.56249   0.00000  Uiso   1.00
C1003  C     0.75595   0.48880   0.54305   0.00000  Uiso   1.00
C1004  C     0.94827   0.38856   0.59997   0.00000  Uiso   1.00
C1005  C     0.90028   0.55553   0.96525   0.00000  Uiso   1.00
C1006  C     0.71181   0.47880   0.51764   0.00000  Uiso   1.00
C1007  C     0.94183   0.57198   0.99261   0.00000  Uiso   1.00
C1008  C     0.85166   0.65495   0.75833   0.00000  Uiso   1.00
C1009  C     0.81535   0.34511   0.74137   0.00000  Uiso   1.00
C1010  C     0.79452   0.49706   0.83340   0.00000  Uiso   1.00
Cl1011 Cl    0.68406   0.55886   0.63220   0.00000  Uiso   1.00
Cl1012 Cl    0.97768   0.47003   0.87256   0.00000  Uiso   1.00
Cl1013 Cl    0.89895   0.35304   0.79485   0.00000  Uiso   1.00
Cl1014 Cl    0.76853   0.64712   0.70459   0.00000  Uiso   1.00
Cu1015 Cu    0.77404   0.49441   0.74517   0.00000  Uiso   1.00
Cu1016 Cu    0.89263   0.50559   0.75484   0.00000  Uiso   1.00
H1017  H     0.99579   0.46428   0.53336   0.00000  Uiso   1.00
H1018  H     0.94692   0.38905   0.92778   0.00000  Uiso   1.00
H1019  H     0.84767   0.40520   0.51321   0.00000  Uiso   1.00
H1020  H     0.83998   0.40941   0.95823   0.00000  Uiso   1.00
H1021  H     0.85203   0.64830   0.94318   0.00000  Uiso   1.00
H1022  H     0.78278   0.65730   0.98504   0.00000  Uiso   1.00
H1023  H     0.85114   0.64579   0.50061   0.00000  Uiso   1.00
H1024  H     0.73303   0.34681   0.57228   0.00000  Uiso   1.00
H1025  H     0.66752   0.64791   0.61169   0.00000  Uiso   1.00
H1026  H     0.67126   0.37586   0.53422   0.00000  Uiso   1.00
H1027  H     0.93483   0.65978   0.55219   0.00000  Uiso   1.00
H1028  H     0.98743   0.59702   0.97953   0.00000  Uiso   1.00
H1029  H     0.91683   0.36514   0.62765   0.00000  Uiso   1.00
H1030  H     0.98701   0.41574   0.61182   0.00000  Uiso   1.00
H1031  H     0.91942   0.41131   0.58852   0.00000  Uiso   1.00
H1032  H     0.80908   0.47585   0.60624   0.00000  Uiso   1.00
H1033  H     0.86366   0.52185   0.89161   0.00000  Uiso   1.00
H1034  H     0.73727   0.48129   0.57722   0.00000  Uiso   1.00
H1035  H     0.91599   0.57017   0.93267   0.00000  Uiso   1.00
H1036  H     0.66814   0.53874   0.78452   0.00000  Uiso   1.00
H1037  H     0.99856   0.46132   0.71542   0.00000  Uiso   1.00
H1038  H     0.95547   0.38347   0.98220   0.00000  Uiso   1.00
N1039  N     0.98173   0.51401   0.76212   0.00000  Uiso   1.00
N1040  N     0.68494   0.48599   0.73788   0.00000  Uiso   1.00
O1041  O     0.79482   0.57142   0.74686   0.00000  Uiso   1.00
O1042  O     0.68999   0.60902   0.54950   0.00000  Uiso   1.00
O1043  O     0.87185   0.42858   0.75314   0.00000  Uiso   1.00
O1044  O     0.89496   0.58086   0.75503   0.00000  Uiso   1.00
O1045  O     0.77171   0.41914   0.74498   0.00000  Uiso   1.00
O1046  O     0.75518   0.49263   0.80855   0.00000  Uiso   1.00
O1047  O     0.91149   0.50737   0.69146   0.00000  Uiso   1.00
O1048  O     0.85532   0.50207   0.81671   0.00000  Uiso   1.00
O1049  O     0.81134   0.49793   0.68329   0.00000  Uiso   1.00
O1050  O     0.95466   0.45812   0.96706   0.00000  Uiso   1.00
C1051  C     0.18109   0.93324   0.75178   0.00000  Uiso   1.00
C1052  C     0.20551   0.83805   0.66678   0.00000  Uiso   1.00
C1053  C     0.10336   0.82888   0.88154   0.00000  Uiso   1.00
C1054  C     0.22945   0.84975   0.61999   0.00000  Uiso   1.00
C1055  C     0.01881   0.80580   0.94707   0.00000  Uiso   1.00
C1056  C     0.30236   0.90414   0.56280   0.00000  Uiso   1.00
C1057  C     0.03793   0.81317   0.90182   0.00000  Uiso   1.00
C1058  C     0.28972   0.88108   0.60343   0.00000  Uiso   1.00
C1059  C     0.14744   0.84330   0.90772   0.00000  Uiso   1.00
C1060  C     0.18616   0.83616   0.59342   0.00000  Uiso   1.00
C1061  C     0.12860   0.84088   0.95353   0.00000  Uiso   1.00
C1062  C     0.15234   0.73344   0.74809   0.00000  Uiso   1.00
C1063  C     0.19927   0.85574   0.55148   0.00000  Uiso   1.00
C1064  C     0.06400   0.81946   0.97277   0.00000  Uiso   1.00
C1065  C     0.25932   0.88838   0.53548   0.00000  Uiso   1.00
C1066  C     0.17255   0.85767   0.98070   0.00000  Uiso   1.00
C1067  C     0.15373   0.84436   0.52537   0.00000  Uiso   1.00
C1068  C     0.26731   0.73695   0.96246   0.00000  Uiso   1.00
C1069  C     0.19490   0.72357   0.97877   0.00000  Uiso   1.00
C1070  C     0.16887   0.99834   0.97668   0.00000  Uiso   1.00
C1071  C     0.01797   0.98857   0.57615   0.00000  Uiso   1.00
C1072  C     0.30883   0.68608   0.56249   0.00000  Uiso   1.00
C1073  C     0.08928   0.82213   0.54305   0.00000  Uiso   1.00
C1074  C     0.28161   0.72189   0.59997   0.00000  Uiso   1.00
C1075  C     0.23362   0.88887   0.96525   0.00000  Uiso   1.00
C1076  C     0.04515   0.81213   0.51764   0.00000  Uiso   1.00
C1077  C     0.27517   0.90531   0.99261   0.00000  Uiso   1.00
C1078  C     0.18499   0.98829   0.75833   0.00000  Uiso   1.00
C1079  C     0.14869   0.67844   0.74137   0.00000  Uiso   1.00
C1080  C     0.12786   0.83039   0.83340   0.00000  Uiso   1.00
Cl1081 Cl    0.01739   0.89220   0.63220   0.00000  Uiso   1.00
Cl1082 Cl    0.31101   0.80336   0.87256   0.00000  Uiso   1.00
Cl1083 Cl    0.23229   0.68637   0.79485   0.00000  Uiso   1.00
Cl1084 Cl    0.10187   0.98045   0.70459   0.00000  Uiso   1.00
Cu1085 Cu    0.10737   0.82775   0.74517   0.00000  Uiso   1.00
Cu1086 Cu    0.22596   0.83892   0.75484   0.00000  Uiso   1.00
H1087  H     0.32912   0.79762   0.53336   0.00000  Uiso   1.00
H1088  H     0.28026   0.72238   0.92778   0.00000  Uiso   1.00
H1089  H     0.18100   0.73853   0.51321   0.00000  Uiso   1.00
H1090  H     0.17331   0.74274   0.95823   0.00000  Uiso   1.00
H1091  H     0.18536   0.98163   0.94318   0.00000  Uiso   1.00
H1092  H     0.11612   0.99063   0.98504   0.00000  Uiso   1.00
H1093  H     0.18447   0.97913   0.50061   0.00000  Uiso   1.00
H1094  H     0.06636   0.68014   0.57228   0.00000  Uiso   1.00
H1095  H     0.00085   0.98125   0.61169   0.00000  Uiso   1.00
H1096  H     0.00459   0.70919   0.53422   0.00000  Uiso   1.00
H1097  H     0.26816   0.99311   0.55219   0.00000  Uiso   1.00
H1098  H     0.32077   0.93035   0.97953   0.00000  Uiso   1.00
H1099  H     0.25016   0.69847   0.62765   0.00000  Uiso   1.00
H1100  H     0.32034   0.74907   0.61182   0.00000  Uiso   1.00
H1101  H     0.25275   0.74464   0.58852   0.00000  Uiso   1.00
H1102  H     0.14242   0.80918   0.60624   0.00000  Uiso   1.00
H1103  H     0.19699   0.85518   0.89161   0.00000  Uiso   1.00
H1104  H     0.07061   0.81462   0.57722   0.00000  Uiso   1.00
H1105  H     0.24933   0.90350   0.93267   0.00000  Uiso   1.00
H1106  H     0.00147   0.87208   0.78452   0.00000  Uiso   1.00
H1107  H     0.33190   0.79466   0.71542   0.00000  Uiso   1.00
H1108  H     0.28881   0.71680   0.98220   0.00000  Uiso   1.00
N1109  N     0.31506   0.84735   0.76212   0.00000  Uiso   1.00
N1110  N     0.01827   0.81932   0.73788   0.00000  Uiso   1.00
O1111  O     0.12815   0.90476   0.74686   0.00000  Uiso   1.00
O1112  O     0.02332   0.94235   0.54950   0.00000  Uiso   1.00
O1113  O     0.20518   0.76191   0.75314   0.00000  Uiso   1.00
O1114  O     0.22829   0.91420   0.75503   0.00000  Uiso   1.00
O1115  O     0.10504   0.75247   0.74498   0.00000  Uiso   1.00
O1116  O     0.08851   0.82597   0.80855   0.00000  Uiso   1.00
O1117  O     0.24482   0.84070   0.69146   0.00000  Uiso   1.00
O1118  O     0.18866   0.83540   0.81671   0.00000  Uiso   1.00
O1119  O     0.14468   0.83126   0.68329   0.00000  Uiso   1.00
O1120  O     0.28800   0.79145   0.96706   0.00000  Uiso   1.00
C1121  C     0.51443   0.93324   0.75178   0.00000  Uiso   1.00
C1122  C     0.53885   0.83805   0.66678   0.00000  Uiso   1.00
C1123  C     0.43670   0.82888   0.88154   0.00000  Uiso   1.00
C1124  C     0.56278   0.84975   0.61999   0.00000  Uiso   1.00
C1125  C     0.35215   0.80580   0.94707   0.00000  Uiso   1.00
C1126  C     0.63569   0.90414   0.56280   0.00000  Uiso   1.00
C1127  C     0.37127   0.81317   0.90182   0.00000  Uiso   1.00
C1128  C     0.62306   0.88108   0.60343   0.00000  Uiso   1.00
C1129  C     0.48077   0.84330   0.90772   0.00000  Uiso   1.00
C1130  C     0.51950   0.83616   0.59342   0.00000  Uiso   1.00
C1131  C     0.46193   0.84088   0.95353   0.00000  Uiso   1.00
C1132  C     0.48567   0.73344   0.74809   0.00000  Uiso   1.00
C1133  C     0.53260   0.85574   0.55148   0.00000  Uiso   1.00
C1134  C     0.39734   0.81946   0.97277   0.00000  Uiso   1.00
C1135  C     0.59265   0.88838   0.53548   0.00000  Uiso   1.00
C1136  C     0.50588   0.85767   0.98070   0.00000  Uiso   1.00
C1137  C     0.48707   0.84436   0.52537   0.00000  Uiso   1.00
C1138  C     0.60064   0.73695   0.96246   0.00000  Uiso   1.00
C1139  C     0.52824   0.72357   0.97877   0.00000  Uiso   1.00
C1140  C     0.50220   0.99834   0.97668   0.00000  Uiso   1.00
C1141  C     0.35130   0.98857   0.57615   0.00000  Uiso   1.00
C1142  C     0.64216   0.68608   0.56249   0.00000  Uiso   1.00
C1143  C     0.42261   0.82213   0.54305   0.00000  Uiso   1.00
C1144  C     0.61494   0.72189   0.59997   0.00000  Uiso   1.00
C1145  C     0.56695   0.88887   0.96525   0.00000  Uiso   1.00
C1146  C     0.37848   0.81213   0.51764   0.00000  Uiso   1.00
C1147  C     0.60850   0.90531   0.99261   0.00000  Uiso   1.00
C1148  C     0.51833   0.98829   0.75833   0.00000  Uiso   1.00
C1149  C     0.48202   0.67844   0.74137   0.00000  Uiso   1.00
C1150  C     0.46119   0.83039   0.83340   0.00000  Uiso   1.00
Cl1151 Cl    0.35072   0.89220   0.63220   0.00000  Uiso   1.00
Cl1152 Cl    0.64434   0.80336   0.87256   0.00000  Uiso   1.00
Cl1153 Cl    0.56562   0.68637   0.79485   0.00000  Uiso   1.00
Cl1154 Cl    0.43520   0.98045   0.70459   0.00000  Uiso   1.00
Cu1155 Cu    0.44071   0.82775   0.74517   0.00000  Uiso   1.00
Cu1156 Cu    0.55929   0.83892   0.75484   0.00000  Uiso   1.00
H1157  H     0.66246   0.79762   0.53336   0.00000  Uiso   1.00
H1158  H     0.61359   0.72238   0.92778   0.00000  Uiso   1.00
H1159  H     0.51433   0.73853   0.51321   0.00000  Uiso   1.00
H1160  H     0.50664   0.74274   0.95823   0.00000  Uiso   1.00
H1161  H     0.51869   0.98163   0.94318   0.00000  Uiso   1.00
H1162  H     0.44945   0.99063   0.98504   0.00000  Uiso   1.00
H1163  H     0.51781   0.97913   0.50061   0.00000  Uiso   1.00
H1164  H     0.39969   0.68014   0.57228   0.00000  Uiso   1.00
H1165  H     0.33418   0.98125   0.61169   0.00000  Uiso   1.00
H1166  H     0.33793   0.70919   0.53422   0.00000  Uiso   1.00
H1167  H     0.60150   0.99311   0.55219   0.00000  Uiso   1.00
H1168  H     0.65410   0.93035   0.97953   0.00000  Uiso   1.00
H1169  H     0.58349   0.69847   0.62765   0.00000  Uiso   1.00
H1170  H     0.65368   0.74907   0.61182   0.00000  Uiso   1.00
H1171  H     0.58609   0.74464   0.58852   0.00000  Uiso   1.00
H1172  H     0.47575   0.80918   0.60624   0.00000  Uiso   1.00
H1173  H     0.53032   0.85518   0.89161   0.00000  Uiso   1.00
H1174  H     0.40394   0.81462   0.57722   0.00000  Uiso   1.00
H1175  H     0.58266   0.90350   0.93267   0.00000  Uiso   1.00
H1176  H     0.33481   0.87208   0.78452   0.00000  Uiso   1.00
H1177  H     0.66523   0.79466   0.71542   0.00000  Uiso   1.00
H1178  H     0.62214   0.71680   0.98220   0.00000  Uiso   1.00
N1179  N     0.64839   0.84735   0.76212   0.00000  Uiso   1.00
N1180  N     0.35161   0.81932   0.73788   0.00000  Uiso   1.00
O1181  O     0.46148   0.90476   0.74686   0.00000  Uiso   1.00
O1182  O     0.35665   0.94235   0.54950   0.00000  Uiso   1.00
O1183  O     0.53852   0.76191   0.75314   0.00000  Uiso   1.00
O1184  O     0.56163   0.91420   0.75503   0.00000  Uiso   1.00
O1185  O     0.43837   0.75247   0.74498   0.00000  Uiso   1.00
O1186  O     0.42185   0.82597   0.80855   0.00000  Uiso   1.00
O1187  O     0.57815   0.84070   0.69146   0.00000  Uiso   1.00
O1188  O     0.52199   0.83540   0.81671   0.00000  Uiso   1.00
O1189  O     0.47801   0.83126   0.68329   0.00000  Uiso   1.00
O1190  O     0.62133   0.79145   0.96706   0.00000  Uiso   1.00
C1191  C     0.84776   0.93324   0.75178   0.00000  Uiso   1.00
C1192  C     0.87218   0.83805   0.66678   0.00000  Uiso   1.00
C1193  C     0.77003   0.82888   0.88154   0.00000  Uiso   1.00
C1194  C     0.89611   0.84975   0.61999   0.00000  Uiso   1.00
C1195  C     0.68548   0.80580   0.94707   0.00000  Uiso   1.00
C1196  C     0.96902   0.90414   0.56280   0.00000  Uiso   1.00
C1197  C     0.70460   0.81317   0.90182   0.00000  Uiso   1.00
C1198  C     0.95639   0.88108   0.60343   0.00000  Uiso   1.00
C1199  C     0.81410   0.84330   0.90772   0.00000  Uiso   1.00
C1200  C     0.85283   0.83616   0.59342   0.00000  Uiso   1.00
C1201  C     0.79527   0.84088   0.95353   0.00000  Uiso   1.00
C1202  C     0.81901   0.73344   0.74809   0.00000  Uiso   1.00
C1203  C     0.86593   0.85574   0.55148   0.00000  Uiso   1.00
C1204  C     0.73067   0.81946   0.97277   0.00000  Uiso   1.00
C1205  C     0.92598   0.88838   0.53548   0.00000  Uiso   1.00
C1206  C     0.83921   0.85767   0.98070   0.00000  Uiso   1.00
C1207  C     0.82040   0.84436   0.52537   0.00000  Uiso   1.00
C1208  C     0.93398   0.73695   0.96246   0.00000  Uiso   1.00
C1209  C     0.86157   0.72357   0.97877   0.00000  Uiso   1.00
C1210  C     0.83553   0.99834   0.97668   0.00000  Uiso   1.00
C1211  C     0.68463   0.98857   0.57615   0.00000  Uiso   1.00
C1212  C     0.97549   0.68608   0.56249   0.00000  Uiso   1.00
C1213  C     0.75595   0.82213   0.54305   0.00000  Uiso   1.00
C1214  C     0.94827   0.72189   0.59997   0.00000  Uiso   1.00
C1215  C     0.90028   0.88887   0.96525   0.00000  Uiso   1.00
C1216  C     0.71181   0.81213   0.51764   0.00000  Uiso   1.00
C1217  C     0.94183   0.90531   0.99261   0.00000  Uiso   1.00
C1218  C     0.85166   0.98829   0.75833   0.00000  Uiso   1.00
C1219  C     0.81535   0.67844   0.74137   0.00000  Uiso   1.00
C1220  C     0.79452   0.83039   0.83340   0.00000  Uiso   1.00
Cl1221 Cl    0.68406   0.89220   0.63220   0.00000  Uiso   1.00
Cl1222 Cl    0.97768   0.80336   0.87256   0.00000  Uiso   1.00
Cl1223 Cl    0.89895   0.68637   0.79485   0.00000  Uiso   1.00
Cl1224 Cl    0.76853   0.98045   0.70459   0.00000  Uiso   1.00
Cu1225 Cu    0.77404   0.82775   0.74517   0.00000  Uiso   1.00
Cu1226 Cu    0.89263   0.83892   0.75484   0.00000  Uiso   1.00
H1227  H     0.99579   0.79762   0.53336   0.00000  Uiso   1.00
H1228  H     0.94692   0.72238   0.92778   0.00000  Uiso   1.00
H1229  H     0.84767   0.73853   0.51321   0.00000  Uiso   1.00
H1230  H     0.83998   0.74274   0.95823   0.00000  Uiso   1.00
H1231  H     0.85203   0.98163   0.94318   0.00000  Uiso   1.00
H1232  H     0.78278   0.99063   0.98504   0.00000  Uiso   1.00
H1233  H     0.85114   0.97913   0.50061   0.00000  Uiso   1.00
H1234  H     0.73303   0.68014   0.57228   0.00000  Uiso   1.00
H1235  H     0.66752   0.98125   0.61169   0.00000  Uiso   1.00
H1236  H     0.67126   0.70919   0.53422   0.00000  Uiso   1.00
H1237  H     0.93483   0.99311   0.55219   0.00000  Uiso   1.00
H1238  H     0.98743   0.93035   0.97953   0.00000  Uiso   1.00
H1239  H     0.91683   0.69847   0.62765   0.00000  Uiso   1.00
H1240  H     0.98701   0.74907   0.61182   0.00000  Uiso   1.00
H1241  H     0.91942   0.74464   0.58852   0.00000  Uiso   1.00
H1242  H     0.80908   0.80918   0.60624   0.00000  Uiso   1.00
H1243  H     0.86366   0.85518   0.89161   0.00000  Uiso   1.00
H1244  H     0.73727   0.81462   0.57722   0.00000  Uiso   1.00
H1245  H     0.91599   0.90350   0.93267   0.00000  Uiso   1.00
H1246  H     0.66814   0.87208   0.78452   0.00000  Uiso   1.00
H1247  H     0.99856   0.79466   0.71542   0.00000  Uiso   1.00
H1248  H     0.95547   0.71680   0.98220   0.00000  Uiso   1.00
N1249  N     0.98173   0.84735   0.76212   0.00000  Uiso   1.00
N1250  N     0.68494   0.81932   0.73788   0.00000  Uiso   1.00
O1251  O     0.79482   0.90476   0.74686   0.00000  Uiso   1.00
O1252  O     0.68999   0.94235   0.54950   0.00000  Uiso   1.00
O1253  O     0.87185   0.76191   0.75314   0.00000  Uiso   1.00
O1254  O     0.89496   0.91420   0.75503   0.00000  Uiso   1.00
O1255  O     0.77171   0.75247   0.74498   0.00000  Uiso   1.00
O1256  O     0.75518   0.82597   0.80855   0.00000  Uiso   1.00
O1257  O     0.91149   0.84070   0.69146   0.00000  Uiso   1.00
O1258  O     0.85532   0.83540   0.81671   0.00000  Uiso   1.00
O1259  O     0.81134   0.83126   0.68329   0.00000  Uiso   1.00
O1260  O     0.95466   0.79145   0.96706   0.00000  Uiso   1.00
loop_
_geom_bond_atom_site_label_1
_geom_bond_atom_site_label_2
_geom_bond_distance
_geom_bond_site_symmetry_2
_ccdc_geom_bond_type
C1     C28     1.432   .     S
C1     O64     1.288   .     A
C1     O61     1.283   .     A
C2     O69     1.297   .     A
C2     C4      1.476   .     S
C2     O67     1.297   .     A
C3     C30     1.481   .     S
C3     C9      1.404   .     A
C3     C7      1.416   .     A
C4     C8      1.408   .     A
C4     C10     1.398   .     A
C5     C14     1.411   .     A
C5     C7      1.403   .     A
C5     O210    1.386   1_455 S
C6     C8      1.409   .     A
C6     C15     1.415   .     A
C6     O132    1.388   .     S
C7     Cl172   1.772   1_455 S
C8     Cl101   1.773   .     S
C9     C11     1.404   .     A
C9     H53     1.078   .     S
C10    H52     1.078   .     S
C10    C13     1.405   .     A
C11    C14     1.417   .     A
C11    C16     1.430   .     A
C12    C29     1.432   .     S
C12    O65     1.289   .     A
C12    O63     1.283   .     A
C13    C17     1.426   .     A
C13    C15     1.416   .     A
C14    C656    1.392   .     S
C15    C657    1.400   1_554 S
C16    C25     1.413   .     A
C16    C647    1.421   .     S
C17    C23     1.410   .     A
C17    C646    1.421   1_554 S
C18    O70     1.412   .     S
C18    H38     1.113   .     S
C18    C19     1.529   .     S
C18    H58     1.107   .     S
C19    H40     1.111   .     S
C19    C440    1.524   1_545 S
C19    H669    1.112   .     S
C20    H42     1.109   .     S
C20    H41     1.111   .     S
C20    C229    1.524   .     S
C20    H673    1.110   .     S
C21    O62     1.423   .     S
C21    H45     1.111   .     S
C21    C372    1.534   1_455 S
C21    H254    1.111   .     S
C22    C24     1.528   .     S
C22    C511    1.534   1_545 S
C22    H116    1.106   .     S
C22    H467    1.108   1_545 S
C23    H54     1.074   .     S
C23    C26     1.385   .     A
C24    H51     1.110   .     S
C24    H50     1.109   .     S
C24    H49     1.111   .     S
C25    C27     1.393   .     A
C25    H55     1.079   .     S
C26    C644    1.392   1_554 S
C26    H177    1.081   1_455 S
C27    H48     1.083   .     S
C27    C645    1.400   .     S
C28    C239    1.351   .     S
C28    Cl243   1.778   .     S
C29    C448    1.351   1_545 S
C29    Cl454   1.777   1_545 S
C30    O66     1.295   .     A
C30    O68     1.301   .     A
Cl31   C148    1.773   1_455 S
Cl32   C77     1.772   .     S
Cl33   C448    1.778   1_545 S
Cl34   C239    1.777   .     S
Cu35   Cu36    2.676   .     S
Cu35   O61     1.977   .     S
Cu35   O65     1.972   .     S
Cu35   O69     1.922   .     S
Cu35   O66     1.942   .     S
Cu35   N60     2.011   .     S
Cu36   O68     1.922   .     S
Cu36   N59     2.011   .     S
Cu36   O67     1.942   .     S
Cu36   O63     1.977   .     S
Cu36   O64     1.972   .     S
H37    C96     1.081   .     S
H39    C649    1.112   1_554 S
H43    C650    1.110   1_554 S
H44    C441    1.111   1_545 S
H46    C162    1.106   1_455 S
H47    C232    1.108   .     S
H56    N199    1.029   1_455 S
H57    N130    1.029   .     S
N59    H126    1.029   .     S
N59    N130    1.278   .     S
N60    H197    1.029   1_455 S
N60    N199    1.278   1_455 S
O62    C146    1.388   1_455 S
O70    C75     1.386   .     S
C71    C98     1.432   .     S
C71    O134    1.288   .     A
C71    O131    1.283   .     A
C72    O139    1.297   .     A
C72    C74     1.476   .     S
C72    O137    1.297   .     A
C73    C100    1.481   .     S
C73    C79     1.404   .     A
C73    C77     1.416   .     A
C74    C78     1.408   .     A
C74    C80     1.398   .     A
C75    C84     1.411   .     A
C75    C77     1.403   .     A
C76    C78     1.409   .     A
C76    C85     1.415   .     A
C76    O202    1.388   .     S
C78    Cl171   1.773   .     S
C79    C81     1.404   .     A
C79    H123    1.078   .     S
C80    H122    1.078   .     S
C80    C83     1.405   .     A
C81    C84     1.417   .     A
C81    C86     1.430   .     A
C82    C99     1.432   .     S
C82    O135    1.289   .     A
C82    O133    1.283   .     A
C83    C87     1.426   .     A
C83    C85     1.416   .     A
C84    C726    1.392   .     S
C85    C727    1.400   1_554 S
C86    C95     1.413   .     A
C86    C717    1.421   .     S
C87    C93     1.410   .     A
C87    C716    1.421   1_554 S
C88    O140    1.412   .     S
C88    H108    1.113   .     S
C88    C89     1.529   .     S
C88    H128    1.107   .     S
C89    H110    1.111   .     S
C89    C510    1.524   1_545 S
C89    H739    1.112   .     S
C90    H112    1.109   .     S
C90    H111    1.111   .     S
C90    C299    1.524   .     S
C90    H743    1.110   .     S
C91    O132    1.423   .     S
C91    H115    1.111   .     S
C91    C232    1.534   .     S
C91    H324    1.111   .     S
C92    C94     1.528   .     S
C92    C581    1.534   1_545 S
C92    H186    1.106   .     S
C92    H537    1.108   1_545 S
C93    H124    1.074   .     S
C93    C96     1.385   .     A
C94    H121    1.110   .     S
C94    H120    1.109   .     S
C94    H119    1.111   .     S
C95    C97     1.393   .     A
C95    H125    1.079   .     S
C96    C714    1.392   1_554 S
C97    H118    1.083   .     S
C97    C715    1.400   .     S
C98    C309    1.351   .     S
C98    Cl313   1.778   .     S
C99    C518    1.351   1_545 S
C99    Cl524   1.777   1_545 S
C100   O136    1.295   .     A
C100   O138    1.301   .     A
Cl102  C147    1.772   .     S
Cl103  C518    1.778   1_545 S
Cl104  C309    1.777   .     S
Cu105  Cu106   2.676   .     S
Cu105  O131    1.977   .     S
Cu105  O135    1.972   .     S
Cu105  O139    1.922   .     S
Cu105  O136    1.942   .     S
Cu105  N130    2.011   .     S
Cu106  O138    1.922   .     S
Cu106  N129    2.011   .     S
Cu106  O137    1.942   .     S
Cu106  O133    1.977   .     S
Cu106  O134    1.972   .     S
H107   C166    1.081   .     S
H109   C719    1.112   1_554 S
H113   C720    1.110   1_554 S
H114   C511    1.111   1_545 S
H117   C302    1.108   .     S
H127   N200    1.029   .     S
N129   H196    1.029   .     S
N129   N200    1.278   .     S
O140   C145    1.386   .     S
C141   C168    1.432   .     S
C141   O204    1.288   .     A
C141   O201    1.283   .     A
C142   O209    1.297   .     A
C142   C144    1.476   .     S
C142   O207    1.297   .     A
C143   C170    1.481   .     S
C143   C149    1.404   .     A
C143   C147    1.416   .     A
C144   C148    1.408   .     A
C144   C150    1.398   .     A
C145   C154    1.411   .     A
C145   C147    1.403   .     A
C146   C148    1.409   .     A
C146   C155    1.415   .     A
C146   O62     1.388   1_655 S
C148   Cl31    1.773   1_655 S
C149   C151    1.404   .     A
C149   H193    1.078   .     S
C150   H192    1.078   .     S
C150   C153    1.405   .     A
C151   C154    1.417   .     A
C151   C156    1.430   .     A
C152   C169    1.432   .     S
C152   O205    1.289   .     A
C152   O203    1.283   .     A
C153   C157    1.426   .     A
C153   C155    1.416   .     A
C154   C796    1.392   .     S
C155   C797    1.400   1_554 S
C156   C165    1.413   .     A
C156   C787    1.421   .     S
C157   C163    1.410   .     A
C157   C786    1.421   1_554 S
C158   O210    1.412   .     S
C158   H178    1.113   .     S
C158   C159    1.529   .     S
C158   H198    1.107   .     S
C159   H180    1.111   .     S
C159   C580    1.524   1_545 S
C159   H809    1.112   .     S
C160   H182    1.109   .     S
C160   H181    1.111   .     S
C160   C369    1.524   .     S
C160   H813    1.110   .     S
C161   O202    1.423   .     S
C161   H185    1.111   .     S
C161   C302    1.534   .     S
C161   H394    1.111   .     S
C162   C164    1.528   .     S
C162   C441    1.534   1_645 S
C162   H46     1.106   1_655 S
C162   H607    1.108   1_545 S
C163   H194    1.074   .     S
C163   C166    1.385   .     A
C164   H191    1.110   .     S
C164   H190    1.109   .     S
C164   H189    1.111   .     S
C165   C167    1.393   .     A
C165   H195    1.079   .     S
C166   C784    1.392   1_554 S
C167   H188    1.083   .     S
C167   C785    1.400   .     S
C168   C379    1.351   .     S
C168   Cl383   1.778   .     S
C169   C588    1.351   1_545 S
C169   Cl594   1.777   1_545 S
C170   O206    1.295   .     A
C170   O208    1.301   .     A
Cl172  C7      1.772   1_655 S
Cl173  C588    1.778   1_545 S
Cl174  C379    1.777   .     S
Cu175  Cu176   2.676   .     S
Cu175  O201    1.977   .     S
Cu175  O205    1.972   .     S
Cu175  O209    1.922   .     S
Cu175  O206    1.942   .     S
Cu175  N200    2.011   .     S
Cu176  O208    1.922   .     S
Cu176  N199    2.011   .     S
Cu176  O207    1.942   .     S
Cu176  O203    1.977   .     S
Cu176  O204    1.972   .     S
H177   C26     1.081   1_655 S
H179   C789    1.112   1_554 S
H183   C790    1.110   1_554 S
H184   C581    1.111   1_545 S
H187   C372    1.108   .     S
H197   N60     1.029   1_655 S
N199   H56     1.029   1_655 S
N199   N60     1.278   1_655 S
O210   C5      1.386   1_655 S
C211   C238    1.432   .     S
C211   O274    1.288   .     A
C211   O271    1.283   .     A
C212   O279    1.297   .     A
C212   C214    1.476   .     S
C212   O277    1.297   .     A
C213   C240    1.481   .     S
C213   C219    1.404   .     A
C213   C217    1.416   .     A
C214   C218    1.408   .     A
C214   C220    1.398   .     A
C215   C224    1.411   .     A
C215   C217    1.403   .     A
C215   O420    1.386   1_455 S
C216   C218    1.409   .     A
C216   C225    1.415   .     A
C216   O342    1.388   .     S
C217   Cl382   1.772   1_455 S
C218   Cl311   1.773   .     S
C219   C221    1.404   .     A
C219   H263    1.078   .     S
C220   H262    1.078   .     S
C220   C223    1.405   .     A
C221   C224    1.417   .     A
C221   C226    1.430   .     A
C222   C239    1.432   .     S
C222   O275    1.289   .     A
C222   O273    1.283   .     A
C223   C227    1.426   .     A
C223   C225    1.416   .     A
C224   C866    1.392   .     S
C225   C867    1.400   1_554 S
C226   C235    1.413   .     A
C226   C857    1.421   .     S
C227   C233    1.410   .     A
C227   C856    1.421   1_554 S
C228   O280    1.412   .     S
C228   H248    1.113   .     S
C228   C229    1.529   .     S
C228   H268    1.107   .     S
C229   H250    1.111   .     S
C229   H879    1.112   .     S
C230   H252    1.109   .     S
C230   H251    1.111   .     S
C230   C439    1.524   .     S
C230   H883    1.110   .     S
C231   O272    1.423   .     S
C231   H255    1.111   .     S
C231   C582    1.534   1_455 S
C231   H464    1.111   .     S
C232   C234    1.528   .     S
C232   H326    1.106   .     S
C233   H264    1.074   .     S
C233   C236    1.385   .     A
C234   H261    1.110   .     S
C234   H260    1.109   .     S
C234   H259    1.111   .     S
C235   C237    1.393   .     A
C235   H265    1.079   .     S
C236   C854    1.392   1_554 S
C236   H387    1.081   1_455 S
C237   H258    1.083   .     S
C237   C855    1.400   .     S
C238   C449    1.351   .     S
C238   Cl453   1.778   .     S
C240   O276    1.295   .     A
C240   O278    1.301   .     A
Cl241  C358    1.773   1_455 S
Cl242  C287    1.772   .     S
Cl244  C449    1.777   .     S
Cu245  Cu246   2.676   .     S
Cu245  O271    1.977   .     S
Cu245  O275    1.972   .     S
Cu245  O279    1.922   .     S
Cu245  O276    1.942   .     S
Cu245  N270    2.011   .     S
Cu246  O278    1.922   .     S
Cu246  N269    2.011   .     S
Cu246  O277    1.942   .     S
Cu246  O273    1.977   .     S
Cu246  O274    1.972   .     S
H247   C306    1.081   .     S
H249   C859    1.112   1_554 S
H253   C860    1.110   1_554 S
H256   C372    1.106   1_455 S
H257   C442    1.108   .     S
H266   N409    1.029   1_455 S
H267   N340    1.029   .     S
N269   H336    1.029   .     S
N269   N340    1.278   .     S
N270   H407    1.029   1_455 S
N270   N409    1.278   1_455 S
O272   C356    1.388   1_455 S
O280   C285    1.386   .     S
C281   C308    1.432   .     S
C281   O344    1.288   .     A
C281   O341    1.283   .     A
C282   O349    1.297   .     A
C282   C284    1.476   .     S
C282   O347    1.297   .     A
C283   C310    1.481   .     S
C283   C289    1.404   .     A
C283   C287    1.416   .     A
C284   C288    1.408   .     A
C284   C290    1.398   .     A
C285   C294    1.411   .     A
C285   C287    1.403   .     A
C286   C288    1.409   .     A
C286   C295    1.415   .     A
C286   O412    1.388   .     S
C288   Cl381   1.773   .     S
C289   C291    1.404   .     A
C289   H333    1.078   .     S
C290   H332    1.078   .     S
C290   C293    1.405   .     A
C291   C294    1.417   .     A
C291   C296    1.430   .     A
C292   C309    1.432   .     S
C292   O345    1.289   .     A
C292   O343    1.283   .     A
C293   C297    1.426   .     A
C293   C295    1.416   .     A
C294   C936    1.392   .     S
C295   C937    1.400   1_554 S
C296   C305    1.413   .     A
C296   C927    1.421   .     S
C297   C303    1.410   .     A
C297   C926    1.421   1_554 S
C298   O350    1.412   .     S
C298   H318    1.113   .     S
C298   C299    1.529   .     S
C298   H338    1.107   .     S
C299   H320    1.111   .     S
C299   H949    1.112   .     S
C300   H322    1.109   .     S
C300   H321    1.111   .     S
C300   C509    1.524   .     S
C300   H953    1.110   .     S
C301   O342    1.423   .     S
C301   H325    1.111   .     S
C301   C442    1.534   .     S
C301   H534    1.111   .     S
C302   C304    1.528   .     S
C302   H396    1.106   .     S
C303   H334    1.074   .     S
C303   C306    1.385   .     A
C304   H331    1.110   .     S
C304   H330    1.109   .     S
C304   H329    1.111   .     S
C305   C307    1.393   .     A
C305   H335    1.079   .     S
C306   C924    1.392   1_554 S
C307   H328    1.083   .     S
C307   C925    1.400   .     S
C308   C519    1.351   .     S
C308   Cl523   1.778   .     S
C310   O346    1.295   .     A
C310   O348    1.301   .     A
Cl312  C357    1.772   .     S
Cl314  C519    1.777   .     S
Cu315  Cu316   2.676   .     S
Cu315  O341    1.977   .     S
Cu315  O345    1.972   .     S
Cu315  O349    1.922   .     S
Cu315  O346    1.942   .     S
Cu315  N340    2.011   .     S
Cu316  O348    1.922   .     S
Cu316  N339    2.011   .     S
Cu316  O347    1.942   .     S
Cu316  O343    1.977   .     S
Cu316  O344    1.972   .     S
H317   C376    1.081   .     S
H319   C929    1.112   1_554 S
H323   C930    1.110   1_554 S
H327   C512    1.108   .     S
H337   N410    1.029   .     S
N339   H406    1.029   .     S
N339   N410    1.278   .     S
O350   C355    1.386   .     S
C351   C378    1.432   .     S
C351   O414    1.288   .     A
C351   O411    1.283   .     A
C352   O419    1.297   .     A
C352   C354    1.476   .     S
C352   O417    1.297   .     A
C353   C380    1.481   .     S
C353   C359    1.404   .     A
C353   C357    1.416   .     A
C354   C358    1.408   .     A
C354   C360    1.398   .     A
C355   C364    1.411   .     A
C355   C357    1.403   .     A
C356   C358    1.409   .     A
C356   C365    1.415   .     A
C356   O272    1.388   1_655 S
C358   Cl241   1.773   1_655 S
C359   C361    1.404   .     A
C359   H403    1.078   .     S
C360   H402    1.078   .     S
C360   C363    1.405   .     A
C361   C364    1.417   .     A
C361   C366    1.430   .     A
C362   C379    1.432   .     S
C362   O415    1.289   .     A
C362   O413    1.283   .     A
C363   C367    1.426   .     A
C363   C365    1.416   .     A
C364   C1006   1.392   .     S
C365   C1007   1.400   1_554 S
C366   C375    1.413   .     A
C366   C997    1.421   .     S
C367   C373    1.410   .     A
C367   C996    1.421   1_554 S
C368   O420    1.412   .     S
C368   H388    1.113   .     S
C368   C369    1.529   .     S
C368   H408    1.107   .     S
C369   H390    1.111   .     S
C369   H1019   1.112   .     S
C370   H392    1.109   .     S
C370   H391    1.111   .     S
C370   C579    1.524   .     S
C370   H1023   1.110   .     S
C371   O412    1.423   .     S
C371   H395    1.111   .     S
C371   C512    1.534   .     S
C371   H604    1.111   .     S
C372   C374    1.528   .     S
C372   C21     1.534   1_655 S
C372   H256    1.106   1_655 S
C373   H404    1.074   .     S
C373   C376    1.385   .     A
C374   H401    1.110   .     S
C374   H400    1.109   .     S
C374   H399    1.111   .     S
C375   C377    1.393   .     A
C375   H405    1.079   .     S
C376   C994    1.392   1_554 S
C377   H398    1.083   .     S
C377   C995    1.400   .     S
C378   C589    1.351   .     S
C378   Cl593   1.778   .     S
C380   O416    1.295   .     A
C380   O418    1.301   .     A
Cl382  C217    1.772   1_655 S
Cl384  C589    1.777   .     S
Cu385  Cu386   2.676   .     S
Cu385  O411    1.977   .     S
Cu385  O415    1.972   .     S
Cu385  O419    1.922   .     S
Cu385  O416    1.942   .     S
Cu385  N410    2.011   .     S
Cu386  O418    1.922   .     S
Cu386  N409    2.011   .     S
Cu386  O417    1.942   .     S
Cu386  O413    1.977   .     S
Cu386  O414    1.972   .     S
H387   C236    1.081   1_655 S
H389   C999    1.112   1_554 S
H393   C1000   1.110   1_554 S
H397   C582    1.108   .     S
H407   N270    1.029   1_655 S
N409   H266    1.029   1_655 S
N409   N270    1.278   1_655 S
O420   C215    1.386   1_655 S
C421   C448    1.432   .     S
C421   O484    1.288   .     A
C421   O481    1.283   .     A
C422   O489    1.297   .     A
C422   C424    1.476   .     S
C422   O487    1.297   .     A
C423   C450    1.481   .     S
C423   C429    1.404   .     A
C423   C427    1.416   .     A
C424   C428    1.408   .     A
C424   C430    1.398   .     A
C425   C434    1.411   .     A
C425   C427    1.403   .     A
C425   O630    1.386   1_455 S
C426   C428    1.409   .     A
C426   C435    1.415   .     A
C426   O552    1.388   .     S
C427   Cl592   1.772   1_455 S
C428   Cl521   1.773   .     S
C429   C431    1.404   .     A
C429   H473    1.078   .     S
C430   H472    1.078   .     S
C430   C433    1.405   .     A
C431   C434    1.417   .     A
C431   C436    1.430   .     A
C432   C449    1.432   .     S
C432   O485    1.289   .     A
C432   O483    1.283   .     A
C433   C437    1.426   .     A
C433   C435    1.416   .     A
C434   C1076   1.392   .     S
C435   C1077   1.400   1_554 S
C436   C445    1.413   .     A
C436   C1067   1.421   .     S
C437   C443    1.410   .     A
C437   C1066   1.421   1_554 S
C438   O490    1.412   .     S
C438   H458    1.113   .     S
C438   C439    1.529   .     S
C438   H478    1.107   .     S
C439   H460    1.111   .     S
C439   H1089   1.112   .     S
C440   H462    1.109   .     S
C440   H461    1.111   .     S
C440   C19     1.524   1_565 S
C440   H1093   1.110   .     S
C441   O482    1.423   .     S
C441   H465    1.111   .     S
C441   C162    1.534   1_465 S
C441   H44     1.111   1_565 S
C442   C444    1.528   .     S
C442   H536    1.106   .     S
C443   H474    1.074   .     S
C443   C446    1.385   .     A
C444   H471    1.110   .     S
C444   H470    1.109   .     S
C444   H469    1.111   .     S
C445   C447    1.393   .     A
C445   H475    1.079   .     S
C446   C1064   1.392   1_554 S
C446   H597    1.081   1_455 S
C447   H468    1.083   .     S
C447   C1065   1.400   .     S
C448   C29     1.351   1_565 S
C448   Cl33    1.778   1_565 S
C450   O486    1.295   .     A
C450   O488    1.301   .     A
Cl451  C568    1.773   1_455 S
Cl452  C497    1.772   .     S
Cl454  C29     1.777   1_565 S
Cu455  Cu456   2.676   .     S
Cu455  O481    1.977   .     S
Cu455  O485    1.972   .     S
Cu455  O489    1.922   .     S
Cu455  O486    1.942   .     S
Cu455  N480    2.011   .     S
Cu456  O488    1.922   .     S
Cu456  N479    2.011   .     S
Cu456  O487    1.942   .     S
Cu456  O483    1.977   .     S
Cu456  O484    1.972   .     S
H457   C516    1.081   .     S
H459   C1069   1.112   1_554 S
H463   C1070   1.110   1_554 S
H466   C582    1.106   1_455 S
H467   C22     1.108   1_565 S
H476   N619    1.029   1_455 S
H477   N550    1.029   .     S
N479   H546    1.029   .     S
N479   N550    1.278   .     S
N480   H617    1.029   1_455 S
N480   N619    1.278   1_455 S
O482   C566    1.388   1_455 S
O490   C495    1.386   .     S
C491   C518    1.432   .     S
C491   O554    1.288   .     A
C491   O551    1.283   .     A
C492   O559    1.297   .     A
C492   C494    1.476   .     S
C492   O557    1.297   .     A
C493   C520    1.481   .     S
C493   C499    1.404   .     A
C493   C497    1.416   .     A
C494   C498    1.408   .     A
C494   C500    1.398   .     A
C495   C504    1.411   .     A
C495   C497    1.403   .     A
C496   C498    1.409   .     A
C496   C505    1.415   .     A
C496   O622    1.388   .     S
C498   Cl591   1.773   .     S
C499   C501    1.404   .     A
C499   H543    1.078   .     S
C500   H542    1.078   .     S
C500   C503    1.405   .     A
C501   C504    1.417   .     A
C501   C506    1.430   .     A
C502   C519    1.432   .     S
C502   O555    1.289   .     A
C502   O553    1.283   .     A
C503   C507    1.426   .     A
C503   C505    1.416   .     A
C504   C1146   1.392   .     S
C505   C1147   1.400   1_554 S
C506   C515    1.413   .     A
C506   C1137   1.421   .     S
C507   C513    1.410   .     A
C507   C1136   1.421   1_554 S
C508   O560    1.412   .     S
C508   H528    1.113   .     S
C508   C509    1.529   .     S
C508   H548    1.107   .     S
C509   H530    1.111   .     S
C509   H1159   1.112   .     S
C510   H532    1.109   .     S
C510   H531    1.111   .     S
C510   C89     1.524   1_565 S
C510   H1163   1.110   .     S
C511   O552    1.423   .     S
C511   H535    1.111   .     S
C511   C22     1.534   1_565 S
C511   H114    1.111   1_565 S
C512   C514    1.528   .     S
C512   H606    1.106   .     S
C513   H544    1.074   .     S
C513   C516    1.385   .     A
C514   H541    1.110   .     S
C514   H540    1.109   .     S
C514   H539    1.111   .     S
C515   C517    1.393   .     A
C515   H545    1.079   .     S
C516   C1134   1.392   1_554 S
C517   H538    1.083   .     S
C517   C1135   1.400   .     S
C518   C99     1.351   1_565 S
C518   Cl103   1.778   1_565 S
C520   O556    1.295   .     A
C520   O558    1.301   .     A
Cl522  C567    1.772   .     S
Cl524  C99     1.777   1_565 S
Cu525  Cu526   2.676   .     S
Cu525  O551    1.977   .     S
Cu525  O555    1.972   .     S
Cu525  O559    1.922   .     S
Cu525  O556    1.942   .     S
Cu525  N550    2.011   .     S
Cu526  O558    1.922   .     S
Cu526  N549    2.011   .     S
Cu526  O557    1.942   .     S
Cu526  O553    1.977   .     S
Cu526  O554    1.972   .     S
H527   C586    1.081   .     S
H529   C1139   1.112   1_554 S
H533   C1140   1.110   1_554 S
H537   C92     1.108   1_565 S
H547   N620    1.029   .     S
N549   H616    1.029   .     S
N549   N620    1.278   .     S
O560   C565    1.386   .     S
C561   C588    1.432   .     S
C561   O624    1.288   .     A
C561   O621    1.283   .     A
C562   O629    1.297   .     A
C562   C564    1.476   .     S
C562   O627    1.297   .     A
C563   C590    1.481   .     S
C563   C569    1.404   .     A
C563   C567    1.416   .     A
C564   C568    1.408   .     A
C564   C570    1.398   .     A
C565   C574    1.411   .     A
C565   C567    1.403   .     A
C566   C568    1.409   .     A
C566   C575    1.415   .     A
C566   O482    1.388   1_655 S
C568   Cl451   1.773   1_655 S
C569   C571    1.404   .     A
C569   H613    1.078   .     S
C570   H612    1.078   .     S
C570   C573    1.405   .     A
C571   C574    1.417   .     A
C571   C576    1.430   .     A
C572   C589    1.432   .     S
C572   O625    1.289   .     A
C572   O623    1.283   .     A
C573   C577    1.426   .     A
C573   C575    1.416   .     A
C574   C1216   1.392   .     S
C575   C1217   1.400   1_554 S
C576   C585    1.413   .     A
C576   C1207   1.421   .     S
C577   C583    1.410   .     A
C577   C1206   1.421   1_554 S
C578   O630    1.412   .     S
C578   H598    1.113   .     S
C578   C579    1.529   .     S
C578   H618    1.107   .     S
C579   H600    1.111   .     S
C579   H1229   1.112   .     S
C580   H602    1.109   .     S
C580   H601    1.111   .     S
C580   C159    1.524   1_565 S
C580   H1233   1.110   .     S
C581   O622    1.423   .     S
C581   H605    1.111   .     S
C581   C92     1.534   1_565 S
C581   H184    1.111   1_565 S
C582   C584    1.528   .     S
C582   C231    1.534   1_655 S
C582   H466    1.106   1_655 S
C583   H614    1.074   .     S
C583   C586    1.385   .     A
C584   H611    1.110   .     S
C584   H610    1.109   .     S
C584   H609    1.111   .     S
C585   C587    1.393   .     A
C585   H615    1.079   .     S
C586   C1204   1.392   1_554 S
C587   H608    1.083   .     S
C587   C1205   1.400   .     S
C588   C169    1.351   1_565 S
C588   Cl173   1.778   1_565 S
C590   O626    1.295   .     A
C590   O628    1.301   .     A
Cl592  C427    1.772   1_655 S
Cl594  C169    1.777   1_565 S
Cu595  Cu596   2.676   .     S
Cu595  O621    1.977   .     S
Cu595  O625    1.972   .     S
Cu595  O629    1.922   .     S
Cu595  O626    1.942   .     S
Cu595  N620    2.011   .     S
Cu596  O628    1.922   .     S
Cu596  N619    2.011   .     S
Cu596  O627    1.942   .     S
Cu596  O623    1.977   .     S
Cu596  O624    1.972   .     S
H597   C446    1.081   1_655 S
H599   C1209   1.112   1_554 S
H603   C1210   1.110   1_554 S
H607   C162    1.108   1_565 S
H617   N480    1.029   1_655 S
N619   H476    1.029   1_655 S
N619   N480    1.278   1_655 S
O630   C425    1.386   1_655 S
C631   C658    1.432   .     S
C631   O694    1.288   .     A
C631   O691    1.283   .     A
C632   O699    1.297   .     A
C632   C634    1.476   .     S
C632   O697    1.297   .     A
C633   C660    1.481   .     S
C633   C639    1.404   .     A
C633   C637    1.416   .     A
C634   C638    1.408   .     A
C634   C640    1.398   .     A
C635   C644    1.411   .     A
C635   C637    1.403   .     A
C635   O840    1.386   1_455 S
C636   C638    1.409   .     A
C636   C645    1.415   .     A
C636   O762    1.388   .     S
C637   Cl802   1.772   1_455 S
C638   Cl731   1.773   .     S
C639   C641    1.404   .     A
C639   H683    1.078   .     S
C640   H682    1.078   .     S
C640   C643    1.405   .     A
C641   C644    1.417   .     A
C641   C646    1.430   .     A
C642   C659    1.432   .     S
C642   O695    1.289   .     A
C642   O693    1.283   .     A
C643   C647    1.426   .     A
C643   C645    1.416   .     A
C644   C26     1.392   1_556 S
C646   C655    1.413   .     A
C646   C17     1.421   1_556 S
C647   C653    1.410   .     A
C648   O700    1.412   .     S
C648   H668    1.113   .     S
C648   C649    1.529   .     S
C648   H688    1.107   .     S
C649   H670    1.111   .     S
C649   C1070   1.524   1_545 S
C649   H39     1.112   1_556 S
C650   H672    1.109   .     S
C650   H671    1.111   .     S
C650   C859    1.524   .     S
C650   H43     1.110   1_556 S
C651   O692    1.423   .     S
C651   H675    1.111   .     S
C651   C1002   1.534   1_455 S
C651   H884    1.111   .     S
C652   C654    1.528   .     S
C652   C1141   1.534   1_545 S
C652   H746    1.106   .     S
C652   H1097   1.108   1_545 S
C653   H684    1.074   .     S
C653   C656    1.385   .     A
C654   H681    1.110   .     S
C654   H680    1.109   .     S
C654   H679    1.111   .     S
C655   C657    1.393   .     A
C655   H685    1.079   .     S
C656   H807    1.081   1_455 S
C657   H678    1.083   .     S
C657   C15     1.400   1_556 S
C658   C869    1.351   .     S
C658   Cl873   1.778   .     S
C659   C1078   1.351   1_545 S
C659   Cl1084  1.777   1_545 S
C660   O696    1.295   .     A
C660   O698    1.301   .     A
Cl661  C778    1.773   1_455 S
Cl662  C707    1.772   .     S
Cl663  C1078   1.778   1_545 S
Cl664  C869    1.777   .     S
Cu665  Cu666   2.676   .     S
Cu665  O691    1.977   .     S
Cu665  O695    1.972   .     S
Cu665  O699    1.922   .     S
Cu665  O696    1.942   .     S
Cu665  N690    2.011   .     S
Cu666  O698    1.922   .     S
Cu666  N689    2.011   .     S
Cu666  O697    1.942   .     S
Cu666  O693    1.977   .     S
Cu666  O694    1.972   .     S
H667   C726    1.081   .     S
H674   C1071   1.111   1_545 S
H676   C792    1.106   1_455 S
H677   C862    1.108   .     S
H686   N829    1.029   1_455 S
H687   N760    1.029   .     S
N689   H756    1.029   .     S
N689   N760    1.278   .     S
N690   H827    1.029   1_455 S
N690   N829    1.278   1_455 S
O692   C776    1.388   1_455 S
O700   C705    1.386   .     S
C701   C728    1.432   .     S
C701   O764    1.288   .     A
C701   O761    1.283   .     A
C702   O769    1.297   .     A
C702   C704    1.476   .     S
C702   O767    1.297   .     A
C703   C730    1.481   .     S
C703   C709    1.404   .     A
C703   C707    1.416   .     A
C704   C708    1.408   .     A
C704   C710    1.398   .     A
C705   C714    1.411   .     A
C705   C707    1.403   .     A
C706   C708    1.409   .     A
C706   C715    1.415   .     A
C706   O832    1.388   .     S
C708   Cl801   1.773   .     S
C709   C711    1.404   .     A
C709   H753    1.078   .     S
C710   H752    1.078   .     S
C710   C713    1.405   .     A
C711   C714    1.417   .     A
C711   C716    1.430   .     A
C712   C729    1.432   .     S
C712   O765    1.289   .     A
C712   O763    1.283   .     A
C713   C717    1.426   .     A
C713   C715    1.416   .     A
C714   C96     1.392   1_556 S
C716   C725    1.413   .     A
C716   C87     1.421   1_556 S
C717   C723    1.410   .     A
C718   O770    1.412   .     S
C718   H738    1.113   .     S
C718   C719    1.529   .     S
C718   H758    1.107   .     S
C719   H740    1.111   .     S
C719   C1140   1.524   1_545 S
C719   H109    1.112   1_556 S
C720   H742    1.109   .     S
C720   H741    1.111   .     S
C720   C929    1.524   .     S
C720   H113    1.110   1_556 S
C721   O762    1.423   .     S
C721   H745    1.111   .     S
C721   C862    1.534   .     S
C721   H954    1.111   .     S
C722   C724    1.528   .     S
C722   C1211   1.534   1_545 S
C722   H816    1.106   .     S
C722   H1167   1.108   1_545 S
C723   H754    1.074   .     S
C723   C726    1.385   .     A
C724   H751    1.110   .     S
C724   H750    1.109   .     S
C724   H749    1.111   .     S
C725   C727    1.393   .     A
C725   H755    1.079   .     S
C727   H748    1.083   .     S
C727   C85     1.400   1_556 S
C728   C939    1.351   .     S
C728   Cl943   1.778   .     S
C729   C1148   1.351   1_545 S
C729   Cl1154  1.777   1_545 S
C730   O766    1.295   .     A
C730   O768    1.301   .     A
Cl732  C777    1.772   .     S
Cl733  C1148   1.778   1_545 S
Cl734  C939    1.777   .     S
Cu735  Cu736   2.676   .     S
Cu735  O761    1.977   .     S
Cu735  O765    1.972   .     S
Cu735  O769    1.922   .     S
Cu735  O766    1.942   .     S
Cu735  N760    2.011   .     S
Cu736  O768    1.922   .     S
Cu736  N759    2.011   .     S
Cu736  O767    1.942   .     S
Cu736  O763    1.977   .     S
Cu736  O764    1.972   .     S
H737   C796    1.081   .     S
H744   C1141   1.111   1_545 S
H747   C932    1.108   .     S
H757   N830    1.029   .     S
N759   H826    1.029   .     S
N759   N830    1.278   .     S
O770   C775    1.386   .     S
C771   C798    1.432   .     S
C771   O834    1.288   .     A
C771   O831    1.283   .     A
C772   O839    1.297   .     A
C772   C774    1.476   .     S
C772   O837    1.297   .     A
C773   C800    1.481   .     S
C773   C779    1.404   .     A
C773   C777    1.416   .     A
C774   C778    1.408   .     A
C774   C780    1.398   .     A
C775   C784    1.411   .     A
C775   C777    1.403   .     A
C776   C778    1.409   .     A
C776   C785    1.415   .     A
C776   O692    1.388   1_655 S
C778   Cl661   1.773   1_655 S
C779   C781    1.404   .     A
C779   H823    1.078   .     S
C780   H822    1.078   .     S
C780   C783    1.405   .     A
C781   C784    1.417   .     A
C781   C786    1.430   .     A
C782   C799    1.432   .     S
C782   O835    1.289   .     A
C782   O833    1.283   .     A
C783   C787    1.426   .     A
C783   C785    1.416   .     A
C784   C166    1.392   1_556 S
C786   C795    1.413   .     A
C786   C157    1.421   1_556 S
C787   C793    1.410   .     A
C788   O840    1.412   .     S
C788   H808    1.113   .     S
C788   C789    1.529   .     S
C788   H828    1.107   .     S
C789   H810    1.111   .     S
C789   C1210   1.524   1_545 S
C789   H179    1.112   1_556 S
C790   H812    1.109   .     S
C790   H811    1.111   .     S
C790   C999    1.524   .     S
C790   H183    1.110   1_556 S
C791   O832    1.423   .     S
C791   H815    1.111   .     S
C791   C932    1.534   .     S
C791   H1024   1.111   .     S
C792   C794    1.528   .     S
C792   C1071   1.534   1_645 S
C792   H676    1.106   1_655 S
C792   H1237   1.108   1_545 S
C793   H824    1.074   .     S
C793   C796    1.385   .     A
C794   H821    1.110   .     S
C794   H820    1.109   .     S
C794   H819    1.111   .     S
C795   C797    1.393   .     A
C795   H825    1.079   .     S
C797   H818    1.083   .     S
C797   C155    1.400   1_556 S
C798   C1009   1.351   .     S
C798   Cl1013  1.778   .     S
C799   C1218   1.351   1_545 S
C799   Cl1224  1.777   1_545 S
C800   O836    1.295   .     A
C800   O838    1.301   .     A
Cl802  C637    1.772   1_655 S
Cl803  C1218   1.778   1_545 S
Cl804  C1009   1.777   .     S
Cu805  Cu806   2.676   .     S
Cu805  O831    1.977   .     S
Cu805  O835    1.972   .     S
Cu805  O839    1.922   .     S
Cu805  O836    1.942   .     S
Cu805  N830    2.011   .     S
Cu806  O838    1.922   .     S
Cu806  N829    2.011   .     S
Cu806  O837    1.942   .     S
Cu806  O833    1.977   .     S
Cu806  O834    1.972   .     S
H807   C656    1.081   1_655 S
H814   C1211   1.111   1_545 S
H817   C1002   1.108   .     S
H827   N690    1.029   1_655 S
N829   H686    1.029   1_655 S
N829   N690    1.278   1_655 S
O840   C635    1.386   1_655 S
C841   C868    1.432   .     S
C841   O904    1.288   .     A
C841   O901    1.283   .     A
C842   O909    1.297   .     A
C842   C844    1.476   .     S
C842   O907    1.297   .     A
C843   C870    1.481   .     S
C843   C849    1.404   .     A
C843   C847    1.416   .     A
C844   C848    1.408   .     A
C844   C850    1.398   .     A
C845   C854    1.411   .     A
C845   C847    1.403   .     A
C845   O1050   1.386   1_455 S
C846   C848    1.409   .     A
C846   C855    1.415   .     A
C846   O972    1.388   .     S
C847   Cl1012  1.772   1_455 S
C848   Cl941   1.773   .     S
C849   C851    1.404   .     A
C849   H893    1.078   .     S
C850   H892    1.078   .     S
C850   C853    1.405   .     A
C851   C854    1.417   .     A
C851   C856    1.430   .     A
C852   C869    1.432   .     S
C852   O905    1.289   .     A
C852   O903    1.283   .     A
C853   C857    1.426   .     A
C853   C855    1.416   .     A
C854   C236    1.392   1_556 S
C856   C865    1.413   .     A
C856   C227    1.421   1_556 S
C857   C863    1.410   .     A
C858   O910    1.412   .     S
C858   H878    1.113   .     S
C858   C859    1.529   .     S
C858   H898    1.107   .     S
C859   H880    1.111   .     S
C859   H249    1.112   1_556 S
C860   H882    1.109   .     S
C860   H881    1.111   .     S
C860   C1069   1.524   .     S
C860   H253    1.110   1_556 S
C861   O902    1.423   .     S
C861   H885    1.111   .     S
C861   C1212   1.534   1_455 S
C861   H1094   1.111   .     S
C862   C864    1.528   .     S
C862   H956    1.106   .     S
C863   H894    1.074   .     S
C863   C866    1.385   .     A
C864   H891    1.110   .     S
C864   H890    1.109   .     S
C864   H889    1.111   .     S
C865   C867    1.393   .     A
C865   H895    1.079   .     S
C866   H1017   1.081   1_455 S
C867   H888    1.083   .     S
C867   C225    1.400   1_556 S
C868   C1079   1.351   .     S
C868   Cl1083  1.778   .     S
C870   O906    1.295   .     A
C870   O908    1.301   .     A
Cl871  C988    1.773   1_455 S
Cl872  C917    1.772   .     S
Cl874  C1079   1.777   .     S
Cu875  Cu876   2.676   .     S
Cu875  O901    1.977   .     S
Cu875  O905    1.972   .     S
Cu875  O909    1.922   .     S
Cu875  O906    1.942   .     S
Cu875  N900    2.011   .     S
Cu876  O908    1.922   .     S
Cu876  N899    2.011   .     S
Cu876  O907    1.942   .     S
Cu876  O903    1.977   .     S
Cu876  O904    1.972   .     S
H877   C936    1.081   .     S
H886   C1002   1.106   1_455 S
H887   C1072   1.108   .     S
H896   N1039   1.029   1_455 S
H897   N970    1.029   .     S
N899   H966    1.029   .     S
N899   N970    1.278   .     S
N900   H1037   1.029   1_455 S
N900   N1039   1.278   1_455 S
O902   C986    1.388   1_455 S
O910   C915    1.386   .     S
C911   C938    1.432   .     S
C911   O974    1.288   .     A
C911   O971    1.283   .     A
C912   O979    1.297   .     A
C912   C914    1.476   .     S
C912   O977    1.297   .     A
C913   C940    1.481   .     S
C913   C919    1.404   .     A
C913   C917    1.416   .     A
C914   C918    1.408   .     A
C914   C920    1.398   .     A
C915   C924    1.411   .     A
C915   C917    1.403   .     A
C916   C918    1.409   .     A
C916   C925    1.415   .     A
C916   O1042   1.388   .     S
C918   Cl1011  1.773   .     S
C919   C921    1.404   .     A
C919   H963    1.078   .     S
C920   H962    1.078   .     S
C920   C923    1.405   .     A
C921   C924    1.417   .     A
C921   C926    1.430   .     A
C922   C939    1.432   .     S
C922   O975    1.289   .     A
C922   O973    1.283   .     A
C923   C927    1.426   .     A
C923   C925    1.416   .     A
C924   C306    1.392   1_556 S
C926   C935    1.413   .     A
C926   C297    1.421   1_556 S
C927   C933    1.410   .     A
C928   O980    1.412   .     S
C928   H948    1.113   .     S
C928   C929    1.529   .     S
C928   H968    1.107   .     S
C929   H950    1.111   .     S
C929   H319    1.112   1_556 S
C930   H952    1.109   .     S
C930   H951    1.111   .     S
C930   C1139   1.524   .     S
C930   H323    1.110   1_556 S
C931   O972    1.423   .     S
C931   H955    1.111   .     S
C931   C1072   1.534   .     S
C931   H1164   1.111   .     S
C932   C934    1.528   .     S
C932   H1026   1.106   .     S
C933   H964    1.074   .     S
C933   C936    1.385   .     A
C934   H961    1.110   .     S
C934   H960    1.109   .     S
C934   H959    1.111   .     S
C935   C937    1.393   .     A
C935   H965    1.079   .     S
C937   H958    1.083   .     S
C937   C295    1.400   1_556 S
C938   C1149   1.351   .     S
C938   Cl1153  1.778   .     S
C940   O976    1.295   .     A
C940   O978    1.301   .     A
Cl942  C987    1.772   .     S
Cl944  C1149   1.777   .     S
Cu945  Cu946   2.676   .     S
Cu945  O971    1.977   .     S
Cu945  O975    1.972   .     S
Cu945  O979    1.922   .     S
Cu945  O976    1.942   .     S
Cu945  N970    2.011   .     S
Cu946  O978    1.922   .     S
Cu946  N969    2.011   .     S
Cu946  O977    1.942   .     S
Cu946  O973    1.977   .     S
Cu946  O974    1.972   .     S
H947   C1006   1.081   .     S
H957   C1142   1.108   .     S
H967   N1040   1.029   .     S
N969   H1036   1.029   .     S
N969   N1040   1.278   .     S
O980   C985    1.386   .     S
C981   C1008   1.432   .     S
C981   O1044   1.288   .     A
C981   O1041   1.283   .     A
C982   O1049   1.297   .     A
C982   C984    1.476   .     S
C982   O1047   1.297   .     A
C983   C1010   1.481   .     S
C983   C989    1.404   .     A
C983   C987    1.416   .     A
C984   C988    1.408   .     A
C984   C990    1.398   .     A
C985   C994    1.411   .     A
C985   C987    1.403   .     A
C986   C988    1.409   .     A
C986   C995    1.415   .     A
C986   O902    1.388   1_655 S
C988   Cl871   1.773   1_655 S
C989   C991    1.404   .     A
C989   H1033   1.078   .     S
C990   H1032   1.078   .     S
C990   C993    1.405   .     A
C991   C994    1.417   .     A
C991   C996    1.430   .     A
C992   C1009   1.432   .     S
C992   O1045   1.289   .     A
C992   O1043   1.283   .     A
C993   C997    1.426   .     A
C993   C995    1.416   .     A
C994   C376    1.392   1_556 S
C996   C1005   1.413   .     A
C996   C367    1.421   1_556 S
C997   C1003   1.410   .     A
C998   O1050   1.412   .     S
C998   H1018   1.113   .     S
C998   C999    1.529   .     S
C998   H1038   1.107   .     S
C999   H1020   1.111   .     S
C999   H389    1.112   1_556 S
C1000  H1022   1.109   .     S
C1000  H1021   1.111   .     S
C1000  C1209   1.524   .     S
C1000  H393    1.110   1_556 S
C1001  O1042   1.423   .     S
C1001  H1025   1.111   .     S
C1001  C1142   1.534   .     S
C1001  H1234   1.111   .     S
C1002  C1004   1.528   .     S
C1002  C651    1.534   1_655 S
C1002  H886    1.106   1_655 S
C1003  H1034   1.074   .     S
C1003  C1006   1.385   .     A
C1004  H1031   1.110   .     S
C1004  H1030   1.109   .     S
C1004  H1029   1.111   .     S
C1005  C1007   1.393   .     A
C1005  H1035   1.079   .     S
C1007  H1028   1.083   .     S
C1007  C365    1.400   1_556 S
C1008  C1219   1.351   .     S
C1008  Cl1223  1.778   .     S
C1010  O1046   1.295   .     A
C1010  O1048   1.301   .     A
Cl1012 C847    1.772   1_655 S
Cl1014 C1219   1.777   .     S
Cu1015 Cu1016  2.676   .     S
Cu1015 O1041   1.977   .     S
Cu1015 O1045   1.972   .     S
Cu1015 O1049   1.922   .     S
Cu1015 O1046   1.942   .     S
Cu1015 N1040   2.011   .     S
Cu1016 O1048   1.922   .     S
Cu1016 N1039   2.011   .     S
Cu1016 O1047   1.942   .     S
Cu1016 O1043   1.977   .     S
Cu1016 O1044   1.972   .     S
H1017  C866    1.081   1_655 S
H1027  C1212   1.108   .     S
H1037  N900    1.029   1_655 S
N1039  H896    1.029   1_655 S
N1039  N900    1.278   1_655 S
O1050  C845    1.386   1_655 S
C1051  C1078   1.432   .     S
C1051  O1114   1.288   .     A
C1051  O1111   1.283   .     A
C1052  O1119   1.297   .     A
C1052  C1054   1.476   .     S
C1052  O1117   1.297   .     A
C1053  C1080   1.481   .     S
C1053  C1059   1.404   .     A
C1053  C1057   1.416   .     A
C1054  C1058   1.408   .     A
C1054  C1060   1.398   .     A
C1055  C1064   1.411   .     A
C1055  C1057   1.403   .     A
C1055  O1260   1.386   1_455 S
C1056  C1058   1.409   .     A
C1056  C1065   1.415   .     A
C1056  O1182   1.388   .     S
C1057  Cl1222  1.772   1_455 S
C1058  Cl1151  1.773   .     S
C1059  C1061   1.404   .     A
C1059  H1103   1.078   .     S
C1060  H1102   1.078   .     S
C1060  C1063   1.405   .     A
C1061  C1064   1.417   .     A
C1061  C1066   1.430   .     A
C1062  C1079   1.432   .     S
C1062  O1115   1.289   .     A
C1062  O1113   1.283   .     A
C1063  C1067   1.426   .     A
C1063  C1065   1.416   .     A
C1064  C446    1.392   1_556 S
C1066  C1075   1.413   .     A
C1066  C437    1.421   1_556 S
C1067  C1073   1.410   .     A
C1068  O1120   1.412   .     S
C1068  H1088   1.113   .     S
C1068  C1069   1.529   .     S
C1068  H1108   1.107   .     S
C1069  H1090   1.111   .     S
C1069  H459    1.112   1_556 S
C1070  H1092   1.109   .     S
C1070  H1091   1.111   .     S
C1070  C649    1.524   1_565 S
C1070  H463    1.110   1_556 S
C1071  O1112   1.423   .     S
C1071  H1095   1.111   .     S
C1071  C792    1.534   1_465 S
C1071  H674    1.111   1_565 S
C1072  C1074   1.528   .     S
C1072  H1166   1.106   .     S
C1073  H1104   1.074   .     S
C1073  C1076   1.385   .     A
C1074  H1101   1.110   .     S
C1074  H1100   1.109   .     S
C1074  H1099   1.111   .     S
C1075  C1077   1.393   .     A
C1075  H1105   1.079   .     S
C1076  H1227   1.081   1_455 S
C1077  H1098   1.083   .     S
C1077  C435    1.400   1_556 S
C1078  C659    1.351   1_565 S
C1078  Cl663   1.778   1_565 S
C1080  O1116   1.295   .     A
C1080  O1118   1.301   .     A
Cl1081 C1198   1.773   1_455 S
Cl1082 C1127   1.772   .     S
Cl1084 C659    1.777   1_565 S
Cu1085 Cu1086  2.676   .     S
Cu1085 O1111   1.977   .     S
Cu1085 O1115   1.972   .     S
Cu1085 O1119   1.922   .     S
Cu1085 O1116   1.942   .     S
Cu1085 N1110   2.011   .     S
Cu1086 O1118   1.922   .     S
Cu1086 N1109   2.011   .     S
Cu1086 O1117   1.942   .     S
Cu1086 O1113   1.977   .     S
Cu1086 O1114   1.972   .     S
H1087  C1146   1.081   .     S
H1096  C1212   1.106   1_455 S
H1097  C652    1.108   1_565 S
H1106  N1249   1.029   1_455 S
H1107  N1180   1.029   .     S
N1109  H1176   1.029   .     S
N1109  N1180   1.278   .     S
N1110  H1247   1.029   1_455 S
N1110  N1249   1.278   1_455 S
O1112  C1196   1.388   1_455 S
O1120  C1125   1.386   .     S
C1121  C1148   1.432   .     S
C1121  O1184   1.288   .     A
C1121  O1181   1.283   .     A
C1122  O1189   1.297   .     A
C1122  C1124   1.476   .     S
C1122  O1187   1.297   .     A
C1123  C1150   1.481   .     S
C1123  C1129   1.404   .     A
C1123  C1127   1.416   .     A
C1124  C1128   1.408   .     A
C1124  C1130   1.398   .     A
C1125  C1134   1.411   .     A
C1125  C1127   1.403   .     A
C1126  C1128   1.409   .     A
C1126  C1135   1.415   .     A
C1126  O1252   1.388   .     S
C1128  Cl1221  1.773   .     S
C1129  C1131   1.404   .     A
C1129  H1173   1.078   .     S
C1130  H1172   1.078   .     S
C1130  C1133   1.405   .     A
C1131  C1134   1.417   .     A
C1131  C1136   1.430   .     A
C1132  C1149   1.432   .     S
C1132  O1185   1.289   .     A
C1132  O1183   1.283   .     A
C1133  C1137   1.426   .     A
C1133  C1135   1.416   .     A
C1134  C516    1.392   1_556 S
C1136  C1145   1.413   .     A
C1136  C507    1.421   1_556 S
C1137  C1143   1.410   .     A
C1138  O1190   1.412   .     S
C1138  H1158   1.113   .     S
C1138  C1139   1.529   .     S
C1138  H1178   1.107   .     S
C1139  H1160   1.111   .     S
C1139  H529    1.112   1_556 S
C1140  H1162   1.109   .     S
C1140  H1161   1.111   .     S
C1140  C719    1.524   1_565 S
C1140  H533    1.110   1_556 S
C1141  O1182   1.423   .     S
C1141  H1165   1.111   .     S
C1141  C652    1.534   1_565 S
C1141  H744    1.111   1_565 S
C1142  C1144   1.528   .     S
C1142  H1236   1.106   .     S
C1143  H1174   1.074   .     S
C1143  C1146   1.385   .     A
C1144  H1171   1.110   .     S
C1144  H1170   1.109   .     S
C1144  H1169   1.111   .     S
C1145  C1147   1.393   .     A
C1145  H1175   1.079   .     S
C1147  H1168   1.083   .     S
C1147  C505    1.400   1_556 S
C1148  C729    1.351   1_565 S
C1148  Cl733   1.778   1_565 S
C1150  O1186   1.295   .     A
C1150  O1188   1.301   .     A
Cl1152 C1197   1.772   .     S
Cl1154 C729    1.777   1_565 S
Cu1155 Cu1156  2.676   .     S
Cu1155 O1181   1.977   .     S
Cu1155 O1185   1.972   .     S
Cu1155 O1189   1.922   .     S
Cu1155 O1186   1.942   .     S
Cu1155 N1180   2.011   .     S
Cu1156 O1188   1.922   .     S
Cu1156 N1179   2.011   .     S
Cu1156 O1187   1.942   .     S
Cu1156 O1183   1.977   .     S
Cu1156 O1184   1.972   .     S
H1157  C1216   1.081   .     S
H1167  C722    1.108   1_565 S
H1177  N1250   1.029   .     S
N1179  H1246   1.029   .     S
N1179  N1250   1.278   .     S
O1190  C1195   1.386   .     S
C1191  C1218   1.432   .     S
C1191  O1254   1.288   .     A
C1191  O1251   1.283   .     A
C1192  O1259   1.297   .     A
C1192  C1194   1.476   .     S
C1192  O1257   1.297   .     A
C1193  C1220   1.481   .     S
C1193  C1199   1.404   .     A
C1193  C1197   1.416   .     A
C1194  C1198   1.408   .     A
C1194  C1200   1.398   .     A
C1195  C1204   1.411   .     A
C1195  C1197   1.403   .     A
C1196  C1198   1.409   .     A
C1196  C1205   1.415   .     A
C1196  O1112   1.388   1_655 S
C1198  Cl1081  1.773   1_655 S
C1199  C1201   1.404   .     A
C1199  H1243   1.078   .     S
C1200  H1242   1.078   .     S
C1200  C1203   1.405   .     A
C1201  C1204   1.417   .     A
C1201  C1206   1.430   .     A
C1202  C1219   1.432   .     S
C1202  O1255   1.289   .     A
C1202  O1253   1.283   .     A
C1203  C1207   1.426   .     A
C1203  C1205   1.416   .     A
C1204  C586    1.392   1_556 S
C1206  C1215   1.413   .     A
C1206  C577    1.421   1_556 S
C1207  C1213   1.410   .     A
C1208  O1260   1.412   .     S
C1208  H1228   1.113   .     S
C1208  C1209   1.529   .     S
C1208  H1248   1.107   .     S
C1209  H1230   1.111   .     S
C1209  H599    1.112   1_556 S
C1210  H1232   1.109   .     S
C1210  H1231   1.111   .     S
C1210  C789    1.524   1_565 S
C1210  H603    1.110   1_556 S
C1211  O1252   1.423   .     S
C1211  H1235   1.111   .     S
C1211  C722    1.534   1_565 S
C1211  H814    1.111   1_565 S
C1212  C1214   1.528   .     S
C1212  C861    1.534   1_655 S
C1212  H1096   1.106   1_655 S
C1213  H1244   1.074   .     S
C1213  C1216   1.385   .     A
C1214  H1241   1.110   .     S
C1214  H1240   1.109   .     S
C1214  H1239   1.111   .     S
C1215  C1217   1.393   .     A
C1215  H1245   1.079   .     S
C1217  H1238   1.083   .     S
C1217  C575    1.400   1_556 S
C1218  C799    1.351   1_565 S
C1218  Cl803   1.778   1_565 S
C1220  O1256   1.295   .     A
C1220  O1258   1.301   .     A
Cl1222 C1057   1.772   1_655 S
Cl1224 C799    1.777   1_565 S
Cu1225 Cu1226  2.676   .     S
Cu1225 O1251   1.977   .     S
Cu1225 O1255   1.972   .     S
Cu1225 O1259   1.922   .     S
Cu1225 O1256   1.942   .     S
Cu1225 N1250   2.011   .     S
Cu1226 O1258   1.922   .     S
Cu1226 N1249   2.011   .     S
Cu1226 O1257   1.942   .     S
Cu1226 O1253   1.977   .     S
Cu1226 O1254   1.972   .     S
H1227  C1076   1.081   1_655 S
H1237  C792    1.108   1_565 S
H1247  N1110   1.029   1_655 S
N1249  H1106   1.029   1_655 S
N1249  N1110   1.278   1_655 S
O1260  C1055   1.386   1_655 S
