data_str_m2_o1_o18_pcu_sym.55
_audit_creation_date              2020-01-03
_audit_creation_method            'Materials Studio'
_symmetry_space_group_name_H-M    'P1'
_symmetry_Int_Tables_number       1
_symmetry_cell_setting            triclinic
loop_
_symmetry_equiv_pos_as_xyz
  x,y,z
_cell_length_a                    28.5356
_cell_length_b                    32.5024
_cell_length_c                    30.8561
_cell_angle_alpha                 89.8566
_cell_angle_beta                  74.9488
_cell_angle_gamma                 90.0007
loop_
_atom_site_label
_atom_site_type_symbol
_atom_site_fract_x
_atom_site_fract_y
_atom_site_fract_z
_atom_site_U_iso_or_equiv
_atom_site_adp_type
_atom_site_occupancy
C1     C     0.33331   0.08735   0.25003   0.00000  Uiso   1.00
C2     C     0.04255   0.02129   0.25012   0.00000  Uiso   1.00
C3     C     0.00001   0.29060   0.24998   0.00000  Uiso   1.00
C4     C     0.33332   0.04274   0.25004   0.00000  Uiso   1.00
C5     C     0.18312   0.14272   0.27960   0.00000  Uiso   1.00
C6     C     0.15021   0.19063   0.22041   0.00000  Uiso   1.00
C7     C     0.13349   0.14277   0.27962   0.00000  Uiso   1.00
C8     C     0.19984   0.19059   0.22040   0.00000  Uiso   1.00
C9     C     0.30635   0.16751   0.33622   0.00000  Uiso   1.00
C10    C     0.02701   0.16616   0.16373   0.00000  Uiso   1.00
C11    C     0.29194   0.17156   0.38553   0.00000  Uiso   1.00
C12    C     0.00002   0.24598   0.24998   0.00000  Uiso   1.00
C13    C     0.04143   0.16420   0.11419   0.00000  Uiso   1.00
C14    C     0.30589   0.19375   0.45609   0.00000  Uiso   1.00
C15    C     0.02612   0.14877   0.04226   0.00000  Uiso   1.00
C16    C     0.32380   0.18658   0.41002   0.00000  Uiso   1.00
C17    C     0.00867   0.15339   0.08876   0.00000  Uiso   1.00
C18    C     0.24352   0.16323   0.40777   0.00000  Uiso   1.00
C19    C     0.09029   0.17142   0.09235   0.00000  Uiso   1.00
C20    C     0.22451   0.17199   0.45357   0.00000  Uiso   1.00
C21    C     0.10821   0.16749   0.04560   0.00000  Uiso   1.00
C22    C     0.25693   0.18683   0.47773   0.00000  Uiso   1.00
C23    C     0.19199   0.18896   0.04562   0.00000  Uiso   1.00
C24    C     0.07520   0.15533   0.02082   0.00000  Uiso   1.00
C25    C     0.17434   0.16674   0.47590   0.00000  Uiso   1.00
C26    C     0.15804   0.17433   0.02296   0.00000  Uiso   1.00
C27    C     0.13973   0.15506   0.45260   0.00000  Uiso   1.00
C28    C     0.24026   0.19518   0.02330   0.00000  Uiso   1.00
C29    C     0.09131   0.14952   0.47474   0.00000  Uiso   1.00
C30    C     0.29076   0.02128   0.24995   0.00000  Uiso   1.00
C31    C     0.04257   0.31205   0.25008   0.00000  Uiso   1.00
C32    C     0.29077   0.31204   0.24992   0.00000  Uiso   1.00
Cu33   Cu    0.04689   0.16667   0.25000   0.00000  Uiso   1.00
Cu34   Cu    0.28645   0.16666   0.25000   0.00000  Uiso   1.00
H35    H     0.26479   0.20684   0.04196   0.00000  Uiso   1.00
H36    H     0.07585   0.29605   0.25013   0.00000  Uiso   1.00
H37    H     0.25750   0.29603   0.24983   0.00000  Uiso   1.00
H38    H     0.07582   0.03730   0.25020   0.00000  Uiso   1.00
H39    H     0.19513   0.12345   0.30326   0.00000  Uiso   1.00
H40    H     0.13820   0.20990   0.19676   0.00000  Uiso   1.00
H41    H     0.10809   0.12360   0.30331   0.00000  Uiso   1.00
H42    H     0.22523   0.20978   0.19674   0.00000  Uiso   1.00
H43    H     0.27490   0.17467   0.11735   0.00000  Uiso   1.00
H44    H     0.27474   0.13143   0.08793   0.00000  Uiso   1.00
H45    H     0.05872   0.16767   0.38150   0.00000  Uiso   1.00
H46    H     0.06621   0.14024   0.45558   0.00000  Uiso   1.00
H47    H     0.05653   0.21203   0.40950   0.00000  Uiso   1.00
H48    H     0.11395   0.17917   0.11306   0.00000  Uiso   1.00
H49    H     0.22137   0.14988   0.38814   0.00000  Uiso   1.00
H50    H     0.33014   0.20548   0.47501   0.00000  Uiso   1.00
H51    H     0.00130   0.13962   0.02275   0.00000  Uiso   1.00
H52    H     0.18258   0.19699   0.08061   0.00000  Uiso   1.00
H53    H     0.14837   0.15054   0.41688   0.00000  Uiso   1.00
H54    H     0.25747   0.03728   0.24991   0.00000  Uiso   1.00
N55    N     0.11736   0.16668   0.24999   0.00000  Uiso   1.00
N56    N     0.21597   0.16666   0.25001   0.00000  Uiso   1.00
N57    N     0.29161   0.14599   0.11005   0.00000  Uiso   1.00
N58    N     0.04030   0.19570   0.38809   0.00000  Uiso   1.00
O59    O     0.03958   0.10655   0.25000   0.00000  Uiso   1.00
O60    O     0.29375   0.22678   0.25000   0.00000  Uiso   1.00
O61    O     0.29372   0.10654   0.25001   0.00000  Uiso   1.00
O62    O     0.03961   0.22679   0.24999   0.00000  Uiso   1.00
O63    O     0.01852   0.16668   0.31491   0.00000  Uiso   1.00
O64    O     0.31481   0.16666   0.18509   0.00000  Uiso   1.00
O65    O     0.27267   0.16667   0.31492   0.00000  Uiso   1.00
O66    O     0.06067   0.16667   0.18508   0.00000  Uiso   1.00
C67    C     0.66665   0.08735   0.25003   0.00000  Uiso   1.00
C68    C     0.37588   0.02129   0.25012   0.00000  Uiso   1.00
C69    C     0.33334   0.29060   0.24998   0.00000  Uiso   1.00
C70    C     0.66665   0.04274   0.25004   0.00000  Uiso   1.00
C71    C     0.51645   0.14272   0.27960   0.00000  Uiso   1.00
C72    C     0.48354   0.19063   0.22041   0.00000  Uiso   1.00
C73    C     0.46683   0.14277   0.27962   0.00000  Uiso   1.00
C74    C     0.53317   0.19059   0.22040   0.00000  Uiso   1.00
C75    C     0.63968   0.16751   0.33622   0.00000  Uiso   1.00
C76    C     0.36034   0.16616   0.16373   0.00000  Uiso   1.00
C77    C     0.62528   0.17156   0.38553   0.00000  Uiso   1.00
C78    C     0.33335   0.24598   0.24998   0.00000  Uiso   1.00
C79    C     0.37476   0.16420   0.11419   0.00000  Uiso   1.00
C80    C     0.63923   0.19375   0.45609   0.00000  Uiso   1.00
C81    C     0.35945   0.14877   0.04226   0.00000  Uiso   1.00
C82    C     0.65714   0.18658   0.41002   0.00000  Uiso   1.00
C83    C     0.34200   0.15339   0.08876   0.00000  Uiso   1.00
C84    C     0.57686   0.16323   0.40777   0.00000  Uiso   1.00
C85    C     0.42362   0.17142   0.09235   0.00000  Uiso   1.00
C86    C     0.55785   0.17199   0.45357   0.00000  Uiso   1.00
C87    C     0.44154   0.16749   0.04560   0.00000  Uiso   1.00
C88    C     0.59026   0.18683   0.47773   0.00000  Uiso   1.00
C89    C     0.52532   0.18896   0.04562   0.00000  Uiso   1.00
C90    C     0.40853   0.15533   0.02082   0.00000  Uiso   1.00
C91    C     0.50767   0.16674   0.47590   0.00000  Uiso   1.00
C92    C     0.49137   0.17433   0.02296   0.00000  Uiso   1.00
C93    C     0.47307   0.15506   0.45260   0.00000  Uiso   1.00
C94    C     0.57359   0.19518   0.02330   0.00000  Uiso   1.00
C95    C     0.42464   0.14952   0.47474   0.00000  Uiso   1.00
C96    C     0.62409   0.02128   0.24995   0.00000  Uiso   1.00
C97    C     0.37590   0.31205   0.25008   0.00000  Uiso   1.00
C98    C     0.62411   0.31204   0.24992   0.00000  Uiso   1.00
Cu99   Cu    0.38022   0.16667   0.25000   0.00000  Uiso   1.00
Cu100  Cu    0.61978   0.16666   0.25000   0.00000  Uiso   1.00
H101   H     0.59812   0.20684   0.04196   0.00000  Uiso   1.00
H102   H     0.40919   0.29605   0.25013   0.00000  Uiso   1.00
H103   H     0.59084   0.29603   0.24983   0.00000  Uiso   1.00
H104   H     0.40915   0.03730   0.25020   0.00000  Uiso   1.00
H105   H     0.52847   0.12345   0.30326   0.00000  Uiso   1.00
H106   H     0.47153   0.20990   0.19676   0.00000  Uiso   1.00
H107   H     0.44142   0.12360   0.30331   0.00000  Uiso   1.00
H108   H     0.55857   0.20978   0.19674   0.00000  Uiso   1.00
H109   H     0.60823   0.17467   0.11735   0.00000  Uiso   1.00
H110   H     0.60808   0.13143   0.08793   0.00000  Uiso   1.00
H111   H     0.39205   0.16767   0.38150   0.00000  Uiso   1.00
H112   H     0.39954   0.14024   0.45558   0.00000  Uiso   1.00
H113   H     0.38986   0.21203   0.40950   0.00000  Uiso   1.00
H114   H     0.44728   0.17917   0.11306   0.00000  Uiso   1.00
H115   H     0.55470   0.14988   0.38814   0.00000  Uiso   1.00
H116   H     0.66347   0.20548   0.47501   0.00000  Uiso   1.00
H117   H     0.33463   0.13962   0.02275   0.00000  Uiso   1.00
H118   H     0.51591   0.19699   0.08061   0.00000  Uiso   1.00
H119   H     0.48171   0.15054   0.41688   0.00000  Uiso   1.00
H120   H     0.59081   0.03728   0.24991   0.00000  Uiso   1.00
N121   N     0.45069   0.16668   0.24999   0.00000  Uiso   1.00
N122   N     0.54931   0.16666   0.25001   0.00000  Uiso   1.00
N123   N     0.62495   0.14599   0.11005   0.00000  Uiso   1.00
N124   N     0.37363   0.19570   0.38809   0.00000  Uiso   1.00
O125   O     0.37291   0.10655   0.25000   0.00000  Uiso   1.00
O126   O     0.62709   0.22678   0.25000   0.00000  Uiso   1.00
O127   O     0.62706   0.10654   0.25001   0.00000  Uiso   1.00
O128   O     0.37294   0.22679   0.24999   0.00000  Uiso   1.00
O129   O     0.35186   0.16668   0.31491   0.00000  Uiso   1.00
O130   O     0.64814   0.16666   0.18509   0.00000  Uiso   1.00
O131   O     0.60600   0.16667   0.31492   0.00000  Uiso   1.00
O132   O     0.39400   0.16667   0.18508   0.00000  Uiso   1.00
C133   C     0.99998   0.08735   0.25003   0.00000  Uiso   1.00
C134   C     0.70922   0.02129   0.25012   0.00000  Uiso   1.00
C135   C     0.66668   0.29060   0.24998   0.00000  Uiso   1.00
C136   C     0.99998   0.04274   0.25004   0.00000  Uiso   1.00
C137   C     0.84979   0.14272   0.27960   0.00000  Uiso   1.00
C138   C     0.81688   0.19063   0.22041   0.00000  Uiso   1.00
C139   C     0.80016   0.14277   0.27962   0.00000  Uiso   1.00
C140   C     0.86650   0.19059   0.22040   0.00000  Uiso   1.00
C141   C     0.97302   0.16751   0.33622   0.00000  Uiso   1.00
C142   C     0.69367   0.16616   0.16373   0.00000  Uiso   1.00
C143   C     0.95861   0.17156   0.38553   0.00000  Uiso   1.00
C144   C     0.66669   0.24598   0.24998   0.00000  Uiso   1.00
C145   C     0.70810   0.16420   0.11419   0.00000  Uiso   1.00
C146   C     0.97256   0.19375   0.45609   0.00000  Uiso   1.00
C147   C     0.69279   0.14877   0.04226   0.00000  Uiso   1.00
C148   C     0.99047   0.18658   0.41002   0.00000  Uiso   1.00
C149   C     0.67534   0.15339   0.08876   0.00000  Uiso   1.00
C150   C     0.91019   0.16323   0.40777   0.00000  Uiso   1.00
C151   C     0.75695   0.17142   0.09235   0.00000  Uiso   1.00
C152   C     0.89118   0.17199   0.45357   0.00000  Uiso   1.00
C153   C     0.77487   0.16749   0.04560   0.00000  Uiso   1.00
C154   C     0.92359   0.18683   0.47773   0.00000  Uiso   1.00
C155   C     0.85866   0.18896   0.04562   0.00000  Uiso   1.00
C156   C     0.74186   0.15533   0.02082   0.00000  Uiso   1.00
C157   C     0.84100   0.16674   0.47590   0.00000  Uiso   1.00
C158   C     0.82471   0.17433   0.02296   0.00000  Uiso   1.00
C159   C     0.80640   0.15506   0.45260   0.00000  Uiso   1.00
C160   C     0.90692   0.19518   0.02330   0.00000  Uiso   1.00
C161   C     0.75797   0.14952   0.47474   0.00000  Uiso   1.00
C162   C     0.95742   0.02128   0.24995   0.00000  Uiso   1.00
C163   C     0.70923   0.31205   0.25008   0.00000  Uiso   1.00
C164   C     0.95744   0.31204   0.24992   0.00000  Uiso   1.00
Cu165  Cu    0.71355   0.16667   0.25000   0.00000  Uiso   1.00
Cu166  Cu    0.95311   0.16666   0.25000   0.00000  Uiso   1.00
H167   H     0.93146   0.20684   0.04196   0.00000  Uiso   1.00
H168   H     0.74252   0.29605   0.25013   0.00000  Uiso   1.00
H169   H     0.92417   0.29603   0.24983   0.00000  Uiso   1.00
H170   H     0.74249   0.03730   0.25020   0.00000  Uiso   1.00
H171   H     0.86180   0.12345   0.30326   0.00000  Uiso   1.00
H172   H     0.80486   0.20990   0.19676   0.00000  Uiso   1.00
H173   H     0.77475   0.12360   0.30331   0.00000  Uiso   1.00
H174   H     0.89190   0.20978   0.19674   0.00000  Uiso   1.00
H175   H     0.94156   0.17467   0.11735   0.00000  Uiso   1.00
H176   H     0.94141   0.13143   0.08793   0.00000  Uiso   1.00
H177   H     0.72539   0.16767   0.38150   0.00000  Uiso   1.00
H178   H     0.73288   0.14024   0.45558   0.00000  Uiso   1.00
H179   H     0.72320   0.21203   0.40950   0.00000  Uiso   1.00
H180   H     0.78062   0.17917   0.11306   0.00000  Uiso   1.00
H181   H     0.88804   0.14988   0.38814   0.00000  Uiso   1.00
H182   H     0.99681   0.20548   0.47501   0.00000  Uiso   1.00
H183   H     0.66796   0.13962   0.02275   0.00000  Uiso   1.00
H184   H     0.84925   0.19699   0.08061   0.00000  Uiso   1.00
H185   H     0.81504   0.15054   0.41688   0.00000  Uiso   1.00
H186   H     0.92414   0.03728   0.24991   0.00000  Uiso   1.00
N187   N     0.78403   0.16668   0.24999   0.00000  Uiso   1.00
N188   N     0.88264   0.16666   0.25001   0.00000  Uiso   1.00
N189   N     0.95828   0.14599   0.11005   0.00000  Uiso   1.00
N190   N     0.70696   0.19570   0.38809   0.00000  Uiso   1.00
O191   O     0.70625   0.10655   0.25000   0.00000  Uiso   1.00
O192   O     0.96042   0.22678   0.25000   0.00000  Uiso   1.00
O193   O     0.96039   0.10654   0.25001   0.00000  Uiso   1.00
O194   O     0.70628   0.22679   0.24999   0.00000  Uiso   1.00
O195   O     0.68519   0.16668   0.31491   0.00000  Uiso   1.00
O196   O     0.98148   0.16666   0.18509   0.00000  Uiso   1.00
O197   O     0.93933   0.16667   0.31492   0.00000  Uiso   1.00
O198   O     0.72733   0.16667   0.18508   0.00000  Uiso   1.00
C199   C     0.33331   0.42068   0.25003   0.00000  Uiso   1.00
C200   C     0.04255   0.35462   0.25012   0.00000  Uiso   1.00
C201   C     0.00001   0.62393   0.24998   0.00000  Uiso   1.00
C202   C     0.33332   0.37607   0.25004   0.00000  Uiso   1.00
C203   C     0.18312   0.47605   0.27960   0.00000  Uiso   1.00
C204   C     0.15021   0.52396   0.22041   0.00000  Uiso   1.00
C205   C     0.13349   0.47610   0.27962   0.00000  Uiso   1.00
C206   C     0.19984   0.52392   0.22040   0.00000  Uiso   1.00
C207   C     0.30635   0.50085   0.33622   0.00000  Uiso   1.00
C208   C     0.02701   0.49950   0.16373   0.00000  Uiso   1.00
C209   C     0.29194   0.50490   0.38553   0.00000  Uiso   1.00
C210   C     0.00002   0.57932   0.24998   0.00000  Uiso   1.00
C211   C     0.04143   0.49754   0.11419   0.00000  Uiso   1.00
C212   C     0.30589   0.52709   0.45609   0.00000  Uiso   1.00
C213   C     0.02612   0.48210   0.04226   0.00000  Uiso   1.00
C214   C     0.32380   0.51992   0.41002   0.00000  Uiso   1.00
C215   C     0.00867   0.48672   0.08876   0.00000  Uiso   1.00
C216   C     0.24352   0.49656   0.40777   0.00000  Uiso   1.00
C217   C     0.09029   0.50476   0.09235   0.00000  Uiso   1.00
C218   C     0.22451   0.50532   0.45357   0.00000  Uiso   1.00
C219   C     0.10821   0.50083   0.04560   0.00000  Uiso   1.00
C220   C     0.25693   0.52016   0.47773   0.00000  Uiso   1.00
C221   C     0.19199   0.52229   0.04562   0.00000  Uiso   1.00
C222   C     0.07520   0.48866   0.02082   0.00000  Uiso   1.00
C223   C     0.17434   0.50008   0.47590   0.00000  Uiso   1.00
C224   C     0.15804   0.50766   0.02296   0.00000  Uiso   1.00
C225   C     0.13973   0.48839   0.45260   0.00000  Uiso   1.00
C226   C     0.24026   0.52852   0.02330   0.00000  Uiso   1.00
C227   C     0.09131   0.48285   0.47474   0.00000  Uiso   1.00
C228   C     0.29076   0.35461   0.24995   0.00000  Uiso   1.00
C229   C     0.04257   0.64539   0.25008   0.00000  Uiso   1.00
C230   C     0.29077   0.64538   0.24992   0.00000  Uiso   1.00
Cu231  Cu    0.04689   0.50001   0.25000   0.00000  Uiso   1.00
Cu232  Cu    0.28645   0.49999   0.25000   0.00000  Uiso   1.00
H233   H     0.26479   0.54018   0.04196   0.00000  Uiso   1.00
H234   H     0.07585   0.62938   0.25013   0.00000  Uiso   1.00
H235   H     0.25750   0.62937   0.24983   0.00000  Uiso   1.00
H236   H     0.07582   0.37063   0.25020   0.00000  Uiso   1.00
H237   H     0.19513   0.45678   0.30326   0.00000  Uiso   1.00
H238   H     0.13820   0.54323   0.19676   0.00000  Uiso   1.00
H239   H     0.10809   0.45693   0.30331   0.00000  Uiso   1.00
H240   H     0.22523   0.54312   0.19674   0.00000  Uiso   1.00
H241   H     0.27490   0.50801   0.11735   0.00000  Uiso   1.00
H242   H     0.27474   0.46477   0.08793   0.00000  Uiso   1.00
H243   H     0.05872   0.50101   0.38150   0.00000  Uiso   1.00
H244   H     0.06621   0.47357   0.45558   0.00000  Uiso   1.00
H245   H     0.05653   0.54537   0.40950   0.00000  Uiso   1.00
H246   H     0.11395   0.51251   0.11306   0.00000  Uiso   1.00
H247   H     0.22137   0.48321   0.38814   0.00000  Uiso   1.00
H248   H     0.33014   0.53881   0.47501   0.00000  Uiso   1.00
H249   H     0.00130   0.47296   0.02275   0.00000  Uiso   1.00
H250   H     0.18258   0.53032   0.08061   0.00000  Uiso   1.00
H251   H     0.14837   0.48387   0.41688   0.00000  Uiso   1.00
H252   H     0.25747   0.37062   0.24991   0.00000  Uiso   1.00
N253   N     0.11736   0.50001   0.24999   0.00000  Uiso   1.00
N254   N     0.21597   0.49999   0.25001   0.00000  Uiso   1.00
N255   N     0.29161   0.47932   0.11005   0.00000  Uiso   1.00
N256   N     0.04030   0.52903   0.38809   0.00000  Uiso   1.00
O257   O     0.03958   0.43989   0.25000   0.00000  Uiso   1.00
O258   O     0.29375   0.56011   0.25000   0.00000  Uiso   1.00
O259   O     0.29372   0.43988   0.25001   0.00000  Uiso   1.00
O260   O     0.03961   0.56012   0.24999   0.00000  Uiso   1.00
O261   O     0.01852   0.50001   0.31491   0.00000  Uiso   1.00
O262   O     0.31481   0.49999   0.18509   0.00000  Uiso   1.00
O263   O     0.27267   0.50000   0.31492   0.00000  Uiso   1.00
O264   O     0.06067   0.50000   0.18508   0.00000  Uiso   1.00
C265   C     0.66665   0.42068   0.25003   0.00000  Uiso   1.00
C266   C     0.37588   0.35462   0.25012   0.00000  Uiso   1.00
C267   C     0.33334   0.62393   0.24998   0.00000  Uiso   1.00
C268   C     0.66665   0.37607   0.25004   0.00000  Uiso   1.00
C269   C     0.51645   0.47605   0.27960   0.00000  Uiso   1.00
C270   C     0.48354   0.52396   0.22041   0.00000  Uiso   1.00
C271   C     0.46683   0.47610   0.27962   0.00000  Uiso   1.00
C272   C     0.53317   0.52392   0.22040   0.00000  Uiso   1.00
C273   C     0.63968   0.50085   0.33622   0.00000  Uiso   1.00
C274   C     0.36034   0.49950   0.16373   0.00000  Uiso   1.00
C275   C     0.62528   0.50490   0.38553   0.00000  Uiso   1.00
C276   C     0.33335   0.57932   0.24998   0.00000  Uiso   1.00
C277   C     0.37476   0.49754   0.11419   0.00000  Uiso   1.00
C278   C     0.63923   0.52709   0.45609   0.00000  Uiso   1.00
C279   C     0.35945   0.48210   0.04226   0.00000  Uiso   1.00
C280   C     0.65714   0.51992   0.41002   0.00000  Uiso   1.00
C281   C     0.34200   0.48672   0.08876   0.00000  Uiso   1.00
C282   C     0.57686   0.49656   0.40777   0.00000  Uiso   1.00
C283   C     0.42362   0.50476   0.09235   0.00000  Uiso   1.00
C284   C     0.55785   0.50532   0.45357   0.00000  Uiso   1.00
C285   C     0.44154   0.50083   0.04560   0.00000  Uiso   1.00
C286   C     0.59026   0.52016   0.47773   0.00000  Uiso   1.00
C287   C     0.52532   0.52229   0.04562   0.00000  Uiso   1.00
C288   C     0.40853   0.48866   0.02082   0.00000  Uiso   1.00
C289   C     0.50767   0.50008   0.47590   0.00000  Uiso   1.00
C290   C     0.49137   0.50766   0.02296   0.00000  Uiso   1.00
C291   C     0.47307   0.48839   0.45260   0.00000  Uiso   1.00
C292   C     0.57359   0.52852   0.02330   0.00000  Uiso   1.00
C293   C     0.42464   0.48285   0.47474   0.00000  Uiso   1.00
C294   C     0.62409   0.35461   0.24995   0.00000  Uiso   1.00
C295   C     0.37590   0.64539   0.25008   0.00000  Uiso   1.00
C296   C     0.62411   0.64538   0.24992   0.00000  Uiso   1.00
Cu297  Cu    0.38022   0.50001   0.25000   0.00000  Uiso   1.00
Cu298  Cu    0.61978   0.49999   0.25000   0.00000  Uiso   1.00
H299   H     0.59812   0.54018   0.04196   0.00000  Uiso   1.00
H300   H     0.40919   0.62938   0.25013   0.00000  Uiso   1.00
H301   H     0.59084   0.62937   0.24983   0.00000  Uiso   1.00
H302   H     0.40915   0.37063   0.25020   0.00000  Uiso   1.00
H303   H     0.52847   0.45678   0.30326   0.00000  Uiso   1.00
H304   H     0.47153   0.54323   0.19676   0.00000  Uiso   1.00
H305   H     0.44142   0.45693   0.30331   0.00000  Uiso   1.00
H306   H     0.55857   0.54312   0.19674   0.00000  Uiso   1.00
H307   H     0.60823   0.50801   0.11735   0.00000  Uiso   1.00
H308   H     0.60808   0.46477   0.08793   0.00000  Uiso   1.00
H309   H     0.39205   0.50101   0.38150   0.00000  Uiso   1.00
H310   H     0.39954   0.47357   0.45558   0.00000  Uiso   1.00
H311   H     0.38986   0.54537   0.40950   0.00000  Uiso   1.00
H312   H     0.44728   0.51251   0.11306   0.00000  Uiso   1.00
H313   H     0.55470   0.48321   0.38814   0.00000  Uiso   1.00
H314   H     0.66347   0.53881   0.47501   0.00000  Uiso   1.00
H315   H     0.33463   0.47296   0.02275   0.00000  Uiso   1.00
H316   H     0.51591   0.53032   0.08061   0.00000  Uiso   1.00
H317   H     0.48171   0.48387   0.41688   0.00000  Uiso   1.00
H318   H     0.59081   0.37062   0.24991   0.00000  Uiso   1.00
N319   N     0.45069   0.50001   0.24999   0.00000  Uiso   1.00
N320   N     0.54931   0.49999   0.25001   0.00000  Uiso   1.00
N321   N     0.62495   0.47932   0.11005   0.00000  Uiso   1.00
N322   N     0.37363   0.52903   0.38809   0.00000  Uiso   1.00
O323   O     0.37291   0.43989   0.25000   0.00000  Uiso   1.00
O324   O     0.62709   0.56011   0.25000   0.00000  Uiso   1.00
O325   O     0.62706   0.43988   0.25001   0.00000  Uiso   1.00
O326   O     0.37294   0.56012   0.24999   0.00000  Uiso   1.00
O327   O     0.35186   0.50001   0.31491   0.00000  Uiso   1.00
O328   O     0.64814   0.49999   0.18509   0.00000  Uiso   1.00
O329   O     0.60600   0.50000   0.31492   0.00000  Uiso   1.00
O330   O     0.39400   0.50000   0.18508   0.00000  Uiso   1.00
C331   C     0.99998   0.42068   0.25003   0.00000  Uiso   1.00
C332   C     0.70922   0.35462   0.25012   0.00000  Uiso   1.00
C333   C     0.66668   0.62393   0.24998   0.00000  Uiso   1.00
C334   C     0.99998   0.37607   0.25004   0.00000  Uiso   1.00
C335   C     0.84979   0.47605   0.27960   0.00000  Uiso   1.00
C336   C     0.81688   0.52396   0.22041   0.00000  Uiso   1.00
C337   C     0.80016   0.47610   0.27962   0.00000  Uiso   1.00
C338   C     0.86650   0.52392   0.22040   0.00000  Uiso   1.00
C339   C     0.97302   0.50085   0.33622   0.00000  Uiso   1.00
C340   C     0.69367   0.49950   0.16373   0.00000  Uiso   1.00
C341   C     0.95861   0.50490   0.38553   0.00000  Uiso   1.00
C342   C     0.66669   0.57932   0.24998   0.00000  Uiso   1.00
C343   C     0.70810   0.49754   0.11419   0.00000  Uiso   1.00
C344   C     0.97256   0.52709   0.45609   0.00000  Uiso   1.00
C345   C     0.69279   0.48210   0.04226   0.00000  Uiso   1.00
C346   C     0.99047   0.51992   0.41002   0.00000  Uiso   1.00
C347   C     0.67534   0.48672   0.08876   0.00000  Uiso   1.00
C348   C     0.91019   0.49656   0.40777   0.00000  Uiso   1.00
C349   C     0.75695   0.50476   0.09235   0.00000  Uiso   1.00
C350   C     0.89118   0.50532   0.45357   0.00000  Uiso   1.00
C351   C     0.77487   0.50083   0.04560   0.00000  Uiso   1.00
C352   C     0.92359   0.52016   0.47773   0.00000  Uiso   1.00
C353   C     0.85866   0.52229   0.04562   0.00000  Uiso   1.00
C354   C     0.74186   0.48866   0.02082   0.00000  Uiso   1.00
C355   C     0.84100   0.50008   0.47590   0.00000  Uiso   1.00
C356   C     0.82471   0.50766   0.02296   0.00000  Uiso   1.00
C357   C     0.80640   0.48839   0.45260   0.00000  Uiso   1.00
C358   C     0.90692   0.52852   0.02330   0.00000  Uiso   1.00
C359   C     0.75797   0.48285   0.47474   0.00000  Uiso   1.00
C360   C     0.95742   0.35461   0.24995   0.00000  Uiso   1.00
C361   C     0.70923   0.64539   0.25008   0.00000  Uiso   1.00
C362   C     0.95744   0.64538   0.24992   0.00000  Uiso   1.00
Cu363  Cu    0.71355   0.50001   0.25000   0.00000  Uiso   1.00
Cu364  Cu    0.95311   0.49999   0.25000   0.00000  Uiso   1.00
H365   H     0.93146   0.54018   0.04196   0.00000  Uiso   1.00
H366   H     0.74252   0.62938   0.25013   0.00000  Uiso   1.00
H367   H     0.92417   0.62937   0.24983   0.00000  Uiso   1.00
H368   H     0.74249   0.37063   0.25020   0.00000  Uiso   1.00
H369   H     0.86180   0.45678   0.30326   0.00000  Uiso   1.00
H370   H     0.80486   0.54323   0.19676   0.00000  Uiso   1.00
H371   H     0.77475   0.45693   0.30331   0.00000  Uiso   1.00
H372   H     0.89190   0.54312   0.19674   0.00000  Uiso   1.00
H373   H     0.94156   0.50801   0.11735   0.00000  Uiso   1.00
H374   H     0.94141   0.46477   0.08793   0.00000  Uiso   1.00
H375   H     0.72539   0.50101   0.38150   0.00000  Uiso   1.00
H376   H     0.73288   0.47357   0.45558   0.00000  Uiso   1.00
H377   H     0.72320   0.54537   0.40950   0.00000  Uiso   1.00
H378   H     0.78062   0.51251   0.11306   0.00000  Uiso   1.00
H379   H     0.88804   0.48321   0.38814   0.00000  Uiso   1.00
H380   H     0.99681   0.53881   0.47501   0.00000  Uiso   1.00
H381   H     0.66796   0.47296   0.02275   0.00000  Uiso   1.00
H382   H     0.84925   0.53032   0.08061   0.00000  Uiso   1.00
H383   H     0.81504   0.48387   0.41688   0.00000  Uiso   1.00
H384   H     0.92414   0.37062   0.24991   0.00000  Uiso   1.00
N385   N     0.78403   0.50001   0.24999   0.00000  Uiso   1.00
N386   N     0.88264   0.49999   0.25001   0.00000  Uiso   1.00
N387   N     0.95828   0.47932   0.11005   0.00000  Uiso   1.00
N388   N     0.70696   0.52903   0.38809   0.00000  Uiso   1.00
O389   O     0.70625   0.43989   0.25000   0.00000  Uiso   1.00
O390   O     0.96042   0.56011   0.25000   0.00000  Uiso   1.00
O391   O     0.96039   0.43988   0.25001   0.00000  Uiso   1.00
O392   O     0.70628   0.56012   0.24999   0.00000  Uiso   1.00
O393   O     0.68519   0.50001   0.31491   0.00000  Uiso   1.00
O394   O     0.98148   0.49999   0.18509   0.00000  Uiso   1.00
O395   O     0.93933   0.50000   0.31492   0.00000  Uiso   1.00
O396   O     0.72733   0.50000   0.18508   0.00000  Uiso   1.00
C397   C     0.33331   0.75402   0.25003   0.00000  Uiso   1.00
C398   C     0.04255   0.68795   0.25012   0.00000  Uiso   1.00
C399   C     0.00001   0.95726   0.24998   0.00000  Uiso   1.00
C400   C     0.33332   0.70940   0.25004   0.00000  Uiso   1.00
C401   C     0.18312   0.80938   0.27960   0.00000  Uiso   1.00
C402   C     0.15021   0.85729   0.22041   0.00000  Uiso   1.00
C403   C     0.13349   0.80943   0.27962   0.00000  Uiso   1.00
C404   C     0.19984   0.85725   0.22040   0.00000  Uiso   1.00
C405   C     0.30635   0.83418   0.33622   0.00000  Uiso   1.00
C406   C     0.02701   0.83283   0.16373   0.00000  Uiso   1.00
C407   C     0.29194   0.83823   0.38553   0.00000  Uiso   1.00
C408   C     0.00002   0.91265   0.24998   0.00000  Uiso   1.00
C409   C     0.04143   0.83087   0.11419   0.00000  Uiso   1.00
C410   C     0.30589   0.86042   0.45609   0.00000  Uiso   1.00
C411   C     0.02612   0.81544   0.04226   0.00000  Uiso   1.00
C412   C     0.32380   0.85325   0.41002   0.00000  Uiso   1.00
C413   C     0.00867   0.82005   0.08876   0.00000  Uiso   1.00
C414   C     0.24352   0.82990   0.40777   0.00000  Uiso   1.00
C415   C     0.09029   0.83809   0.09235   0.00000  Uiso   1.00
C416   C     0.22451   0.83866   0.45357   0.00000  Uiso   1.00
C417   C     0.10821   0.83416   0.04560   0.00000  Uiso   1.00
C418   C     0.25693   0.85350   0.47773   0.00000  Uiso   1.00
C419   C     0.19199   0.85563   0.04562   0.00000  Uiso   1.00
C420   C     0.07520   0.82200   0.02082   0.00000  Uiso   1.00
C421   C     0.17434   0.83341   0.47590   0.00000  Uiso   1.00
C422   C     0.15804   0.84099   0.02296   0.00000  Uiso   1.00
C423   C     0.13973   0.82172   0.45260   0.00000  Uiso   1.00
C424   C     0.24026   0.86185   0.02330   0.00000  Uiso   1.00
C425   C     0.09131   0.81619   0.47474   0.00000  Uiso   1.00
C426   C     0.29076   0.68794   0.24995   0.00000  Uiso   1.00
C427   C     0.04257   0.97872   0.25008   0.00000  Uiso   1.00
C428   C     0.29077   0.97871   0.24992   0.00000  Uiso   1.00
Cu429  Cu    0.04689   0.83334   0.25000   0.00000  Uiso   1.00
Cu430  Cu    0.28645   0.83333   0.25000   0.00000  Uiso   1.00
H431   H     0.26479   0.87351   0.04196   0.00000  Uiso   1.00
H432   H     0.07585   0.96271   0.25013   0.00000  Uiso   1.00
H433   H     0.25750   0.96270   0.24983   0.00000  Uiso   1.00
H434   H     0.07582   0.70397   0.25020   0.00000  Uiso   1.00
H435   H     0.19513   0.79012   0.30326   0.00000  Uiso   1.00
H436   H     0.13820   0.87657   0.19676   0.00000  Uiso   1.00
H437   H     0.10809   0.79027   0.30331   0.00000  Uiso   1.00
H438   H     0.22523   0.87645   0.19674   0.00000  Uiso   1.00
H439   H     0.27490   0.84134   0.11735   0.00000  Uiso   1.00
H440   H     0.27474   0.79810   0.08793   0.00000  Uiso   1.00
H441   H     0.05872   0.83434   0.38150   0.00000  Uiso   1.00
H442   H     0.06621   0.80691   0.45558   0.00000  Uiso   1.00
H443   H     0.05653   0.87870   0.40950   0.00000  Uiso   1.00
H444   H     0.11395   0.84584   0.11306   0.00000  Uiso   1.00
H445   H     0.22137   0.81654   0.38814   0.00000  Uiso   1.00
H446   H     0.33014   0.87214   0.47501   0.00000  Uiso   1.00
H447   H     0.00130   0.80629   0.02275   0.00000  Uiso   1.00
H448   H     0.18258   0.86365   0.08061   0.00000  Uiso   1.00
H449   H     0.14837   0.81721   0.41688   0.00000  Uiso   1.00
H450   H     0.25747   0.70395   0.24991   0.00000  Uiso   1.00
N451   N     0.11736   0.83334   0.24999   0.00000  Uiso   1.00
N452   N     0.21597   0.83332   0.25001   0.00000  Uiso   1.00
N453   N     0.29161   0.81265   0.11005   0.00000  Uiso   1.00
N454   N     0.04030   0.86237   0.38809   0.00000  Uiso   1.00
O455   O     0.03958   0.77322   0.25000   0.00000  Uiso   1.00
O456   O     0.29375   0.89345   0.25000   0.00000  Uiso   1.00
O457   O     0.29372   0.77321   0.25001   0.00000  Uiso   1.00
O458   O     0.03961   0.89346   0.24999   0.00000  Uiso   1.00
O459   O     0.01852   0.83334   0.31491   0.00000  Uiso   1.00
O460   O     0.31481   0.83332   0.18509   0.00000  Uiso   1.00
O461   O     0.27267   0.83333   0.31492   0.00000  Uiso   1.00
O462   O     0.06067   0.83333   0.18508   0.00000  Uiso   1.00
C463   C     0.66665   0.75402   0.25003   0.00000  Uiso   1.00
C464   C     0.37588   0.68795   0.25012   0.00000  Uiso   1.00
C465   C     0.33334   0.95726   0.24998   0.00000  Uiso   1.00
C466   C     0.66665   0.70940   0.25004   0.00000  Uiso   1.00
C467   C     0.51645   0.80938   0.27960   0.00000  Uiso   1.00
C468   C     0.48354   0.85729   0.22041   0.00000  Uiso   1.00
C469   C     0.46683   0.80943   0.27962   0.00000  Uiso   1.00
C470   C     0.53317   0.85725   0.22040   0.00000  Uiso   1.00
C471   C     0.63968   0.83418   0.33622   0.00000  Uiso   1.00
C472   C     0.36034   0.83283   0.16373   0.00000  Uiso   1.00
C473   C     0.62528   0.83823   0.38553   0.00000  Uiso   1.00
C474   C     0.33335   0.91265   0.24998   0.00000  Uiso   1.00
C475   C     0.37476   0.83087   0.11419   0.00000  Uiso   1.00
C476   C     0.63923   0.86042   0.45609   0.00000  Uiso   1.00
C477   C     0.35945   0.81544   0.04226   0.00000  Uiso   1.00
C478   C     0.65714   0.85325   0.41002   0.00000  Uiso   1.00
C479   C     0.34200   0.82005   0.08876   0.00000  Uiso   1.00
C480   C     0.57686   0.82990   0.40777   0.00000  Uiso   1.00
C481   C     0.42362   0.83809   0.09235   0.00000  Uiso   1.00
C482   C     0.55785   0.83866   0.45357   0.00000  Uiso   1.00
C483   C     0.44154   0.83416   0.04560   0.00000  Uiso   1.00
C484   C     0.59026   0.85350   0.47773   0.00000  Uiso   1.00
C485   C     0.52532   0.85563   0.04562   0.00000  Uiso   1.00
C486   C     0.40853   0.82200   0.02082   0.00000  Uiso   1.00
C487   C     0.50767   0.83341   0.47590   0.00000  Uiso   1.00
C488   C     0.49137   0.84099   0.02296   0.00000  Uiso   1.00
C489   C     0.47307   0.82172   0.45260   0.00000  Uiso   1.00
C490   C     0.57359   0.86185   0.02330   0.00000  Uiso   1.00
C491   C     0.42464   0.81619   0.47474   0.00000  Uiso   1.00
C492   C     0.62409   0.68794   0.24995   0.00000  Uiso   1.00
C493   C     0.37590   0.97872   0.25008   0.00000  Uiso   1.00
C494   C     0.62411   0.97871   0.24992   0.00000  Uiso   1.00
Cu495  Cu    0.38022   0.83334   0.25000   0.00000  Uiso   1.00
Cu496  Cu    0.61978   0.83333   0.25000   0.00000  Uiso   1.00
H497   H     0.59812   0.87351   0.04196   0.00000  Uiso   1.00
H498   H     0.40919   0.96271   0.25013   0.00000  Uiso   1.00
H499   H     0.59084   0.96270   0.24983   0.00000  Uiso   1.00
H500   H     0.40915   0.70397   0.25020   0.00000  Uiso   1.00
H501   H     0.52847   0.79012   0.30326   0.00000  Uiso   1.00
H502   H     0.47153   0.87657   0.19676   0.00000  Uiso   1.00
H503   H     0.44142   0.79027   0.30331   0.00000  Uiso   1.00
H504   H     0.55857   0.87645   0.19674   0.00000  Uiso   1.00
H505   H     0.60823   0.84134   0.11735   0.00000  Uiso   1.00
H506   H     0.60808   0.79810   0.08793   0.00000  Uiso   1.00
H507   H     0.39205   0.83434   0.38150   0.00000  Uiso   1.00
H508   H     0.39954   0.80691   0.45558   0.00000  Uiso   1.00
H509   H     0.38986   0.87870   0.40950   0.00000  Uiso   1.00
H510   H     0.44728   0.84584   0.11306   0.00000  Uiso   1.00
H511   H     0.55470   0.81654   0.38814   0.00000  Uiso   1.00
H512   H     0.66347   0.87214   0.47501   0.00000  Uiso   1.00
H513   H     0.33463   0.80629   0.02275   0.00000  Uiso   1.00
H514   H     0.51591   0.86365   0.08061   0.00000  Uiso   1.00
H515   H     0.48171   0.81721   0.41688   0.00000  Uiso   1.00
H516   H     0.59081   0.70395   0.24991   0.00000  Uiso   1.00
N517   N     0.45069   0.83334   0.24999   0.00000  Uiso   1.00
N518   N     0.54931   0.83332   0.25001   0.00000  Uiso   1.00
N519   N     0.62495   0.81265   0.11005   0.00000  Uiso   1.00
N520   N     0.37363   0.86237   0.38809   0.00000  Uiso   1.00
O521   O     0.37291   0.77322   0.25000   0.00000  Uiso   1.00
O522   O     0.62709   0.89345   0.25000   0.00000  Uiso   1.00
O523   O     0.62706   0.77321   0.25001   0.00000  Uiso   1.00
O524   O     0.37294   0.89346   0.24999   0.00000  Uiso   1.00
O525   O     0.35186   0.83334   0.31491   0.00000  Uiso   1.00
O526   O     0.64814   0.83332   0.18509   0.00000  Uiso   1.00
O527   O     0.60600   0.83333   0.31492   0.00000  Uiso   1.00
O528   O     0.39400   0.83333   0.18508   0.00000  Uiso   1.00
C529   C     0.99998   0.75402   0.25003   0.00000  Uiso   1.00
C530   C     0.70922   0.68795   0.25012   0.00000  Uiso   1.00
C531   C     0.66668   0.95726   0.24998   0.00000  Uiso   1.00
C532   C     0.99998   0.70940   0.25004   0.00000  Uiso   1.00
C533   C     0.84979   0.80938   0.27960   0.00000  Uiso   1.00
C534   C     0.81688   0.85729   0.22041   0.00000  Uiso   1.00
C535   C     0.80016   0.80943   0.27962   0.00000  Uiso   1.00
C536   C     0.86650   0.85725   0.22040   0.00000  Uiso   1.00
C537   C     0.97302   0.83418   0.33622   0.00000  Uiso   1.00
C538   C     0.69367   0.83283   0.16373   0.00000  Uiso   1.00
C539   C     0.95861   0.83823   0.38553   0.00000  Uiso   1.00
C540   C     0.66669   0.91265   0.24998   0.00000  Uiso   1.00
C541   C     0.70810   0.83087   0.11419   0.00000  Uiso   1.00
C542   C     0.97256   0.86042   0.45609   0.00000  Uiso   1.00
C543   C     0.69279   0.81544   0.04226   0.00000  Uiso   1.00
C544   C     0.99047   0.85325   0.41002   0.00000  Uiso   1.00
C545   C     0.67534   0.82005   0.08876   0.00000  Uiso   1.00
C546   C     0.91019   0.82990   0.40777   0.00000  Uiso   1.00
C547   C     0.75695   0.83809   0.09235   0.00000  Uiso   1.00
C548   C     0.89118   0.83866   0.45357   0.00000  Uiso   1.00
C549   C     0.77487   0.83416   0.04560   0.00000  Uiso   1.00
C550   C     0.92359   0.85350   0.47773   0.00000  Uiso   1.00
C551   C     0.85866   0.85563   0.04562   0.00000  Uiso   1.00
C552   C     0.74186   0.82200   0.02082   0.00000  Uiso   1.00
C553   C     0.84100   0.83341   0.47590   0.00000  Uiso   1.00
C554   C     0.82471   0.84099   0.02296   0.00000  Uiso   1.00
C555   C     0.80640   0.82172   0.45260   0.00000  Uiso   1.00
C556   C     0.90692   0.86185   0.02330   0.00000  Uiso   1.00
C557   C     0.75797   0.81619   0.47474   0.00000  Uiso   1.00
C558   C     0.95742   0.68794   0.24995   0.00000  Uiso   1.00
C559   C     0.70923   0.97872   0.25008   0.00000  Uiso   1.00
C560   C     0.95744   0.97871   0.24992   0.00000  Uiso   1.00
Cu561  Cu    0.71355   0.83334   0.25000   0.00000  Uiso   1.00
Cu562  Cu    0.95311   0.83333   0.25000   0.00000  Uiso   1.00
H563   H     0.93146   0.87351   0.04196   0.00000  Uiso   1.00
H564   H     0.74252   0.96271   0.25013   0.00000  Uiso   1.00
H565   H     0.92417   0.96270   0.24983   0.00000  Uiso   1.00
H566   H     0.74249   0.70397   0.25020   0.00000  Uiso   1.00
H567   H     0.86180   0.79012   0.30326   0.00000  Uiso   1.00
H568   H     0.80486   0.87657   0.19676   0.00000  Uiso   1.00
H569   H     0.77475   0.79027   0.30331   0.00000  Uiso   1.00
H570   H     0.89190   0.87645   0.19674   0.00000  Uiso   1.00
H571   H     0.94156   0.84134   0.11735   0.00000  Uiso   1.00
H572   H     0.94141   0.79810   0.08793   0.00000  Uiso   1.00
H573   H     0.72539   0.83434   0.38150   0.00000  Uiso   1.00
H574   H     0.73288   0.80691   0.45558   0.00000  Uiso   1.00
H575   H     0.72320   0.87870   0.40950   0.00000  Uiso   1.00
H576   H     0.78062   0.84584   0.11306   0.00000  Uiso   1.00
H577   H     0.88804   0.81654   0.38814   0.00000  Uiso   1.00
H578   H     0.99681   0.87214   0.47501   0.00000  Uiso   1.00
H579   H     0.66796   0.80629   0.02275   0.00000  Uiso   1.00
H580   H     0.84925   0.86365   0.08061   0.00000  Uiso   1.00
H581   H     0.81504   0.81721   0.41688   0.00000  Uiso   1.00
H582   H     0.92414   0.70395   0.24991   0.00000  Uiso   1.00
N583   N     0.78403   0.83334   0.24999   0.00000  Uiso   1.00
N584   N     0.88264   0.83332   0.25001   0.00000  Uiso   1.00
N585   N     0.95828   0.81265   0.11005   0.00000  Uiso   1.00
N586   N     0.70696   0.86237   0.38809   0.00000  Uiso   1.00
O587   O     0.70625   0.77322   0.25000   0.00000  Uiso   1.00
O588   O     0.96042   0.89345   0.25000   0.00000  Uiso   1.00
O589   O     0.96039   0.77321   0.25001   0.00000  Uiso   1.00
O590   O     0.70628   0.89346   0.24999   0.00000  Uiso   1.00
O591   O     0.68519   0.83334   0.31491   0.00000  Uiso   1.00
O592   O     0.98148   0.83332   0.18509   0.00000  Uiso   1.00
O593   O     0.93933   0.83333   0.31492   0.00000  Uiso   1.00
O594   O     0.72733   0.83333   0.18508   0.00000  Uiso   1.00
C595   C     0.33331   0.08735   0.75003   0.00000  Uiso   1.00
C596   C     0.04255   0.02129   0.75012   0.00000  Uiso   1.00
C597   C     0.00001   0.29060   0.74998   0.00000  Uiso   1.00
C598   C     0.33332   0.04274   0.75004   0.00000  Uiso   1.00
C599   C     0.18312   0.14272   0.77960   0.00000  Uiso   1.00
C600   C     0.15021   0.19063   0.72041   0.00000  Uiso   1.00
C601   C     0.13349   0.14277   0.77962   0.00000  Uiso   1.00
C602   C     0.19984   0.19059   0.72040   0.00000  Uiso   1.00
C603   C     0.30635   0.16751   0.83622   0.00000  Uiso   1.00
C604   C     0.02701   0.16616   0.66373   0.00000  Uiso   1.00
C605   C     0.29194   0.17156   0.88553   0.00000  Uiso   1.00
C606   C     0.00002   0.24598   0.74998   0.00000  Uiso   1.00
C607   C     0.04143   0.16420   0.61419   0.00000  Uiso   1.00
C608   C     0.30589   0.19375   0.95609   0.00000  Uiso   1.00
C609   C     0.02612   0.14877   0.54226   0.00000  Uiso   1.00
C610   C     0.32380   0.18658   0.91002   0.00000  Uiso   1.00
C611   C     0.00867   0.15339   0.58876   0.00000  Uiso   1.00
C612   C     0.24352   0.16323   0.90777   0.00000  Uiso   1.00
C613   C     0.09029   0.17142   0.59235   0.00000  Uiso   1.00
C614   C     0.22451   0.17199   0.95357   0.00000  Uiso   1.00
C615   C     0.10821   0.16749   0.54560   0.00000  Uiso   1.00
C616   C     0.25693   0.18683   0.97773   0.00000  Uiso   1.00
C617   C     0.19199   0.18896   0.54562   0.00000  Uiso   1.00
C618   C     0.07520   0.15533   0.52082   0.00000  Uiso   1.00
C619   C     0.17434   0.16674   0.97590   0.00000  Uiso   1.00
C620   C     0.15804   0.17433   0.52296   0.00000  Uiso   1.00
C621   C     0.13973   0.15506   0.95260   0.00000  Uiso   1.00
C622   C     0.24026   0.19518   0.52330   0.00000  Uiso   1.00
C623   C     0.09131   0.14952   0.97474   0.00000  Uiso   1.00
C624   C     0.29076   0.02128   0.74995   0.00000  Uiso   1.00
C625   C     0.04257   0.31205   0.75008   0.00000  Uiso   1.00
C626   C     0.29077   0.31204   0.74992   0.00000  Uiso   1.00
Cu627  Cu    0.04689   0.16667   0.75000   0.00000  Uiso   1.00
Cu628  Cu    0.28645   0.16666   0.75000   0.00000  Uiso   1.00
H629   H     0.26479   0.20684   0.54196   0.00000  Uiso   1.00
H630   H     0.07585   0.29605   0.75013   0.00000  Uiso   1.00
H631   H     0.25750   0.29603   0.74983   0.00000  Uiso   1.00
H632   H     0.07582   0.03730   0.75020   0.00000  Uiso   1.00
H633   H     0.19513   0.12345   0.80326   0.00000  Uiso   1.00
H634   H     0.13820   0.20990   0.69676   0.00000  Uiso   1.00
H635   H     0.10809   0.12360   0.80331   0.00000  Uiso   1.00
H636   H     0.22523   0.20978   0.69674   0.00000  Uiso   1.00
H637   H     0.27490   0.17467   0.61735   0.00000  Uiso   1.00
H638   H     0.27474   0.13143   0.58793   0.00000  Uiso   1.00
H639   H     0.05872   0.16767   0.88150   0.00000  Uiso   1.00
H640   H     0.06621   0.14024   0.95558   0.00000  Uiso   1.00
H641   H     0.05653   0.21203   0.90950   0.00000  Uiso   1.00
H642   H     0.11395   0.17917   0.61306   0.00000  Uiso   1.00
H643   H     0.22137   0.14988   0.88814   0.00000  Uiso   1.00
H644   H     0.33014   0.20548   0.97501   0.00000  Uiso   1.00
H645   H     0.00130   0.13962   0.52275   0.00000  Uiso   1.00
H646   H     0.18258   0.19699   0.58061   0.00000  Uiso   1.00
H647   H     0.14837   0.15054   0.91688   0.00000  Uiso   1.00
H648   H     0.25747   0.03728   0.74991   0.00000  Uiso   1.00
N649   N     0.11736   0.16668   0.74999   0.00000  Uiso   1.00
N650   N     0.21597   0.16666   0.75001   0.00000  Uiso   1.00
N651   N     0.29161   0.14599   0.61005   0.00000  Uiso   1.00
N652   N     0.04030   0.19570   0.88809   0.00000  Uiso   1.00
O653   O     0.03958   0.10655   0.75000   0.00000  Uiso   1.00
O654   O     0.29375   0.22678   0.75000   0.00000  Uiso   1.00
O655   O     0.29372   0.10654   0.75001   0.00000  Uiso   1.00
O656   O     0.03961   0.22679   0.74999   0.00000  Uiso   1.00
O657   O     0.01852   0.16668   0.81491   0.00000  Uiso   1.00
O658   O     0.31481   0.16666   0.68509   0.00000  Uiso   1.00
O659   O     0.27267   0.16667   0.81492   0.00000  Uiso   1.00
O660   O     0.06067   0.16667   0.68508   0.00000  Uiso   1.00
C661   C     0.66665   0.08735   0.75003   0.00000  Uiso   1.00
C662   C     0.37588   0.02129   0.75012   0.00000  Uiso   1.00
C663   C     0.33334   0.29060   0.74998   0.00000  Uiso   1.00
C664   C     0.66665   0.04274   0.75004   0.00000  Uiso   1.00
C665   C     0.51645   0.14272   0.77960   0.00000  Uiso   1.00
C666   C     0.48354   0.19063   0.72041   0.00000  Uiso   1.00
C667   C     0.46683   0.14277   0.77962   0.00000  Uiso   1.00
C668   C     0.53317   0.19059   0.72040   0.00000  Uiso   1.00
C669   C     0.63968   0.16751   0.83622   0.00000  Uiso   1.00
C670   C     0.36034   0.16616   0.66373   0.00000  Uiso   1.00
C671   C     0.62528   0.17156   0.88553   0.00000  Uiso   1.00
C672   C     0.33335   0.24598   0.74998   0.00000  Uiso   1.00
C673   C     0.37476   0.16420   0.61419   0.00000  Uiso   1.00
C674   C     0.63923   0.19375   0.95609   0.00000  Uiso   1.00
C675   C     0.35945   0.14877   0.54226   0.00000  Uiso   1.00
C676   C     0.65714   0.18658   0.91002   0.00000  Uiso   1.00
C677   C     0.34200   0.15339   0.58876   0.00000  Uiso   1.00
C678   C     0.57686   0.16323   0.90777   0.00000  Uiso   1.00
C679   C     0.42362   0.17142   0.59235   0.00000  Uiso   1.00
C680   C     0.55785   0.17199   0.95357   0.00000  Uiso   1.00
C681   C     0.44154   0.16749   0.54560   0.00000  Uiso   1.00
C682   C     0.59026   0.18683   0.97773   0.00000  Uiso   1.00
C683   C     0.52532   0.18896   0.54562   0.00000  Uiso   1.00
C684   C     0.40853   0.15533   0.52082   0.00000  Uiso   1.00
C685   C     0.50767   0.16674   0.97590   0.00000  Uiso   1.00
C686   C     0.49137   0.17433   0.52296   0.00000  Uiso   1.00
C687   C     0.47307   0.15506   0.95260   0.00000  Uiso   1.00
C688   C     0.57359   0.19518   0.52330   0.00000  Uiso   1.00
C689   C     0.42464   0.14952   0.97474   0.00000  Uiso   1.00
C690   C     0.62409   0.02128   0.74995   0.00000  Uiso   1.00
C691   C     0.37590   0.31205   0.75008   0.00000  Uiso   1.00
C692   C     0.62411   0.31204   0.74992   0.00000  Uiso   1.00
Cu693  Cu    0.38022   0.16667   0.75000   0.00000  Uiso   1.00
Cu694  Cu    0.61978   0.16666   0.75000   0.00000  Uiso   1.00
H695   H     0.59812   0.20684   0.54196   0.00000  Uiso   1.00
H696   H     0.40919   0.29605   0.75013   0.00000  Uiso   1.00
H697   H     0.59084   0.29603   0.74983   0.00000  Uiso   1.00
H698   H     0.40915   0.03730   0.75020   0.00000  Uiso   1.00
H699   H     0.52847   0.12345   0.80326   0.00000  Uiso   1.00
H700   H     0.47153   0.20990   0.69676   0.00000  Uiso   1.00
H701   H     0.44142   0.12360   0.80331   0.00000  Uiso   1.00
H702   H     0.55857   0.20978   0.69674   0.00000  Uiso   1.00
H703   H     0.60823   0.17467   0.61735   0.00000  Uiso   1.00
H704   H     0.60808   0.13143   0.58793   0.00000  Uiso   1.00
H705   H     0.39205   0.16767   0.88150   0.00000  Uiso   1.00
H706   H     0.39954   0.14024   0.95558   0.00000  Uiso   1.00
H707   H     0.38986   0.21203   0.90950   0.00000  Uiso   1.00
H708   H     0.44728   0.17917   0.61306   0.00000  Uiso   1.00
H709   H     0.55470   0.14988   0.88814   0.00000  Uiso   1.00
H710   H     0.66347   0.20548   0.97501   0.00000  Uiso   1.00
H711   H     0.33463   0.13962   0.52275   0.00000  Uiso   1.00
H712   H     0.51591   0.19699   0.58061   0.00000  Uiso   1.00
H713   H     0.48171   0.15054   0.91688   0.00000  Uiso   1.00
H714   H     0.59081   0.03728   0.74991   0.00000  Uiso   1.00
N715   N     0.45069   0.16668   0.74999   0.00000  Uiso   1.00
N716   N     0.54931   0.16666   0.75001   0.00000  Uiso   1.00
N717   N     0.62495   0.14599   0.61005   0.00000  Uiso   1.00
N718   N     0.37363   0.19570   0.88809   0.00000  Uiso   1.00
O719   O     0.37291   0.10655   0.75000   0.00000  Uiso   1.00
O720   O     0.62709   0.22678   0.75000   0.00000  Uiso   1.00
O721   O     0.62706   0.10654   0.75001   0.00000  Uiso   1.00
O722   O     0.37294   0.22679   0.74999   0.00000  Uiso   1.00
O723   O     0.35186   0.16668   0.81491   0.00000  Uiso   1.00
O724   O     0.64814   0.16666   0.68509   0.00000  Uiso   1.00
O725   O     0.60600   0.16667   0.81492   0.00000  Uiso   1.00
O726   O     0.39400   0.16667   0.68508   0.00000  Uiso   1.00
C727   C     0.99998   0.08735   0.75003   0.00000  Uiso   1.00
C728   C     0.70922   0.02129   0.75012   0.00000  Uiso   1.00
C729   C     0.66668   0.29060   0.74998   0.00000  Uiso   1.00
C730   C     0.99998   0.04274   0.75004   0.00000  Uiso   1.00
C731   C     0.84979   0.14272   0.77960   0.00000  Uiso   1.00
C732   C     0.81688   0.19063   0.72041   0.00000  Uiso   1.00
C733   C     0.80016   0.14277   0.77962   0.00000  Uiso   1.00
C734   C     0.86650   0.19059   0.72040   0.00000  Uiso   1.00
C735   C     0.97302   0.16751   0.83622   0.00000  Uiso   1.00
C736   C     0.69367   0.16616   0.66373   0.00000  Uiso   1.00
C737   C     0.95861   0.17156   0.88553   0.00000  Uiso   1.00
C738   C     0.66669   0.24598   0.74998   0.00000  Uiso   1.00
C739   C     0.70810   0.16420   0.61419   0.00000  Uiso   1.00
C740   C     0.97256   0.19375   0.95609   0.00000  Uiso   1.00
C741   C     0.69279   0.14877   0.54226   0.00000  Uiso   1.00
C742   C     0.99047   0.18658   0.91002   0.00000  Uiso   1.00
C743   C     0.67534   0.15339   0.58876   0.00000  Uiso   1.00
C744   C     0.91019   0.16323   0.90777   0.00000  Uiso   1.00
C745   C     0.75695   0.17142   0.59235   0.00000  Uiso   1.00
C746   C     0.89118   0.17199   0.95357   0.00000  Uiso   1.00
C747   C     0.77487   0.16749   0.54560   0.00000  Uiso   1.00
C748   C     0.92359   0.18683   0.97773   0.00000  Uiso   1.00
C749   C     0.85866   0.18896   0.54562   0.00000  Uiso   1.00
C750   C     0.74186   0.15533   0.52082   0.00000  Uiso   1.00
C751   C     0.84100   0.16674   0.97590   0.00000  Uiso   1.00
C752   C     0.82471   0.17433   0.52296   0.00000  Uiso   1.00
C753   C     0.80640   0.15506   0.95260   0.00000  Uiso   1.00
C754   C     0.90692   0.19518   0.52330   0.00000  Uiso   1.00
C755   C     0.75797   0.14952   0.97474   0.00000  Uiso   1.00
C756   C     0.95742   0.02128   0.74995   0.00000  Uiso   1.00
C757   C     0.70923   0.31205   0.75008   0.00000  Uiso   1.00
C758   C     0.95744   0.31204   0.74992   0.00000  Uiso   1.00
Cu759  Cu    0.71355   0.16667   0.75000   0.00000  Uiso   1.00
Cu760  Cu    0.95311   0.16666   0.75000   0.00000  Uiso   1.00
H761   H     0.93146   0.20684   0.54196   0.00000  Uiso   1.00
H762   H     0.74252   0.29605   0.75013   0.00000  Uiso   1.00
H763   H     0.92417   0.29603   0.74983   0.00000  Uiso   1.00
H764   H     0.74249   0.03730   0.75020   0.00000  Uiso   1.00
H765   H     0.86180   0.12345   0.80326   0.00000  Uiso   1.00
H766   H     0.80486   0.20990   0.69676   0.00000  Uiso   1.00
H767   H     0.77475   0.12360   0.80331   0.00000  Uiso   1.00
H768   H     0.89190   0.20978   0.69674   0.00000  Uiso   1.00
H769   H     0.94156   0.17467   0.61735   0.00000  Uiso   1.00
H770   H     0.94141   0.13143   0.58793   0.00000  Uiso   1.00
H771   H     0.72539   0.16767   0.88150   0.00000  Uiso   1.00
H772   H     0.73288   0.14024   0.95558   0.00000  Uiso   1.00
H773   H     0.72320   0.21203   0.90950   0.00000  Uiso   1.00
H774   H     0.78062   0.17917   0.61306   0.00000  Uiso   1.00
H775   H     0.88804   0.14988   0.88814   0.00000  Uiso   1.00
H776   H     0.99681   0.20548   0.97501   0.00000  Uiso   1.00
H777   H     0.66796   0.13962   0.52275   0.00000  Uiso   1.00
H778   H     0.84925   0.19699   0.58061   0.00000  Uiso   1.00
H779   H     0.81504   0.15054   0.91688   0.00000  Uiso   1.00
H780   H     0.92414   0.03728   0.74991   0.00000  Uiso   1.00
N781   N     0.78403   0.16668   0.74999   0.00000  Uiso   1.00
N782   N     0.88264   0.16666   0.75001   0.00000  Uiso   1.00
N783   N     0.95828   0.14599   0.61005   0.00000  Uiso   1.00
N784   N     0.70696   0.19570   0.88809   0.00000  Uiso   1.00
O785   O     0.70625   0.10655   0.75000   0.00000  Uiso   1.00
O786   O     0.96042   0.22678   0.75000   0.00000  Uiso   1.00
O787   O     0.96039   0.10654   0.75001   0.00000  Uiso   1.00
O788   O     0.70628   0.22679   0.74999   0.00000  Uiso   1.00
O789   O     0.68519   0.16668   0.81491   0.00000  Uiso   1.00
O790   O     0.98148   0.16666   0.68509   0.00000  Uiso   1.00
O791   O     0.93933   0.16667   0.81492   0.00000  Uiso   1.00
O792   O     0.72733   0.16667   0.68508   0.00000  Uiso   1.00
C793   C     0.33331   0.42068   0.75003   0.00000  Uiso   1.00
C794   C     0.04255   0.35462   0.75012   0.00000  Uiso   1.00
C795   C     0.00001   0.62393   0.74998   0.00000  Uiso   1.00
C796   C     0.33332   0.37607   0.75004   0.00000  Uiso   1.00
C797   C     0.18312   0.47605   0.77960   0.00000  Uiso   1.00
C798   C     0.15021   0.52396   0.72041   0.00000  Uiso   1.00
C799   C     0.13349   0.47610   0.77962   0.00000  Uiso   1.00
C800   C     0.19984   0.52392   0.72040   0.00000  Uiso   1.00
C801   C     0.30635   0.50085   0.83622   0.00000  Uiso   1.00
C802   C     0.02701   0.49950   0.66373   0.00000  Uiso   1.00
C803   C     0.29194   0.50490   0.88553   0.00000  Uiso   1.00
C804   C     0.00002   0.57932   0.74998   0.00000  Uiso   1.00
C805   C     0.04143   0.49754   0.61419   0.00000  Uiso   1.00
C806   C     0.30589   0.52709   0.95609   0.00000  Uiso   1.00
C807   C     0.02612   0.48210   0.54226   0.00000  Uiso   1.00
C808   C     0.32380   0.51992   0.91002   0.00000  Uiso   1.00
C809   C     0.00867   0.48672   0.58876   0.00000  Uiso   1.00
C810   C     0.24352   0.49656   0.90777   0.00000  Uiso   1.00
C811   C     0.09029   0.50476   0.59235   0.00000  Uiso   1.00
C812   C     0.22451   0.50532   0.95357   0.00000  Uiso   1.00
C813   C     0.10821   0.50083   0.54560   0.00000  Uiso   1.00
C814   C     0.25693   0.52016   0.97773   0.00000  Uiso   1.00
C815   C     0.19199   0.52229   0.54562   0.00000  Uiso   1.00
C816   C     0.07520   0.48866   0.52082   0.00000  Uiso   1.00
C817   C     0.17434   0.50008   0.97590   0.00000  Uiso   1.00
C818   C     0.15804   0.50766   0.52296   0.00000  Uiso   1.00
C819   C     0.13973   0.48839   0.95260   0.00000  Uiso   1.00
C820   C     0.24026   0.52852   0.52330   0.00000  Uiso   1.00
C821   C     0.09131   0.48285   0.97474   0.00000  Uiso   1.00
C822   C     0.29076   0.35461   0.74995   0.00000  Uiso   1.00
C823   C     0.04257   0.64539   0.75008   0.00000  Uiso   1.00
C824   C     0.29077   0.64538   0.74992   0.00000  Uiso   1.00
Cu825  Cu    0.04689   0.50001   0.75000   0.00000  Uiso   1.00
Cu826  Cu    0.28645   0.49999   0.75000   0.00000  Uiso   1.00
H827   H     0.26479   0.54018   0.54196   0.00000  Uiso   1.00
H828   H     0.07585   0.62938   0.75013   0.00000  Uiso   1.00
H829   H     0.25750   0.62937   0.74983   0.00000  Uiso   1.00
H830   H     0.07582   0.37063   0.75020   0.00000  Uiso   1.00
H831   H     0.19513   0.45678   0.80326   0.00000  Uiso   1.00
H832   H     0.13820   0.54323   0.69676   0.00000  Uiso   1.00
H833   H     0.10809   0.45693   0.80331   0.00000  Uiso   1.00
H834   H     0.22523   0.54312   0.69674   0.00000  Uiso   1.00
H835   H     0.27490   0.50801   0.61735   0.00000  Uiso   1.00
H836   H     0.27474   0.46477   0.58793   0.00000  Uiso   1.00
H837   H     0.05872   0.50101   0.88150   0.00000  Uiso   1.00
H838   H     0.06621   0.47357   0.95558   0.00000  Uiso   1.00
H839   H     0.05653   0.54537   0.90950   0.00000  Uiso   1.00
H840   H     0.11395   0.51251   0.61306   0.00000  Uiso   1.00
H841   H     0.22137   0.48321   0.88814   0.00000  Uiso   1.00
H842   H     0.33014   0.53881   0.97501   0.00000  Uiso   1.00
H843   H     0.00130   0.47296   0.52275   0.00000  Uiso   1.00
H844   H     0.18258   0.53032   0.58061   0.00000  Uiso   1.00
H845   H     0.14837   0.48387   0.91688   0.00000  Uiso   1.00
H846   H     0.25747   0.37062   0.74991   0.00000  Uiso   1.00
N847   N     0.11736   0.50001   0.74999   0.00000  Uiso   1.00
N848   N     0.21597   0.49999   0.75001   0.00000  Uiso   1.00
N849   N     0.29161   0.47932   0.61005   0.00000  Uiso   1.00
N850   N     0.04030   0.52903   0.88809   0.00000  Uiso   1.00
O851   O     0.03958   0.43989   0.75000   0.00000  Uiso   1.00
O852   O     0.29375   0.56011   0.75000   0.00000  Uiso   1.00
O853   O     0.29372   0.43988   0.75001   0.00000  Uiso   1.00
O854   O     0.03961   0.56012   0.74999   0.00000  Uiso   1.00
O855   O     0.01852   0.50001   0.81491   0.00000  Uiso   1.00
O856   O     0.31481   0.49999   0.68509   0.00000  Uiso   1.00
O857   O     0.27267   0.50000   0.81492   0.00000  Uiso   1.00
O858   O     0.06067   0.50000   0.68508   0.00000  Uiso   1.00
C859   C     0.66665   0.42068   0.75003   0.00000  Uiso   1.00
C860   C     0.37588   0.35462   0.75012   0.00000  Uiso   1.00
C861   C     0.33334   0.62393   0.74998   0.00000  Uiso   1.00
C862   C     0.66665   0.37607   0.75004   0.00000  Uiso   1.00
C863   C     0.51645   0.47605   0.77960   0.00000  Uiso   1.00
C864   C     0.48354   0.52396   0.72041   0.00000  Uiso   1.00
C865   C     0.46683   0.47610   0.77962   0.00000  Uiso   1.00
C866   C     0.53317   0.52392   0.72040   0.00000  Uiso   1.00
C867   C     0.63968   0.50085   0.83622   0.00000  Uiso   1.00
C868   C     0.36034   0.49950   0.66373   0.00000  Uiso   1.00
C869   C     0.62528   0.50490   0.88553   0.00000  Uiso   1.00
C870   C     0.33335   0.57932   0.74998   0.00000  Uiso   1.00
C871   C     0.37476   0.49754   0.61419   0.00000  Uiso   1.00
C872   C     0.63923   0.52709   0.95609   0.00000  Uiso   1.00
C873   C     0.35945   0.48210   0.54226   0.00000  Uiso   1.00
C874   C     0.65714   0.51992   0.91002   0.00000  Uiso   1.00
C875   C     0.34200   0.48672   0.58876   0.00000  Uiso   1.00
C876   C     0.57686   0.49656   0.90777   0.00000  Uiso   1.00
C877   C     0.42362   0.50476   0.59235   0.00000  Uiso   1.00
C878   C     0.55785   0.50532   0.95357   0.00000  Uiso   1.00
C879   C     0.44154   0.50083   0.54560   0.00000  Uiso   1.00
C880   C     0.59026   0.52016   0.97773   0.00000  Uiso   1.00
C881   C     0.52532   0.52229   0.54562   0.00000  Uiso   1.00
C882   C     0.40853   0.48866   0.52082   0.00000  Uiso   1.00
C883   C     0.50767   0.50008   0.97590   0.00000  Uiso   1.00
C884   C     0.49137   0.50766   0.52296   0.00000  Uiso   1.00
C885   C     0.47307   0.48839   0.95260   0.00000  Uiso   1.00
C886   C     0.57359   0.52852   0.52330   0.00000  Uiso   1.00
C887   C     0.42464   0.48285   0.97474   0.00000  Uiso   1.00
C888   C     0.62409   0.35461   0.74995   0.00000  Uiso   1.00
C889   C     0.37590   0.64539   0.75008   0.00000  Uiso   1.00
C890   C     0.62411   0.64538   0.74992   0.00000  Uiso   1.00
Cu891  Cu    0.38022   0.50001   0.75000   0.00000  Uiso   1.00
Cu892  Cu    0.61978   0.49999   0.75000   0.00000  Uiso   1.00
H893   H     0.59812   0.54018   0.54196   0.00000  Uiso   1.00
H894   H     0.40919   0.62938   0.75013   0.00000  Uiso   1.00
H895   H     0.59084   0.62937   0.74983   0.00000  Uiso   1.00
H896   H     0.40915   0.37063   0.75020   0.00000  Uiso   1.00
H897   H     0.52847   0.45678   0.80326   0.00000  Uiso   1.00
H898   H     0.47153   0.54323   0.69676   0.00000  Uiso   1.00
H899   H     0.44142   0.45693   0.80331   0.00000  Uiso   1.00
H900   H     0.55857   0.54312   0.69674   0.00000  Uiso   1.00
H901   H     0.60823   0.50801   0.61735   0.00000  Uiso   1.00
H902   H     0.60808   0.46477   0.58793   0.00000  Uiso   1.00
H903   H     0.39205   0.50101   0.88150   0.00000  Uiso   1.00
H904   H     0.39954   0.47357   0.95558   0.00000  Uiso   1.00
H905   H     0.38986   0.54537   0.90950   0.00000  Uiso   1.00
H906   H     0.44728   0.51251   0.61306   0.00000  Uiso   1.00
H907   H     0.55470   0.48321   0.88814   0.00000  Uiso   1.00
H908   H     0.66347   0.53881   0.97501   0.00000  Uiso   1.00
H909   H     0.33463   0.47296   0.52275   0.00000  Uiso   1.00
H910   H     0.51591   0.53032   0.58061   0.00000  Uiso   1.00
H911   H     0.48171   0.48387   0.91688   0.00000  Uiso   1.00
H912   H     0.59081   0.37062   0.74991   0.00000  Uiso   1.00
N913   N     0.45069   0.50001   0.74999   0.00000  Uiso   1.00
N914   N     0.54931   0.49999   0.75001   0.00000  Uiso   1.00
N915   N     0.62495   0.47932   0.61005   0.00000  Uiso   1.00
N916   N     0.37363   0.52903   0.88809   0.00000  Uiso   1.00
O917   O     0.37291   0.43989   0.75000   0.00000  Uiso   1.00
O918   O     0.62709   0.56011   0.75000   0.00000  Uiso   1.00
O919   O     0.62706   0.43988   0.75001   0.00000  Uiso   1.00
O920   O     0.37294   0.56012   0.74999   0.00000  Uiso   1.00
O921   O     0.35186   0.50001   0.81491   0.00000  Uiso   1.00
O922   O     0.64814   0.49999   0.68509   0.00000  Uiso   1.00
O923   O     0.60600   0.50000   0.81492   0.00000  Uiso   1.00
O924   O     0.39400   0.50000   0.68508   0.00000  Uiso   1.00
C925   C     0.99998   0.42068   0.75003   0.00000  Uiso   1.00
C926   C     0.70922   0.35462   0.75012   0.00000  Uiso   1.00
C927   C     0.66668   0.62393   0.74998   0.00000  Uiso   1.00
C928   C     0.99998   0.37607   0.75004   0.00000  Uiso   1.00
C929   C     0.84979   0.47605   0.77960   0.00000  Uiso   1.00
C930   C     0.81688   0.52396   0.72041   0.00000  Uiso   1.00
C931   C     0.80016   0.47610   0.77962   0.00000  Uiso   1.00
C932   C     0.86650   0.52392   0.72040   0.00000  Uiso   1.00
C933   C     0.97302   0.50085   0.83622   0.00000  Uiso   1.00
C934   C     0.69367   0.49950   0.66373   0.00000  Uiso   1.00
C935   C     0.95861   0.50490   0.88553   0.00000  Uiso   1.00
C936   C     0.66669   0.57932   0.74998   0.00000  Uiso   1.00
C937   C     0.70810   0.49754   0.61419   0.00000  Uiso   1.00
C938   C     0.97256   0.52709   0.95609   0.00000  Uiso   1.00
C939   C     0.69279   0.48210   0.54226   0.00000  Uiso   1.00
C940   C     0.99047   0.51992   0.91002   0.00000  Uiso   1.00
C941   C     0.67534   0.48672   0.58876   0.00000  Uiso   1.00
C942   C     0.91019   0.49656   0.90777   0.00000  Uiso   1.00
C943   C     0.75695   0.50476   0.59235   0.00000  Uiso   1.00
C944   C     0.89118   0.50532   0.95357   0.00000  Uiso   1.00
C945   C     0.77487   0.50083   0.54560   0.00000  Uiso   1.00
C946   C     0.92359   0.52016   0.97773   0.00000  Uiso   1.00
C947   C     0.85866   0.52229   0.54562   0.00000  Uiso   1.00
C948   C     0.74186   0.48866   0.52082   0.00000  Uiso   1.00
C949   C     0.84100   0.50008   0.97590   0.00000  Uiso   1.00
C950   C     0.82471   0.50766   0.52296   0.00000  Uiso   1.00
C951   C     0.80640   0.48839   0.95260   0.00000  Uiso   1.00
C952   C     0.90692   0.52852   0.52330   0.00000  Uiso   1.00
C953   C     0.75797   0.48285   0.97474   0.00000  Uiso   1.00
C954   C     0.95742   0.35461   0.74995   0.00000  Uiso   1.00
C955   C     0.70923   0.64539   0.75008   0.00000  Uiso   1.00
C956   C     0.95744   0.64538   0.74992   0.00000  Uiso   1.00
Cu957  Cu    0.71355   0.50001   0.75000   0.00000  Uiso   1.00
Cu958  Cu    0.95311   0.49999   0.75000   0.00000  Uiso   1.00
H959   H     0.93146   0.54018   0.54196   0.00000  Uiso   1.00
H960   H     0.74252   0.62938   0.75013   0.00000  Uiso   1.00
H961   H     0.92417   0.62937   0.74983   0.00000  Uiso   1.00
H962   H     0.74249   0.37063   0.75020   0.00000  Uiso   1.00
H963   H     0.86180   0.45678   0.80326   0.00000  Uiso   1.00
H964   H     0.80486   0.54323   0.69676   0.00000  Uiso   1.00
H965   H     0.77475   0.45693   0.80331   0.00000  Uiso   1.00
H966   H     0.89190   0.54312   0.69674   0.00000  Uiso   1.00
H967   H     0.94156   0.50801   0.61735   0.00000  Uiso   1.00
H968   H     0.94141   0.46477   0.58793   0.00000  Uiso   1.00
H969   H     0.72539   0.50101   0.88150   0.00000  Uiso   1.00
H970   H     0.73288   0.47357   0.95558   0.00000  Uiso   1.00
H971   H     0.72320   0.54537   0.90950   0.00000  Uiso   1.00
H972   H     0.78062   0.51251   0.61306   0.00000  Uiso   1.00
H973   H     0.88804   0.48321   0.88814   0.00000  Uiso   1.00
H974   H     0.99681   0.53881   0.97501   0.00000  Uiso   1.00
H975   H     0.66796   0.47296   0.52275   0.00000  Uiso   1.00
H976   H     0.84925   0.53032   0.58061   0.00000  Uiso   1.00
H977   H     0.81504   0.48387   0.91688   0.00000  Uiso   1.00
H978   H     0.92414   0.37062   0.74991   0.00000  Uiso   1.00
N979   N     0.78403   0.50001   0.74999   0.00000  Uiso   1.00
N980   N     0.88264   0.49999   0.75001   0.00000  Uiso   1.00
N981   N     0.95828   0.47932   0.61005   0.00000  Uiso   1.00
N982   N     0.70696   0.52903   0.88809   0.00000  Uiso   1.00
O983   O     0.70625   0.43989   0.75000   0.00000  Uiso   1.00
O984   O     0.96042   0.56011   0.75000   0.00000  Uiso   1.00
O985   O     0.96039   0.43988   0.75001   0.00000  Uiso   1.00
O986   O     0.70628   0.56012   0.74999   0.00000  Uiso   1.00
O987   O     0.68519   0.50001   0.81491   0.00000  Uiso   1.00
O988   O     0.98148   0.49999   0.68509   0.00000  Uiso   1.00
O989   O     0.93933   0.50000   0.81492   0.00000  Uiso   1.00
O990   O     0.72733   0.50000   0.68508   0.00000  Uiso   1.00
C991   C     0.33331   0.75402   0.75003   0.00000  Uiso   1.00
C992   C     0.04255   0.68795   0.75012   0.00000  Uiso   1.00
C993   C     0.00001   0.95726   0.74998   0.00000  Uiso   1.00
C994   C     0.33332   0.70940   0.75004   0.00000  Uiso   1.00
C995   C     0.18312   0.80938   0.77960   0.00000  Uiso   1.00
C996   C     0.15021   0.85729   0.72041   0.00000  Uiso   1.00
C997   C     0.13349   0.80943   0.77962   0.00000  Uiso   1.00
C998   C     0.19984   0.85725   0.72040   0.00000  Uiso   1.00
C999   C     0.30635   0.83418   0.83622   0.00000  Uiso   1.00
C1000  C     0.02701   0.83283   0.66373   0.00000  Uiso   1.00
C1001  C     0.29194   0.83823   0.88553   0.00000  Uiso   1.00
C1002  C     0.00002   0.91265   0.74998   0.00000  Uiso   1.00
C1003  C     0.04143   0.83087   0.61419   0.00000  Uiso   1.00
C1004  C     0.30589   0.86042   0.95609   0.00000  Uiso   1.00
C1005  C     0.02612   0.81544   0.54226   0.00000  Uiso   1.00
C1006  C     0.32380   0.85325   0.91002   0.00000  Uiso   1.00
C1007  C     0.00867   0.82005   0.58876   0.00000  Uiso   1.00
C1008  C     0.24352   0.82990   0.90777   0.00000  Uiso   1.00
C1009  C     0.09029   0.83809   0.59235   0.00000  Uiso   1.00
C1010  C     0.22451   0.83866   0.95357   0.00000  Uiso   1.00
C1011  C     0.10821   0.83416   0.54560   0.00000  Uiso   1.00
C1012  C     0.25693   0.85350   0.97773   0.00000  Uiso   1.00
C1013  C     0.19199   0.85563   0.54562   0.00000  Uiso   1.00
C1014  C     0.07520   0.82200   0.52082   0.00000  Uiso   1.00
C1015  C     0.17434   0.83341   0.97590   0.00000  Uiso   1.00
C1016  C     0.15804   0.84099   0.52296   0.00000  Uiso   1.00
C1017  C     0.13973   0.82172   0.95260   0.00000  Uiso   1.00
C1018  C     0.24026   0.86185   0.52330   0.00000  Uiso   1.00
C1019  C     0.09131   0.81619   0.97474   0.00000  Uiso   1.00
C1020  C     0.29076   0.68794   0.74995   0.00000  Uiso   1.00
C1021  C     0.04257   0.97872   0.75008   0.00000  Uiso   1.00
C1022  C     0.29077   0.97871   0.74992   0.00000  Uiso   1.00
Cu1023 Cu    0.04689   0.83334   0.75000   0.00000  Uiso   1.00
Cu1024 Cu    0.28645   0.83333   0.75000   0.00000  Uiso   1.00
H1025  H     0.26479   0.87351   0.54196   0.00000  Uiso   1.00
H1026  H     0.07585   0.96271   0.75013   0.00000  Uiso   1.00
H1027  H     0.25750   0.96270   0.74983   0.00000  Uiso   1.00
H1028  H     0.07582   0.70397   0.75020   0.00000  Uiso   1.00
H1029  H     0.19513   0.79012   0.80326   0.00000  Uiso   1.00
H1030  H     0.13820   0.87657   0.69676   0.00000  Uiso   1.00
H1031  H     0.10809   0.79027   0.80331   0.00000  Uiso   1.00
H1032  H     0.22523   0.87645   0.69674   0.00000  Uiso   1.00
H1033  H     0.27490   0.84134   0.61735   0.00000  Uiso   1.00
H1034  H     0.27474   0.79810   0.58793   0.00000  Uiso   1.00
H1035  H     0.05872   0.83434   0.88150   0.00000  Uiso   1.00
H1036  H     0.06621   0.80691   0.95558   0.00000  Uiso   1.00
H1037  H     0.05653   0.87870   0.90950   0.00000  Uiso   1.00
H1038  H     0.11395   0.84584   0.61306   0.00000  Uiso   1.00
H1039  H     0.22137   0.81654   0.88814   0.00000  Uiso   1.00
H1040  H     0.33014   0.87214   0.97501   0.00000  Uiso   1.00
H1041  H     0.00130   0.80629   0.52275   0.00000  Uiso   1.00
H1042  H     0.18258   0.86365   0.58061   0.00000  Uiso   1.00
H1043  H     0.14837   0.81721   0.91688   0.00000  Uiso   1.00
H1044  H     0.25747   0.70395   0.74991   0.00000  Uiso   1.00
N1045  N     0.11736   0.83334   0.74999   0.00000  Uiso   1.00
N1046  N     0.21597   0.83332   0.75001   0.00000  Uiso   1.00
N1047  N     0.29161   0.81265   0.61005   0.00000  Uiso   1.00
N1048  N     0.04030   0.86237   0.88809   0.00000  Uiso   1.00
O1049  O     0.03958   0.77322   0.75000   0.00000  Uiso   1.00
O1050  O     0.29375   0.89345   0.75000   0.00000  Uiso   1.00
O1051  O     0.29372   0.77321   0.75001   0.00000  Uiso   1.00
O1052  O     0.03961   0.89346   0.74999   0.00000  Uiso   1.00
O1053  O     0.01852   0.83334   0.81491   0.00000  Uiso   1.00
O1054  O     0.31481   0.83332   0.68509   0.00000  Uiso   1.00
O1055  O     0.27267   0.83333   0.81492   0.00000  Uiso   1.00
O1056  O     0.06067   0.83333   0.68508   0.00000  Uiso   1.00
C1057  C     0.66665   0.75402   0.75003   0.00000  Uiso   1.00
C1058  C     0.37588   0.68795   0.75012   0.00000  Uiso   1.00
C1059  C     0.33334   0.95726   0.74998   0.00000  Uiso   1.00
C1060  C     0.66665   0.70940   0.75004   0.00000  Uiso   1.00
C1061  C     0.51645   0.80938   0.77960   0.00000  Uiso   1.00
C1062  C     0.48354   0.85729   0.72041   0.00000  Uiso   1.00
C1063  C     0.46683   0.80943   0.77962   0.00000  Uiso   1.00
C1064  C     0.53317   0.85725   0.72040   0.00000  Uiso   1.00
C1065  C     0.63968   0.83418   0.83622   0.00000  Uiso   1.00
C1066  C     0.36034   0.83283   0.66373   0.00000  Uiso   1.00
C1067  C     0.62528   0.83823   0.88553   0.00000  Uiso   1.00
C1068  C     0.33335   0.91265   0.74998   0.00000  Uiso   1.00
C1069  C     0.37476   0.83087   0.61419   0.00000  Uiso   1.00
C1070  C     0.63923   0.86042   0.95609   0.00000  Uiso   1.00
C1071  C     0.35945   0.81544   0.54226   0.00000  Uiso   1.00
C1072  C     0.65714   0.85325   0.91002   0.00000  Uiso   1.00
C1073  C     0.34200   0.82005   0.58876   0.00000  Uiso   1.00
C1074  C     0.57686   0.82990   0.90777   0.00000  Uiso   1.00
C1075  C     0.42362   0.83809   0.59235   0.00000  Uiso   1.00
C1076  C     0.55785   0.83866   0.95357   0.00000  Uiso   1.00
C1077  C     0.44154   0.83416   0.54560   0.00000  Uiso   1.00
C1078  C     0.59026   0.85350   0.97773   0.00000  Uiso   1.00
C1079  C     0.52532   0.85563   0.54562   0.00000  Uiso   1.00
C1080  C     0.40853   0.82200   0.52082   0.00000  Uiso   1.00
C1081  C     0.50767   0.83341   0.97590   0.00000  Uiso   1.00
C1082  C     0.49137   0.84099   0.52296   0.00000  Uiso   1.00
C1083  C     0.47307   0.82172   0.95260   0.00000  Uiso   1.00
C1084  C     0.57359   0.86185   0.52330   0.00000  Uiso   1.00
C1085  C     0.42464   0.81619   0.97474   0.00000  Uiso   1.00
C1086  C     0.62409   0.68794   0.74995   0.00000  Uiso   1.00
C1087  C     0.37590   0.97872   0.75008   0.00000  Uiso   1.00
C1088  C     0.62411   0.97871   0.74992   0.00000  Uiso   1.00
Cu1089 Cu    0.38022   0.83334   0.75000   0.00000  Uiso   1.00
Cu1090 Cu    0.61978   0.83333   0.75000   0.00000  Uiso   1.00
H1091  H     0.59812   0.87351   0.54196   0.00000  Uiso   1.00
H1092  H     0.40919   0.96271   0.75013   0.00000  Uiso   1.00
H1093  H     0.59084   0.96270   0.74983   0.00000  Uiso   1.00
H1094  H     0.40915   0.70397   0.75020   0.00000  Uiso   1.00
H1095  H     0.52847   0.79012   0.80326   0.00000  Uiso   1.00
H1096  H     0.47153   0.87657   0.69676   0.00000  Uiso   1.00
H1097  H     0.44142   0.79027   0.80331   0.00000  Uiso   1.00
H1098  H     0.55857   0.87645   0.69674   0.00000  Uiso   1.00
H1099  H     0.60823   0.84134   0.61735   0.00000  Uiso   1.00
H1100  H     0.60808   0.79810   0.58793   0.00000  Uiso   1.00
H1101  H     0.39205   0.83434   0.88150   0.00000  Uiso   1.00
H1102  H     0.39954   0.80691   0.95558   0.00000  Uiso   1.00
H1103  H     0.38986   0.87870   0.90950   0.00000  Uiso   1.00
H1104  H     0.44728   0.84584   0.61306   0.00000  Uiso   1.00
H1105  H     0.55470   0.81654   0.88814   0.00000  Uiso   1.00
H1106  H     0.66347   0.87214   0.97501   0.00000  Uiso   1.00
H1107  H     0.33463   0.80629   0.52275   0.00000  Uiso   1.00
H1108  H     0.51591   0.86365   0.58061   0.00000  Uiso   1.00
H1109  H     0.48171   0.81721   0.91688   0.00000  Uiso   1.00
H1110  H     0.59081   0.70395   0.74991   0.00000  Uiso   1.00
N1111  N     0.45069   0.83334   0.74999   0.00000  Uiso   1.00
N1112  N     0.54931   0.83332   0.75001   0.00000  Uiso   1.00
N1113  N     0.62495   0.81265   0.61005   0.00000  Uiso   1.00
N1114  N     0.37363   0.86237   0.88809   0.00000  Uiso   1.00
O1115  O     0.37291   0.77322   0.75000   0.00000  Uiso   1.00
O1116  O     0.62709   0.89345   0.75000   0.00000  Uiso   1.00
O1117  O     0.62706   0.77321   0.75001   0.00000  Uiso   1.00
O1118  O     0.37294   0.89346   0.74999   0.00000  Uiso   1.00
O1119  O     0.35186   0.83334   0.81491   0.00000  Uiso   1.00
O1120  O     0.64814   0.83332   0.68509   0.00000  Uiso   1.00
O1121  O     0.60600   0.83333   0.81492   0.00000  Uiso   1.00
O1122  O     0.39400   0.83333   0.68508   0.00000  Uiso   1.00
C1123  C     0.99998   0.75402   0.75003   0.00000  Uiso   1.00
C1124  C     0.70922   0.68795   0.75012   0.00000  Uiso   1.00
C1125  C     0.66668   0.95726   0.74998   0.00000  Uiso   1.00
C1126  C     0.99998   0.70940   0.75004   0.00000  Uiso   1.00
C1127  C     0.84979   0.80938   0.77960   0.00000  Uiso   1.00
C1128  C     0.81688   0.85729   0.72041   0.00000  Uiso   1.00
C1129  C     0.80016   0.80943   0.77962   0.00000  Uiso   1.00
C1130  C     0.86650   0.85725   0.72040   0.00000  Uiso   1.00
C1131  C     0.97302   0.83418   0.83622   0.00000  Uiso   1.00
C1132  C     0.69367   0.83283   0.66373   0.00000  Uiso   1.00
C1133  C     0.95861   0.83823   0.88553   0.00000  Uiso   1.00
C1134  C     0.66669   0.91265   0.74998   0.00000  Uiso   1.00
C1135  C     0.70810   0.83087   0.61419   0.00000  Uiso   1.00
C1136  C     0.97256   0.86042   0.95609   0.00000  Uiso   1.00
C1137  C     0.69279   0.81544   0.54226   0.00000  Uiso   1.00
C1138  C     0.99047   0.85325   0.91002   0.00000  Uiso   1.00
C1139  C     0.67534   0.82005   0.58876   0.00000  Uiso   1.00
C1140  C     0.91019   0.82990   0.90777   0.00000  Uiso   1.00
C1141  C     0.75695   0.83809   0.59235   0.00000  Uiso   1.00
C1142  C     0.89118   0.83866   0.95357   0.00000  Uiso   1.00
C1143  C     0.77487   0.83416   0.54560   0.00000  Uiso   1.00
C1144  C     0.92359   0.85350   0.97773   0.00000  Uiso   1.00
C1145  C     0.85866   0.85563   0.54562   0.00000  Uiso   1.00
C1146  C     0.74186   0.82200   0.52082   0.00000  Uiso   1.00
C1147  C     0.84100   0.83341   0.97590   0.00000  Uiso   1.00
C1148  C     0.82471   0.84099   0.52296   0.00000  Uiso   1.00
C1149  C     0.80640   0.82172   0.95260   0.00000  Uiso   1.00
C1150  C     0.90692   0.86185   0.52330   0.00000  Uiso   1.00
C1151  C     0.75797   0.81619   0.97474   0.00000  Uiso   1.00
C1152  C     0.95742   0.68794   0.74995   0.00000  Uiso   1.00
C1153  C     0.70923   0.97872   0.75008   0.00000  Uiso   1.00
C1154  C     0.95744   0.97871   0.74992   0.00000  Uiso   1.00
Cu1155 Cu    0.71355   0.83334   0.75000   0.00000  Uiso   1.00
Cu1156 Cu    0.95311   0.83333   0.75000   0.00000  Uiso   1.00
H1157  H     0.93146   0.87351   0.54196   0.00000  Uiso   1.00
H1158  H     0.74252   0.96271   0.75013   0.00000  Uiso   1.00
H1159  H     0.92417   0.96270   0.74983   0.00000  Uiso   1.00
H1160  H     0.74249   0.70397   0.75020   0.00000  Uiso   1.00
H1161  H     0.86180   0.79012   0.80326   0.00000  Uiso   1.00
H1162  H     0.80486   0.87657   0.69676   0.00000  Uiso   1.00
H1163  H     0.77475   0.79027   0.80331   0.00000  Uiso   1.00
H1164  H     0.89190   0.87645   0.69674   0.00000  Uiso   1.00
H1165  H     0.94156   0.84134   0.61735   0.00000  Uiso   1.00
H1166  H     0.94141   0.79810   0.58793   0.00000  Uiso   1.00
H1167  H     0.72539   0.83434   0.88150   0.00000  Uiso   1.00
H1168  H     0.73288   0.80691   0.95558   0.00000  Uiso   1.00
H1169  H     0.72320   0.87870   0.90950   0.00000  Uiso   1.00
H1170  H     0.78062   0.84584   0.61306   0.00000  Uiso   1.00
H1171  H     0.88804   0.81654   0.88814   0.00000  Uiso   1.00
H1172  H     0.99681   0.87214   0.97501   0.00000  Uiso   1.00
H1173  H     0.66796   0.80629   0.52275   0.00000  Uiso   1.00
H1174  H     0.84925   0.86365   0.58061   0.00000  Uiso   1.00
H1175  H     0.81504   0.81721   0.91688   0.00000  Uiso   1.00
H1176  H     0.92414   0.70395   0.74991   0.00000  Uiso   1.00
N1177  N     0.78403   0.83334   0.74999   0.00000  Uiso   1.00
N1178  N     0.88264   0.83332   0.75001   0.00000  Uiso   1.00
N1179  N     0.95828   0.81265   0.61005   0.00000  Uiso   1.00
N1180  N     0.70696   0.86237   0.88809   0.00000  Uiso   1.00
O1181  O     0.70625   0.77322   0.75000   0.00000  Uiso   1.00
O1182  O     0.96042   0.89345   0.75000   0.00000  Uiso   1.00
O1183  O     0.96039   0.77321   0.75001   0.00000  Uiso   1.00
O1184  O     0.70628   0.89346   0.74999   0.00000  Uiso   1.00
O1185  O     0.68519   0.83334   0.81491   0.00000  Uiso   1.00
O1186  O     0.98148   0.83332   0.68509   0.00000  Uiso   1.00
O1187  O     0.93933   0.83333   0.81492   0.00000  Uiso   1.00
O1188  O     0.72733   0.83333   0.68508   0.00000  Uiso   1.00
loop_
_geom_bond_atom_site_label_1
_geom_bond_atom_site_label_2
_geom_bond_distance
_geom_bond_site_symmetry_2
_ccdc_geom_bond_type
C1     C4      1.450   .     S
C1     O61     1.291   .     A
C1     O125    1.291   .     S
C2     H38     1.083   .     S
C2     C136    1.401   1_455 S
C2     C427    1.383   1_545 S
C3     C31     1.401   .     A
C3     C12     1.450   .     S
C3     C164    1.401   1_455 S
C4     C30     1.401   .     A
C4     C68     1.401   .     S
C5     N56     1.367   .     A
C5     C7      1.416   .     A
C5     H39     1.082   .     S
C6     N55     1.367   .     A
C6     H40     1.082   .     S
C6     C8      1.416   .     A
C7     N55     1.366   .     A
C7     H41     1.082   .     S
C8     N56     1.366   .     A
C8     H42     1.082   .     S
C9     O65     1.298   .     A
C9     C11     1.476   .     S
C9     O129    1.295   .     S
C10    O66     1.298   .     A
C10    C13     1.478   .     S
C10    O196    1.295   1_455 S
C11    C18     1.400   .     A
C11    C16     1.412   .     A
C12    O62     1.291   .     A
C12    O192    1.291   1_455 S
C13    C17     1.413   .     A
C13    C19     1.402   .     A
C14    C22     1.401   .     A
C14    H50     1.084   .     S
C14    C16     1.400   .     A
C15    H51     1.084   .     S
C15    C24     1.401   .     A
C15    C17     1.400   .     A
C16    N124    1.438   .     S
C17    N189    1.437   1_455 S
C18    C20     1.406   .     A
C18    H49     1.075   .     S
C19    C21     1.406   .     A
C19    H48     1.074   .     S
C20    C22     1.416   .     A
C20    C25     1.429   .     A
C21    C26     1.429   .     A
C21    C24     1.415   .     A
C22    C622    1.390   .     S
C23    H52     1.075   .     S
C23    C28     1.385   .     A
C23    C26     1.417   .     A
C24    C623    1.389   1_554 S
C25    C27     1.416   .     A
C25    C620    1.427   .     S
C26    C619    1.427   1_554 S
C27    H53     1.076   .     S
C27    C29     1.385   .     A
C28    H35     1.084   .     S
C28    C616    1.390   1_554 S
C29    H46     1.084   .     S
C29    C618    1.389   .     S
C30    H54     1.083   .     S
C30    C428    1.383   1_545 S
C31    H36     1.083   .     S
C31    C200    1.383   .     S
C32    H37     1.083   .     S
C32    C69     1.401   .     S
C32    C228    1.383   .     S
Cu33   N55     2.011   .     S
Cu33   O63     1.956   .     S
Cu33   O59     1.965   .     S
Cu33   O66     1.939   .     S
Cu33   O62     1.965   .     S
Cu33   Cu166   2.676   1_455 S
Cu34   N56     2.011   .     S
Cu34   O60     1.965   .     S
Cu34   O65     1.939   .     S
Cu34   O64     1.956   .     S
Cu34   O61     1.965   .     S
Cu34   Cu99    2.676   .     S
H43    N57     1.045   .     S
H44    N57     1.046   .     S
H45    N58     1.045   .     S
H47    N58     1.046   .     S
N57    C83     1.437   .     S
N58    C148    1.438   1_455 S
O59    C133    1.291   1_455 S
O60    C78     1.291   .     S
O63    C141    1.295   1_455 S
O64    C76     1.295   .     S
C67    C70     1.450   .     S
C67    O127    1.291   .     A
C67    O191    1.291   .     S
C68    H104    1.083   .     S
C68    C493    1.383   1_545 S
C69    C97     1.401   .     A
C69    C78     1.450   .     S
C70    C96     1.401   .     A
C70    C134    1.401   .     S
C71    N122    1.367   .     A
C71    C73     1.416   .     A
C71    H105    1.082   .     S
C72    N121    1.367   .     A
C72    H106    1.082   .     S
C72    C74     1.416   .     A
C73    N121    1.366   .     A
C73    H107    1.082   .     S
C74    N122    1.366   .     A
C74    H108    1.082   .     S
C75    O131    1.298   .     A
C75    C77     1.476   .     S
C75    O195    1.295   .     S
C76    O132    1.298   .     A
C76    C79     1.478   .     S
C77    C84     1.400   .     A
C77    C82     1.412   .     A
C78    O128    1.291   .     A
C79    C83     1.413   .     A
C79    C85     1.402   .     A
C80    C88     1.401   .     A
C80    H116    1.084   .     S
C80    C82     1.400   .     A
C81    H117    1.084   .     S
C81    C90     1.401   .     A
C81    C83     1.400   .     A
C82    N190    1.438   .     S
C84    C86     1.406   .     A
C84    H115    1.075   .     S
C85    C87     1.406   .     A
C85    H114    1.074   .     S
C86    C88     1.416   .     A
C86    C91     1.429   .     A
C87    C92     1.429   .     A
C87    C90     1.415   .     A
C88    C688    1.390   .     S
C89    H118    1.075   .     S
C89    C94     1.385   .     A
C89    C92     1.417   .     A
C90    C689    1.389   1_554 S
C91    C93     1.416   .     A
C91    C686    1.427   .     S
C92    C685    1.427   1_554 S
C93    H119    1.076   .     S
C93    C95     1.385   .     A
C94    H101    1.084   .     S
C94    C682    1.390   1_554 S
C95    H112    1.084   .     S
C95    C684    1.389   .     S
C96    H120    1.083   .     S
C96    C494    1.383   1_545 S
C97    H102    1.083   .     S
C97    C266    1.383   .     S
C98    H103    1.083   .     S
C98    C135    1.401   .     S
C98    C294    1.383   .     S
Cu99   N121    2.011   .     S
Cu99   O129    1.956   .     S
Cu99   O125    1.965   .     S
Cu99   O132    1.939   .     S
Cu99   O128    1.965   .     S
Cu100  N122    2.011   .     S
Cu100  O126    1.965   .     S
Cu100  O131    1.939   .     S
Cu100  O130    1.956   .     S
Cu100  O127    1.965   .     S
Cu100  Cu165   2.676   .     S
H109   N123    1.045   .     S
H110   N123    1.046   .     S
H111   N124    1.045   .     S
H113   N124    1.046   .     S
N123   C149    1.437   .     S
O126   C144    1.291   .     S
O130   C142    1.295   .     S
C133   C136    1.450   .     S
C133   O193    1.291   .     A
C133   O59     1.291   1_655 S
C134   H170    1.083   .     S
C134   C559    1.383   1_545 S
C135   C163    1.401   .     A
C135   C144    1.450   .     S
C136   C162    1.401   .     A
C136   C2      1.401   1_655 S
C137   N188    1.367   .     A
C137   C139    1.416   .     A
C137   H171    1.082   .     S
C138   N187    1.367   .     A
C138   H172    1.082   .     S
C138   C140    1.416   .     A
C139   N187    1.366   .     A
C139   H173    1.082   .     S
C140   N188    1.366   .     A
C140   H174    1.082   .     S
C141   O197    1.298   .     A
C141   C143    1.476   .     S
C141   O63     1.295   1_655 S
C142   O198    1.298   .     A
C142   C145    1.478   .     S
C143   C150    1.400   .     A
C143   C148    1.412   .     A
C144   O194    1.291   .     A
C145   C149    1.413   .     A
C145   C151    1.402   .     A
C146   C154    1.401   .     A
C146   H182    1.084   .     S
C146   C148    1.400   .     A
C147   H183    1.084   .     S
C147   C156    1.401   .     A
C147   C149    1.400   .     A
C148   N58     1.438   1_655 S
C150   C152    1.406   .     A
C150   H181    1.075   .     S
C151   C153    1.406   .     A
C151   H180    1.074   .     S
C152   C154    1.416   .     A
C152   C157    1.429   .     A
C153   C158    1.429   .     A
C153   C156    1.415   .     A
C154   C754    1.390   .     S
C155   H184    1.075   .     S
C155   C160    1.385   .     A
C155   C158    1.417   .     A
C156   C755    1.389   1_554 S
C157   C159    1.416   .     A
C157   C752    1.427   .     S
C158   C751    1.427   1_554 S
C159   H185    1.076   .     S
C159   C161    1.385   .     A
C160   H167    1.084   .     S
C160   C748    1.390   1_554 S
C161   H178    1.084   .     S
C161   C750    1.389   .     S
C162   H186    1.083   .     S
C162   C560    1.383   1_545 S
C163   H168    1.083   .     S
C163   C332    1.383   .     S
C164   H169    1.083   .     S
C164   C3      1.401   1_655 S
C164   C360    1.383   .     S
Cu165  N187    2.011   .     S
Cu165  O195    1.956   .     S
Cu165  O191    1.965   .     S
Cu165  O198    1.939   .     S
Cu165  O194    1.965   .     S
Cu166  N188    2.011   .     S
Cu166  O192    1.965   .     S
Cu166  O197    1.939   .     S
Cu166  O196    1.956   .     S
Cu166  O193    1.965   .     S
Cu166  Cu33    2.676   1_655 S
H175   N189    1.045   .     S
H176   N189    1.046   .     S
H177   N190    1.045   .     S
H179   N190    1.046   .     S
N189   C17     1.437   1_655 S
O192   C12     1.291   1_655 S
O196   C10     1.295   1_655 S
C199   C202    1.450   .     S
C199   O259    1.291   .     A
C199   O323    1.291   .     S
C200   H236    1.083   .     S
C200   C334    1.401   1_455 S
C201   C229    1.401   .     A
C201   C210    1.450   .     S
C201   C362    1.401   1_455 S
C202   C228    1.401   .     A
C202   C266    1.401   .     S
C203   N254    1.367   .     A
C203   C205    1.416   .     A
C203   H237    1.082   .     S
C204   N253    1.367   .     A
C204   H238    1.082   .     S
C204   C206    1.416   .     A
C205   N253    1.366   .     A
C205   H239    1.082   .     S
C206   N254    1.366   .     A
C206   H240    1.082   .     S
C207   O263    1.298   .     A
C207   C209    1.476   .     S
C207   O327    1.295   .     S
C208   O264    1.298   .     A
C208   C211    1.478   .     S
C208   O394    1.295   1_455 S
C209   C216    1.400   .     A
C209   C214    1.412   .     A
C210   O260    1.291   .     A
C210   O390    1.291   1_455 S
C211   C215    1.413   .     A
C211   C217    1.402   .     A
C212   C220    1.401   .     A
C212   H248    1.084   .     S
C212   C214    1.400   .     A
C213   H249    1.084   .     S
C213   C222    1.401   .     A
C213   C215    1.400   .     A
C214   N322    1.438   .     S
C215   N387    1.437   1_455 S
C216   C218    1.406   .     A
C216   H247    1.075   .     S
C217   C219    1.406   .     A
C217   H246    1.074   .     S
C218   C220    1.416   .     A
C218   C223    1.429   .     A
C219   C224    1.429   .     A
C219   C222    1.415   .     A
C220   C820    1.390   .     S
C221   H250    1.075   .     S
C221   C226    1.385   .     A
C221   C224    1.417   .     A
C222   C821    1.389   1_554 S
C223   C225    1.416   .     A
C223   C818    1.427   .     S
C224   C817    1.427   1_554 S
C225   H251    1.076   .     S
C225   C227    1.385   .     A
C226   H233    1.084   .     S
C226   C814    1.390   1_554 S
C227   H244    1.084   .     S
C227   C816    1.389   .     S
C228   H252    1.083   .     S
C229   H234    1.083   .     S
C229   C398    1.383   .     S
C230   H235    1.083   .     S
C230   C267    1.401   .     S
C230   C426    1.383   .     S
Cu231  N253    2.011   .     S
Cu231  O261    1.956   .     S
Cu231  O257    1.965   .     S
Cu231  O264    1.939   .     S
Cu231  O260    1.965   .     S
Cu231  Cu364   2.676   1_455 S
Cu232  N254    2.011   .     S
Cu232  O258    1.965   .     S
Cu232  O263    1.939   .     S
Cu232  O262    1.956   .     S
Cu232  O259    1.965   .     S
Cu232  Cu297   2.676   .     S
H241   N255    1.045   .     S
H242   N255    1.046   .     S
H243   N256    1.045   .     S
H245   N256    1.046   .     S
N255   C281    1.437   .     S
N256   C346    1.438   1_455 S
O257   C331    1.291   1_455 S
O258   C276    1.291   .     S
O261   C339    1.295   1_455 S
O262   C274    1.295   .     S
C265   C268    1.450   .     S
C265   O325    1.291   .     A
C265   O389    1.291   .     S
C266   H302    1.083   .     S
C267   C295    1.401   .     A
C267   C276    1.450   .     S
C268   C294    1.401   .     A
C268   C332    1.401   .     S
C269   N320    1.367   .     A
C269   C271    1.416   .     A
C269   H303    1.082   .     S
C270   N319    1.367   .     A
C270   H304    1.082   .     S
C270   C272    1.416   .     A
C271   N319    1.366   .     A
C271   H305    1.082   .     S
C272   N320    1.366   .     A
C272   H306    1.082   .     S
C273   O329    1.298   .     A
C273   C275    1.476   .     S
C273   O393    1.295   .     S
C274   O330    1.298   .     A
C274   C277    1.478   .     S
C275   C282    1.400   .     A
C275   C280    1.412   .     A
C276   O326    1.291   .     A
C277   C281    1.413   .     A
C277   C283    1.402   .     A
C278   C286    1.401   .     A
C278   H314    1.084   .     S
C278   C280    1.400   .     A
C279   H315    1.084   .     S
C279   C288    1.401   .     A
C279   C281    1.400   .     A
C280   N388    1.438   .     S
C282   C284    1.406   .     A
C282   H313    1.075   .     S
C283   C285    1.406   .     A
C283   H312    1.074   .     S
C284   C286    1.416   .     A
C284   C289    1.429   .     A
C285   C290    1.429   .     A
C285   C288    1.415   .     A
C286   C886    1.390   .     S
C287   H316    1.075   .     S
C287   C292    1.385   .     A
C287   C290    1.417   .     A
C288   C887    1.389   1_554 S
C289   C291    1.416   .     A
C289   C884    1.427   .     S
C290   C883    1.427   1_554 S
C291   H317    1.076   .     S
C291   C293    1.385   .     A
C292   H299    1.084   .     S
C292   C880    1.390   1_554 S
C293   H310    1.084   .     S
C293   C882    1.389   .     S
C294   H318    1.083   .     S
C295   H300    1.083   .     S
C295   C464    1.383   .     S
C296   H301    1.083   .     S
C296   C333    1.401   .     S
C296   C492    1.383   .     S
Cu297  N319    2.011   .     S
Cu297  O327    1.956   .     S
Cu297  O323    1.965   .     S
Cu297  O330    1.939   .     S
Cu297  O326    1.965   .     S
Cu298  N320    2.011   .     S
Cu298  O324    1.965   .     S
Cu298  O329    1.939   .     S
Cu298  O328    1.956   .     S
Cu298  O325    1.965   .     S
Cu298  Cu363   2.676   .     S
H307   N321    1.045   .     S
H308   N321    1.046   .     S
H309   N322    1.045   .     S
H311   N322    1.046   .     S
N321   C347    1.437   .     S
O324   C342    1.291   .     S
O328   C340    1.295   .     S
C331   C334    1.450   .     S
C331   O391    1.291   .     A
C331   O257    1.291   1_655 S
C332   H368    1.083   .     S
C333   C361    1.401   .     A
C333   C342    1.450   .     S
C334   C360    1.401   .     A
C334   C200    1.401   1_655 S
C335   N386    1.367   .     A
C335   C337    1.416   .     A
C335   H369    1.082   .     S
C336   N385    1.367   .     A
C336   H370    1.082   .     S
C336   C338    1.416   .     A
C337   N385    1.366   .     A
C337   H371    1.082   .     S
C338   N386    1.366   .     A
C338   H372    1.082   .     S
C339   O395    1.298   .     A
C339   C341    1.476   .     S
C339   O261    1.295   1_655 S
C340   O396    1.298   .     A
C340   C343    1.478   .     S
C341   C348    1.400   .     A
C341   C346    1.412   .     A
C342   O392    1.291   .     A
C343   C347    1.413   .     A
C343   C349    1.402   .     A
C344   C352    1.401   .     A
C344   H380    1.084   .     S
C344   C346    1.400   .     A
C345   H381    1.084   .     S
C345   C354    1.401   .     A
C345   C347    1.400   .     A
C346   N256    1.438   1_655 S
C348   C350    1.406   .     A
C348   H379    1.075   .     S
C349   C351    1.406   .     A
C349   H378    1.074   .     S
C350   C352    1.416   .     A
C350   C355    1.429   .     A
C351   C356    1.429   .     A
C351   C354    1.415   .     A
C352   C952    1.390   .     S
C353   H382    1.075   .     S
C353   C358    1.385   .     A
C353   C356    1.417   .     A
C354   C953    1.389   1_554 S
C355   C357    1.416   .     A
C355   C950    1.427   .     S
C356   C949    1.427   1_554 S
C357   H383    1.076   .     S
C357   C359    1.385   .     A
C358   H365    1.084   .     S
C358   C946    1.390   1_554 S
C359   H376    1.084   .     S
C359   C948    1.389   .     S
C360   H384    1.083   .     S
C361   H366    1.083   .     S
C361   C530    1.383   .     S
C362   H367    1.083   .     S
C362   C201    1.401   1_655 S
C362   C558    1.383   .     S
Cu363  N385    2.011   .     S
Cu363  O393    1.956   .     S
Cu363  O389    1.965   .     S
Cu363  O396    1.939   .     S
Cu363  O392    1.965   .     S
Cu364  N386    2.011   .     S
Cu364  O390    1.965   .     S
Cu364  O395    1.939   .     S
Cu364  O394    1.956   .     S
Cu364  O391    1.965   .     S
Cu364  Cu231   2.676   1_655 S
H373   N387    1.045   .     S
H374   N387    1.046   .     S
H375   N388    1.045   .     S
H377   N388    1.046   .     S
N387   C215    1.437   1_655 S
O390   C210    1.291   1_655 S
O394   C208    1.295   1_655 S
C397   C400    1.450   .     S
C397   O457    1.291   .     A
C397   O521    1.291   .     S
C398   H434    1.083   .     S
C398   C532    1.401   1_455 S
C399   C427    1.401   .     A
C399   C408    1.450   .     S
C399   C560    1.401   1_455 S
C400   C426    1.401   .     A
C400   C464    1.401   .     S
C401   N452    1.367   .     A
C401   C403    1.416   .     A
C401   H435    1.082   .     S
C402   N451    1.367   .     A
C402   H436    1.082   .     S
C402   C404    1.416   .     A
C403   N451    1.366   .     A
C403   H437    1.082   .     S
C404   N452    1.366   .     A
C404   H438    1.082   .     S
C405   O461    1.298   .     A
C405   C407    1.476   .     S
C405   O525    1.295   .     S
C406   O462    1.298   .     A
C406   C409    1.478   .     S
C406   O592    1.295   1_455 S
C407   C414    1.400   .     A
C407   C412    1.412   .     A
C408   O458    1.291   .     A
C408   O588    1.291   1_455 S
C409   C413    1.413   .     A
C409   C415    1.402   .     A
C410   C418    1.401   .     A
C410   H446    1.084   .     S
C410   C412    1.400   .     A
C411   H447    1.084   .     S
C411   C420    1.401   .     A
C411   C413    1.400   .     A
C412   N520    1.438   .     S
C413   N585    1.437   1_455 S
C414   C416    1.406   .     A
C414   H445    1.075   .     S
C415   C417    1.406   .     A
C415   H444    1.074   .     S
C416   C418    1.416   .     A
C416   C421    1.429   .     A
C417   C422    1.429   .     A
C417   C420    1.415   .     A
C418   C1018   1.390   .     S
C419   H448    1.075   .     S
C419   C424    1.385   .     A
C419   C422    1.417   .     A
C420   C1019   1.389   1_554 S
C421   C423    1.416   .     A
C421   C1016   1.427   .     S
C422   C1015   1.427   1_554 S
C423   H449    1.076   .     S
C423   C425    1.385   .     A
C424   H431    1.084   .     S
C424   C1012   1.390   1_554 S
C425   H442    1.084   .     S
C425   C1014   1.389   .     S
C426   H450    1.083   .     S
C427   H432    1.083   .     S
C427   C2      1.383   1_565 S
C428   H433    1.083   .     S
C428   C465    1.401   .     S
C428   C30     1.383   1_565 S
Cu429  N451    2.011   .     S
Cu429  O459    1.956   .     S
Cu429  O455    1.965   .     S
Cu429  O462    1.939   .     S
Cu429  O458    1.965   .     S
Cu429  Cu562   2.676   1_455 S
Cu430  N452    2.011   .     S
Cu430  O456    1.965   .     S
Cu430  O461    1.939   .     S
Cu430  O460    1.956   .     S
Cu430  O457    1.965   .     S
Cu430  Cu495   2.676   .     S
H439   N453    1.045   .     S
H440   N453    1.046   .     S
H441   N454    1.045   .     S
H443   N454    1.046   .     S
N453   C479    1.437   .     S
N454   C544    1.438   1_455 S
O455   C529    1.291   1_455 S
O456   C474    1.291   .     S
O459   C537    1.295   1_455 S
O460   C472    1.295   .     S
C463   C466    1.450   .     S
C463   O523    1.291   .     A
C463   O587    1.291   .     S
C464   H500    1.083   .     S
C465   C493    1.401   .     A
C465   C474    1.450   .     S
C466   C492    1.401   .     A
C466   C530    1.401   .     S
C467   N518    1.367   .     A
C467   C469    1.416   .     A
C467   H501    1.082   .     S
C468   N517    1.367   .     A
C468   H502    1.082   .     S
C468   C470    1.416   .     A
C469   N517    1.366   .     A
C469   H503    1.082   .     S
C470   N518    1.366   .     A
C470   H504    1.082   .     S
C471   O527    1.298   .     A
C471   C473    1.476   .     S
C471   O591    1.295   .     S
C472   O528    1.298   .     A
C472   C475    1.478   .     S
C473   C480    1.400   .     A
C473   C478    1.412   .     A
C474   O524    1.291   .     A
C475   C479    1.413   .     A
C475   C481    1.402   .     A
C476   C484    1.401   .     A
C476   H512    1.084   .     S
C476   C478    1.400   .     A
C477   H513    1.084   .     S
C477   C486    1.401   .     A
C477   C479    1.400   .     A
C478   N586    1.438   .     S
C480   C482    1.406   .     A
C480   H511    1.075   .     S
C481   C483    1.406   .     A
C481   H510    1.074   .     S
C482   C484    1.416   .     A
C482   C487    1.429   .     A
C483   C488    1.429   .     A
C483   C486    1.415   .     A
C484   C1084   1.390   .     S
C485   H514    1.075   .     S
C485   C490    1.385   .     A
C485   C488    1.417   .     A
C486   C1085   1.389   1_554 S
C487   C489    1.416   .     A
C487   C1082   1.427   .     S
C488   C1081   1.427   1_554 S
C489   H515    1.076   .     S
C489   C491    1.385   .     A
C490   H497    1.084   .     S
C490   C1078   1.390   1_554 S
C491   H508    1.084   .     S
C491   C1080   1.389   .     S
C492   H516    1.083   .     S
C493   H498    1.083   .     S
C493   C68     1.383   1_565 S
C494   H499    1.083   .     S
C494   C531    1.401   .     S
C494   C96     1.383   1_565 S
Cu495  N517    2.011   .     S
Cu495  O525    1.956   .     S
Cu495  O521    1.965   .     S
Cu495  O528    1.939   .     S
Cu495  O524    1.965   .     S
Cu496  N518    2.011   .     S
Cu496  O522    1.965   .     S
Cu496  O527    1.939   .     S
Cu496  O526    1.956   .     S
Cu496  O523    1.965   .     S
Cu496  Cu561   2.676   .     S
H505   N519    1.045   .     S
H506   N519    1.046   .     S
H507   N520    1.045   .     S
H509   N520    1.046   .     S
N519   C545    1.437   .     S
O522   C540    1.291   .     S
O526   C538    1.295   .     S
C529   C532    1.450   .     S
C529   O589    1.291   .     A
C529   O455    1.291   1_655 S
C530   H566    1.083   .     S
C531   C559    1.401   .     A
C531   C540    1.450   .     S
C532   C558    1.401   .     A
C532   C398    1.401   1_655 S
C533   N584    1.367   .     A
C533   C535    1.416   .     A
C533   H567    1.082   .     S
C534   N583    1.367   .     A
C534   H568    1.082   .     S
C534   C536    1.416   .     A
C535   N583    1.366   .     A
C535   H569    1.082   .     S
C536   N584    1.366   .     A
C536   H570    1.082   .     S
C537   O593    1.298   .     A
C537   C539    1.476   .     S
C537   O459    1.295   1_655 S
C538   O594    1.298   .     A
C538   C541    1.478   .     S
C539   C546    1.400   .     A
C539   C544    1.412   .     A
C540   O590    1.291   .     A
C541   C545    1.413   .     A
C541   C547    1.402   .     A
C542   C550    1.401   .     A
C542   H578    1.084   .     S
C542   C544    1.400   .     A
C543   H579    1.084   .     S
C543   C552    1.401   .     A
C543   C545    1.400   .     A
C544   N454    1.438   1_655 S
C546   C548    1.406   .     A
C546   H577    1.075   .     S
C547   C549    1.406   .     A
C547   H576    1.074   .     S
C548   C550    1.416   .     A
C548   C553    1.429   .     A
C549   C554    1.429   .     A
C549   C552    1.415   .     A
C550   C1150   1.390   .     S
C551   H580    1.075   .     S
C551   C556    1.385   .     A
C551   C554    1.417   .     A
C552   C1151   1.389   1_554 S
C553   C555    1.416   .     A
C553   C1148   1.427   .     S
C554   C1147   1.427   1_554 S
C555   H581    1.076   .     S
C555   C557    1.385   .     A
C556   H563    1.084   .     S
C556   C1144   1.390   1_554 S
C557   H574    1.084   .     S
C557   C1146   1.389   .     S
C558   H582    1.083   .     S
C559   H564    1.083   .     S
C559   C134    1.383   1_565 S
C560   H565    1.083   .     S
C560   C399    1.401   1_655 S
C560   C162    1.383   1_565 S
Cu561  N583    2.011   .     S
Cu561  O591    1.956   .     S
Cu561  O587    1.965   .     S
Cu561  O594    1.939   .     S
Cu561  O590    1.965   .     S
Cu562  N584    2.011   .     S
Cu562  O588    1.965   .     S
Cu562  O593    1.939   .     S
Cu562  O592    1.956   .     S
Cu562  O589    1.965   .     S
Cu562  Cu429   2.676   1_655 S
H571   N585    1.045   .     S
H572   N585    1.046   .     S
H573   N586    1.045   .     S
H575   N586    1.046   .     S
N585   C413    1.437   1_655 S
O588   C408    1.291   1_655 S
O592   C406    1.295   1_655 S
C595   C598    1.450   .     S
C595   O655    1.291   .     A
C595   O719    1.291   .     S
C596   H632    1.083   .     S
C596   C730    1.401   1_455 S
C596   C1021   1.383   1_545 S
C597   C625    1.401   .     A
C597   C606    1.450   .     S
C597   C758    1.401   1_455 S
C598   C624    1.401   .     A
C598   C662    1.401   .     S
C599   N650    1.367   .     A
C599   C601    1.416   .     A
C599   H633    1.082   .     S
C600   N649    1.367   .     A
C600   H634    1.082   .     S
C600   C602    1.416   .     A
C601   N649    1.366   .     A
C601   H635    1.082   .     S
C602   N650    1.366   .     A
C602   H636    1.082   .     S
C603   O659    1.298   .     A
C603   C605    1.476   .     S
C603   O723    1.295   .     S
C604   O660    1.298   .     A
C604   C607    1.478   .     S
C604   O790    1.295   1_455 S
C605   C612    1.400   .     A
C605   C610    1.412   .     A
C606   O656    1.291   .     A
C606   O786    1.291   1_455 S
C607   C611    1.413   .     A
C607   C613    1.402   .     A
C608   C616    1.401   .     A
C608   H644    1.084   .     S
C608   C610    1.400   .     A
C609   H645    1.084   .     S
C609   C618    1.401   .     A
C609   C611    1.400   .     A
C610   N718    1.438   .     S
C611   N783    1.437   1_455 S
C612   C614    1.406   .     A
C612   H643    1.075   .     S
C613   C615    1.406   .     A
C613   H642    1.074   .     S
C614   C616    1.416   .     A
C614   C619    1.429   .     A
C615   C620    1.429   .     A
C615   C618    1.415   .     A
C616   C28     1.390   1_556 S
C617   H646    1.075   .     S
C617   C622    1.385   .     A
C617   C620    1.417   .     A
C619   C621    1.416   .     A
C619   C26     1.427   1_556 S
C621   H647    1.076   .     S
C621   C623    1.385   .     A
C622   H629    1.084   .     S
C623   H640    1.084   .     S
C623   C24     1.389   1_556 S
C624   H648    1.083   .     S
C624   C1022   1.383   1_545 S
C625   H630    1.083   .     S
C625   C794    1.383   .     S
C626   H631    1.083   .     S
C626   C663    1.401   .     S
C626   C822    1.383   .     S
Cu627  N649    2.011   .     S
Cu627  O657    1.956   .     S
Cu627  O653    1.965   .     S
Cu627  O660    1.939   .     S
Cu627  O656    1.965   .     S
Cu627  Cu760   2.676   1_455 S
Cu628  N650    2.011   .     S
Cu628  O654    1.965   .     S
Cu628  O659    1.939   .     S
Cu628  O658    1.956   .     S
Cu628  O655    1.965   .     S
Cu628  Cu693   2.676   .     S
H637   N651    1.045   .     S
H638   N651    1.046   .     S
H639   N652    1.045   .     S
H641   N652    1.046   .     S
N651   C677    1.437   .     S
N652   C742    1.438   1_455 S
O653   C727    1.291   1_455 S
O654   C672    1.291   .     S
O657   C735    1.295   1_455 S
O658   C670    1.295   .     S
C661   C664    1.450   .     S
C661   O721    1.291   .     A
C661   O785    1.291   .     S
C662   H698    1.083   .     S
C662   C1087   1.383   1_545 S
C663   C691    1.401   .     A
C663   C672    1.450   .     S
C664   C690    1.401   .     A
C664   C728    1.401   .     S
C665   N716    1.367   .     A
C665   C667    1.416   .     A
C665   H699    1.082   .     S
C666   N715    1.367   .     A
C666   H700    1.082   .     S
C666   C668    1.416   .     A
C667   N715    1.366   .     A
C667   H701    1.082   .     S
C668   N716    1.366   .     A
C668   H702    1.082   .     S
C669   O725    1.298   .     A
C669   C671    1.476   .     S
C669   O789    1.295   .     S
C670   O726    1.298   .     A
C670   C673    1.478   .     S
C671   C678    1.400   .     A
C671   C676    1.412   .     A
C672   O722    1.291   .     A
C673   C677    1.413   .     A
C673   C679    1.402   .     A
C674   C682    1.401   .     A
C674   H710    1.084   .     S
C674   C676    1.400   .     A
C675   H711    1.084   .     S
C675   C684    1.401   .     A
C675   C677    1.400   .     A
C676   N784    1.438   .     S
C678   C680    1.406   .     A
C678   H709    1.075   .     S
C679   C681    1.406   .     A
C679   H708    1.074   .     S
C680   C682    1.416   .     A
C680   C685    1.429   .     A
C681   C686    1.429   .     A
C681   C684    1.415   .     A
C682   C94     1.390   1_556 S
C683   H712    1.075   .     S
C683   C688    1.385   .     A
C683   C686    1.417   .     A
C685   C687    1.416   .     A
C685   C92     1.427   1_556 S
C687   H713    1.076   .     S
C687   C689    1.385   .     A
C688   H695    1.084   .     S
C689   H706    1.084   .     S
C689   C90     1.389   1_556 S
C690   H714    1.083   .     S
C690   C1088   1.383   1_545 S
C691   H696    1.083   .     S
C691   C860    1.383   .     S
C692   H697    1.083   .     S
C692   C729    1.401   .     S
C692   C888    1.383   .     S
Cu693  N715    2.011   .     S
Cu693  O723    1.956   .     S
Cu693  O719    1.965   .     S
Cu693  O726    1.939   .     S
Cu693  O722    1.965   .     S
Cu694  N716    2.011   .     S
Cu694  O720    1.965   .     S
Cu694  O725    1.939   .     S
Cu694  O724    1.956   .     S
Cu694  O721    1.965   .     S
Cu694  Cu759   2.676   .     S
H703   N717    1.045   .     S
H704   N717    1.046   .     S
H705   N718    1.045   .     S
H707   N718    1.046   .     S
N717   C743    1.437   .     S
O720   C738    1.291   .     S
O724   C736    1.295   .     S
C727   C730    1.450   .     S
C727   O787    1.291   .     A
C727   O653    1.291   1_655 S
C728   H764    1.083   .     S
C728   C1153   1.383   1_545 S
C729   C757    1.401   .     A
C729   C738    1.450   .     S
C730   C756    1.401   .     A
C730   C596    1.401   1_655 S
C731   N782    1.367   .     A
C731   C733    1.416   .     A
C731   H765    1.082   .     S
C732   N781    1.367   .     A
C732   H766    1.082   .     S
C732   C734    1.416   .     A
C733   N781    1.366   .     A
C733   H767    1.082   .     S
C734   N782    1.366   .     A
C734   H768    1.082   .     S
C735   O791    1.298   .     A
C735   C737    1.476   .     S
C735   O657    1.295   1_655 S
C736   O792    1.298   .     A
C736   C739    1.478   .     S
C737   C744    1.400   .     A
C737   C742    1.412   .     A
C738   O788    1.291   .     A
C739   C743    1.413   .     A
C739   C745    1.402   .     A
C740   C748    1.401   .     A
C740   H776    1.084   .     S
C740   C742    1.400   .     A
C741   H777    1.084   .     S
C741   C750    1.401   .     A
C741   C743    1.400   .     A
C742   N652    1.438   1_655 S
C744   C746    1.406   .     A
C744   H775    1.075   .     S
C745   C747    1.406   .     A
C745   H774    1.074   .     S
C746   C748    1.416   .     A
C746   C751    1.429   .     A
C747   C752    1.429   .     A
C747   C750    1.415   .     A
C748   C160    1.390   1_556 S
C749   H778    1.075   .     S
C749   C754    1.385   .     A
C749   C752    1.417   .     A
C751   C753    1.416   .     A
C751   C158    1.427   1_556 S
C753   H779    1.076   .     S
C753   C755    1.385   .     A
C754   H761    1.084   .     S
C755   H772    1.084   .     S
C755   C156    1.389   1_556 S
C756   H780    1.083   .     S
C756   C1154   1.383   1_545 S
C757   H762    1.083   .     S
C757   C926    1.383   .     S
C758   H763    1.083   .     S
C758   C597    1.401   1_655 S
C758   C954    1.383   .     S
Cu759  N781    2.011   .     S
Cu759  O789    1.956   .     S
Cu759  O785    1.965   .     S
Cu759  O792    1.939   .     S
Cu759  O788    1.965   .     S
Cu760  N782    2.011   .     S
Cu760  O786    1.965   .     S
Cu760  O791    1.939   .     S
Cu760  O790    1.956   .     S
Cu760  O787    1.965   .     S
Cu760  Cu627   2.676   1_655 S
H769   N783    1.045   .     S
H770   N783    1.046   .     S
H771   N784    1.045   .     S
H773   N784    1.046   .     S
N783   C611    1.437   1_655 S
O786   C606    1.291   1_655 S
O790   C604    1.295   1_655 S
C793   C796    1.450   .     S
C793   O853    1.291   .     A
C793   O917    1.291   .     S
C794   H830    1.083   .     S
C794   C928    1.401   1_455 S
C795   C823    1.401   .     A
C795   C804    1.450   .     S
C795   C956    1.401   1_455 S
C796   C822    1.401   .     A
C796   C860    1.401   .     S
C797   N848    1.367   .     A
C797   C799    1.416   .     A
C797   H831    1.082   .     S
C798   N847    1.367   .     A
C798   H832    1.082   .     S
C798   C800    1.416   .     A
C799   N847    1.366   .     A
C799   H833    1.082   .     S
C800   N848    1.366   .     A
C800   H834    1.082   .     S
C801   O857    1.298   .     A
C801   C803    1.476   .     S
C801   O921    1.295   .     S
C802   O858    1.298   .     A
C802   C805    1.478   .     S
C802   O988    1.295   1_455 S
C803   C810    1.400   .     A
C803   C808    1.412   .     A
C804   O854    1.291   .     A
C804   O984    1.291   1_455 S
C805   C809    1.413   .     A
C805   C811    1.402   .     A
C806   C814    1.401   .     A
C806   H842    1.084   .     S
C806   C808    1.400   .     A
C807   H843    1.084   .     S
C807   C816    1.401   .     A
C807   C809    1.400   .     A
C808   N916    1.438   .     S
C809   N981    1.437   1_455 S
C810   C812    1.406   .     A
C810   H841    1.075   .     S
C811   C813    1.406   .     A
C811   H840    1.074   .     S
C812   C814    1.416   .     A
C812   C817    1.429   .     A
C813   C818    1.429   .     A
C813   C816    1.415   .     A
C814   C226    1.390   1_556 S
C815   H844    1.075   .     S
C815   C820    1.385   .     A
C815   C818    1.417   .     A
C817   C819    1.416   .     A
C817   C224    1.427   1_556 S
C819   H845    1.076   .     S
C819   C821    1.385   .     A
C820   H827    1.084   .     S
C821   H838    1.084   .     S
C821   C222    1.389   1_556 S
C822   H846    1.083   .     S
C823   H828    1.083   .     S
C823   C992    1.383   .     S
C824   H829    1.083   .     S
C824   C861    1.401   .     S
C824   C1020   1.383   .     S
Cu825  N847    2.011   .     S
Cu825  O855    1.956   .     S
Cu825  O851    1.965   .     S
Cu825  O858    1.939   .     S
Cu825  O854    1.965   .     S
Cu825  Cu958   2.676   1_455 S
Cu826  N848    2.011   .     S
Cu826  O852    1.965   .     S
Cu826  O857    1.939   .     S
Cu826  O856    1.956   .     S
Cu826  O853    1.965   .     S
Cu826  Cu891   2.676   .     S
H835   N849    1.045   .     S
H836   N849    1.046   .     S
H837   N850    1.045   .     S
H839   N850    1.046   .     S
N849   C875    1.437   .     S
N850   C940    1.438   1_455 S
O851   C925    1.291   1_455 S
O852   C870    1.291   .     S
O855   C933    1.295   1_455 S
O856   C868    1.295   .     S
C859   C862    1.450   .     S
C859   O919    1.291   .     A
C859   O983    1.291   .     S
C860   H896    1.083   .     S
C861   C889    1.401   .     A
C861   C870    1.450   .     S
C862   C888    1.401   .     A
C862   C926    1.401   .     S
C863   N914    1.367   .     A
C863   C865    1.416   .     A
C863   H897    1.082   .     S
C864   N913    1.367   .     A
C864   H898    1.082   .     S
C864   C866    1.416   .     A
C865   N913    1.366   .     A
C865   H899    1.082   .     S
C866   N914    1.366   .     A
C866   H900    1.082   .     S
C867   O923    1.298   .     A
C867   C869    1.476   .     S
C867   O987    1.295   .     S
C868   O924    1.298   .     A
C868   C871    1.478   .     S
C869   C876    1.400   .     A
C869   C874    1.412   .     A
C870   O920    1.291   .     A
C871   C875    1.413   .     A
C871   C877    1.402   .     A
C872   C880    1.401   .     A
C872   H908    1.084   .     S
C872   C874    1.400   .     A
C873   H909    1.084   .     S
C873   C882    1.401   .     A
C873   C875    1.400   .     A
C874   N982    1.438   .     S
C876   C878    1.406   .     A
C876   H907    1.075   .     S
C877   C879    1.406   .     A
C877   H906    1.074   .     S
C878   C880    1.416   .     A
C878   C883    1.429   .     A
C879   C884    1.429   .     A
C879   C882    1.415   .     A
C880   C292    1.390   1_556 S
C881   H910    1.075   .     S
C881   C886    1.385   .     A
C881   C884    1.417   .     A
C883   C885    1.416   .     A
C883   C290    1.427   1_556 S
C885   H911    1.076   .     S
C885   C887    1.385   .     A
C886   H893    1.084   .     S
C887   H904    1.084   .     S
C887   C288    1.389   1_556 S
C888   H912    1.083   .     S
C889   H894    1.083   .     S
C889   C1058   1.383   .     S
C890   H895    1.083   .     S
C890   C927    1.401   .     S
C890   C1086   1.383   .     S
Cu891  N913    2.011   .     S
Cu891  O921    1.956   .     S
Cu891  O917    1.965   .     S
Cu891  O924    1.939   .     S
Cu891  O920    1.965   .     S
Cu892  N914    2.011   .     S
Cu892  O918    1.965   .     S
Cu892  O923    1.939   .     S
Cu892  O922    1.956   .     S
Cu892  O919    1.965   .     S
Cu892  Cu957   2.676   .     S
H901   N915    1.045   .     S
H902   N915    1.046   .     S
H903   N916    1.045   .     S
H905   N916    1.046   .     S
N915   C941    1.437   .     S
O918   C936    1.291   .     S
O922   C934    1.295   .     S
C925   C928    1.450   .     S
C925   O985    1.291   .     A
C925   O851    1.291   1_655 S
C926   H962    1.083   .     S
C927   C955    1.401   .     A
C927   C936    1.450   .     S
C928   C954    1.401   .     A
C928   C794    1.401   1_655 S
C929   N980    1.367   .     A
C929   C931    1.416   .     A
C929   H963    1.082   .     S
C930   N979    1.367   .     A
C930   H964    1.082   .     S
C930   C932    1.416   .     A
C931   N979    1.366   .     A
C931   H965    1.082   .     S
C932   N980    1.366   .     A
C932   H966    1.082   .     S
C933   O989    1.298   .     A
C933   C935    1.476   .     S
C933   O855    1.295   1_655 S
C934   O990    1.298   .     A
C934   C937    1.478   .     S
C935   C942    1.400   .     A
C935   C940    1.412   .     A
C936   O986    1.291   .     A
C937   C941    1.413   .     A
C937   C943    1.402   .     A
C938   C946    1.401   .     A
C938   H974    1.084   .     S
C938   C940    1.400   .     A
C939   H975    1.084   .     S
C939   C948    1.401   .     A
C939   C941    1.400   .     A
C940   N850    1.438   1_655 S
C942   C944    1.406   .     A
C942   H973    1.075   .     S
C943   C945    1.406   .     A
C943   H972    1.074   .     S
C944   C946    1.416   .     A
C944   C949    1.429   .     A
C945   C950    1.429   .     A
C945   C948    1.415   .     A
C946   C358    1.390   1_556 S
C947   H976    1.075   .     S
C947   C952    1.385   .     A
C947   C950    1.417   .     A
C949   C951    1.416   .     A
C949   C356    1.427   1_556 S
C951   H977    1.076   .     S
C951   C953    1.385   .     A
C952   H959    1.084   .     S
C953   H970    1.084   .     S
C953   C354    1.389   1_556 S
C954   H978    1.083   .     S
C955   H960    1.083   .     S
C955   C1124   1.383   .     S
C956   H961    1.083   .     S
C956   C795    1.401   1_655 S
C956   C1152   1.383   .     S
Cu957  N979    2.011   .     S
Cu957  O987    1.956   .     S
Cu957  O983    1.965   .     S
Cu957  O990    1.939   .     S
Cu957  O986    1.965   .     S
Cu958  N980    2.011   .     S
Cu958  O984    1.965   .     S
Cu958  O989    1.939   .     S
Cu958  O988    1.956   .     S
Cu958  O985    1.965   .     S
Cu958  Cu825   2.676   1_655 S
H967   N981    1.045   .     S
H968   N981    1.046   .     S
H969   N982    1.045   .     S
H971   N982    1.046   .     S
N981   C809    1.437   1_655 S
O984   C804    1.291   1_655 S
O988   C802    1.295   1_655 S
C991   C994    1.450   .     S
C991   O1051   1.291   .     A
C991   O1115   1.291   .     S
C992   H1028   1.083   .     S
C992   C1126   1.401   1_455 S
C993   C1021   1.401   .     A
C993   C1002   1.450   .     S
C993   C1154   1.401   1_455 S
C994   C1020   1.401   .     A
C994   C1058   1.401   .     S
C995   N1046   1.367   .     A
C995   C997    1.416   .     A
C995   H1029   1.082   .     S
C996   N1045   1.367   .     A
C996   H1030   1.082   .     S
C996   C998    1.416   .     A
C997   N1045   1.366   .     A
C997   H1031   1.082   .     S
C998   N1046   1.366   .     A
C998   H1032   1.082   .     S
C999   O1055   1.298   .     A
C999   C1001   1.476   .     S
C999   O1119   1.295   .     S
C1000  O1056   1.298   .     A
C1000  C1003   1.478   .     S
C1000  O1186   1.295   1_455 S
C1001  C1008   1.400   .     A
C1001  C1006   1.412   .     A
C1002  O1052   1.291   .     A
C1002  O1182   1.291   1_455 S
C1003  C1007   1.413   .     A
C1003  C1009   1.402   .     A
C1004  C1012   1.401   .     A
C1004  H1040   1.084   .     S
C1004  C1006   1.400   .     A
C1005  H1041   1.084   .     S
C1005  C1014   1.401   .     A
C1005  C1007   1.400   .     A
C1006  N1114   1.438   .     S
C1007  N1179   1.437   1_455 S
C1008  C1010   1.406   .     A
C1008  H1039   1.075   .     S
C1009  C1011   1.406   .     A
C1009  H1038   1.074   .     S
C1010  C1012   1.416   .     A
C1010  C1015   1.429   .     A
C1011  C1016   1.429   .     A
C1011  C1014   1.415   .     A
C1012  C424    1.390   1_556 S
C1013  H1042   1.075   .     S
C1013  C1018   1.385   .     A
C1013  C1016   1.417   .     A
C1015  C1017   1.416   .     A
C1015  C422    1.427   1_556 S
C1017  H1043   1.076   .     S
C1017  C1019   1.385   .     A
C1018  H1025   1.084   .     S
C1019  H1036   1.084   .     S
C1019  C420    1.389   1_556 S
C1020  H1044   1.083   .     S
C1021  H1026   1.083   .     S
C1021  C596    1.383   1_565 S
C1022  H1027   1.083   .     S
C1022  C1059   1.401   .     S
C1022  C624    1.383   1_565 S
Cu1023 N1045   2.011   .     S
Cu1023 O1053   1.956   .     S
Cu1023 O1049   1.965   .     S
Cu1023 O1056   1.939   .     S
Cu1023 O1052   1.965   .     S
Cu1023 Cu1156  2.676   1_455 S
Cu1024 N1046   2.011   .     S
Cu1024 O1050   1.965   .     S
Cu1024 O1055   1.939   .     S
Cu1024 O1054   1.956   .     S
Cu1024 O1051   1.965   .     S
Cu1024 Cu1089  2.676   .     S
H1033  N1047   1.045   .     S
H1034  N1047   1.046   .     S
H1035  N1048   1.045   .     S
H1037  N1048   1.046   .     S
N1047  C1073   1.437   .     S
N1048  C1138   1.438   1_455 S
O1049  C1123   1.291   1_455 S
O1050  C1068   1.291   .     S
O1053  C1131   1.295   1_455 S
O1054  C1066   1.295   .     S
C1057  C1060   1.450   .     S
C1057  O1117   1.291   .     A
C1057  O1181   1.291   .     S
C1058  H1094   1.083   .     S
C1059  C1087   1.401   .     A
C1059  C1068   1.450   .     S
C1060  C1086   1.401   .     A
C1060  C1124   1.401   .     S
C1061  N1112   1.367   .     A
C1061  C1063   1.416   .     A
C1061  H1095   1.082   .     S
C1062  N1111   1.367   .     A
C1062  H1096   1.082   .     S
C1062  C1064   1.416   .     A
C1063  N1111   1.366   .     A
C1063  H1097   1.082   .     S
C1064  N1112   1.366   .     A
C1064  H1098   1.082   .     S
C1065  O1121   1.298   .     A
C1065  C1067   1.476   .     S
C1065  O1185   1.295   .     S
C1066  O1122   1.298   .     A
C1066  C1069   1.478   .     S
C1067  C1074   1.400   .     A
C1067  C1072   1.412   .     A
C1068  O1118   1.291   .     A
C1069  C1073   1.413   .     A
C1069  C1075   1.402   .     A
C1070  C1078   1.401   .     A
C1070  H1106   1.084   .     S
C1070  C1072   1.400   .     A
C1071  H1107   1.084   .     S
C1071  C1080   1.401   .     A
C1071  C1073   1.400   .     A
C1072  N1180   1.438   .     S
C1074  C1076   1.406   .     A
C1074  H1105   1.075   .     S
C1075  C1077   1.406   .     A
C1075  H1104   1.074   .     S
C1076  C1078   1.416   .     A
C1076  C1081   1.429   .     A
C1077  C1082   1.429   .     A
C1077  C1080   1.415   .     A
C1078  C490    1.390   1_556 S
C1079  H1108   1.075   .     S
C1079  C1084   1.385   .     A
C1079  C1082   1.417   .     A
C1081  C1083   1.416   .     A
C1081  C488    1.427   1_556 S
C1083  H1109   1.076   .     S
C1083  C1085   1.385   .     A
C1084  H1091   1.084   .     S
C1085  H1102   1.084   .     S
C1085  C486    1.389   1_556 S
C1086  H1110   1.083   .     S
C1087  H1092   1.083   .     S
C1087  C662    1.383   1_565 S
C1088  H1093   1.083   .     S
C1088  C1125   1.401   .     S
C1088  C690    1.383   1_565 S
Cu1089 N1111   2.011   .     S
Cu1089 O1119   1.956   .     S
Cu1089 O1115   1.965   .     S
Cu1089 O1122   1.939   .     S
Cu1089 O1118   1.965   .     S
Cu1090 N1112   2.011   .     S
Cu1090 O1116   1.965   .     S
Cu1090 O1121   1.939   .     S
Cu1090 O1120   1.956   .     S
Cu1090 O1117   1.965   .     S
Cu1090 Cu1155  2.676   .     S
H1099  N1113   1.045   .     S
H1100  N1113   1.046   .     S
H1101  N1114   1.045   .     S
H1103  N1114   1.046   .     S
N1113  C1139   1.437   .     S
O1116  C1134   1.291   .     S
O1120  C1132   1.295   .     S
C1123  C1126   1.450   .     S
C1123  O1183   1.291   .     A
C1123  O1049   1.291   1_655 S
C1124  H1160   1.083   .     S
C1125  C1153   1.401   .     A
C1125  C1134   1.450   .     S
C1126  C1152   1.401   .     A
C1126  C992    1.401   1_655 S
C1127  N1178   1.367   .     A
C1127  C1129   1.416   .     A
C1127  H1161   1.082   .     S
C1128  N1177   1.367   .     A
C1128  H1162   1.082   .     S
C1128  C1130   1.416   .     A
C1129  N1177   1.366   .     A
C1129  H1163   1.082   .     S
C1130  N1178   1.366   .     A
C1130  H1164   1.082   .     S
C1131  O1187   1.298   .     A
C1131  C1133   1.476   .     S
C1131  O1053   1.295   1_655 S
C1132  O1188   1.298   .     A
C1132  C1135   1.478   .     S
C1133  C1140   1.400   .     A
C1133  C1138   1.412   .     A
C1134  O1184   1.291   .     A
C1135  C1139   1.413   .     A
C1135  C1141   1.402   .     A
C1136  C1144   1.401   .     A
C1136  H1172   1.084   .     S
C1136  C1138   1.400   .     A
C1137  H1173   1.084   .     S
C1137  C1146   1.401   .     A
C1137  C1139   1.400   .     A
C1138  N1048   1.438   1_655 S
C1140  C1142   1.406   .     A
C1140  H1171   1.075   .     S
C1141  C1143   1.406   .     A
C1141  H1170   1.074   .     S
C1142  C1144   1.416   .     A
C1142  C1147   1.429   .     A
C1143  C1148   1.429   .     A
C1143  C1146   1.415   .     A
C1144  C556    1.390   1_556 S
C1145  H1174   1.075   .     S
C1145  C1150   1.385   .     A
C1145  C1148   1.417   .     A
C1147  C1149   1.416   .     A
C1147  C554    1.427   1_556 S
C1149  H1175   1.076   .     S
C1149  C1151   1.385   .     A
C1150  H1157   1.084   .     S
C1151  H1168   1.084   .     S
C1151  C552    1.389   1_556 S
C1152  H1176   1.083   .     S
C1153  H1158   1.083   .     S
C1153  C728    1.383   1_565 S
C1154  H1159   1.083   .     S
C1154  C993    1.401   1_655 S
C1154  C756    1.383   1_565 S
Cu1155 N1177   2.011   .     S
Cu1155 O1185   1.956   .     S
Cu1155 O1181   1.965   .     S
Cu1155 O1188   1.939   .     S
Cu1155 O1184   1.965   .     S
Cu1156 N1178   2.011   .     S
Cu1156 O1182   1.965   .     S
Cu1156 O1187   1.939   .     S
Cu1156 O1186   1.956   .     S
Cu1156 O1183   1.965   .     S
Cu1156 Cu1023  2.676   1_655 S
H1165  N1179   1.045   .     S
H1166  N1179   1.046   .     S
H1167  N1180   1.045   .     S
H1169  N1180   1.046   .     S
N1179  C1007   1.437   1_655 S
O1182  C1002   1.291   1_655 S
O1186  C1000   1.295   1_655 S
