data_str_m2_o1_o18_pcu_sym.148
_audit_creation_date              2020-01-03
_audit_creation_method            'Materials Studio'
_symmetry_space_group_name_H-M    'P1'
_symmetry_Int_Tables_number       1
_symmetry_cell_setting            triclinic
loop_
_symmetry_equiv_pos_as_xyz
  x,y,z
_cell_length_a                    28.6010
_cell_length_b                    32.4968
_cell_length_c                    30.7919
_cell_angle_alpha                 89.7050
_cell_angle_beta                  74.6378
_cell_angle_gamma                 89.9802
loop_
_atom_site_label
_atom_site_type_symbol
_atom_site_fract_x
_atom_site_fract_y
_atom_site_fract_z
_atom_site_U_iso_or_equiv
_atom_site_adp_type
_atom_site_occupancy
C1     C     0.33332   0.08737   0.25001   0.00000  Uiso   1.00
C2     C     0.00001   0.24596   0.24999   0.00000  Uiso   1.00
C3     C     0.19478   0.17556   0.04788   0.00000  Uiso   1.00
C4     C     0.13856   0.15778   0.45212   0.00000  Uiso   1.00
C5     C     0.24131   0.18798   0.02483   0.00000  Uiso   1.00
C6     C     0.09202   0.14535   0.47517   0.00000  Uiso   1.00
C7     C     0.29113   0.02130   0.24903   0.00000  Uiso   1.00
C8     C     0.04220   0.31203   0.25097   0.00000  Uiso   1.00
C9     C     0.29113   0.31206   0.24903   0.00000  Uiso   1.00
C10    C     0.04220   0.02127   0.25097   0.00000  Uiso   1.00
C11    C    -0.00000   0.29059   0.25000   0.00000  Uiso   1.00
C12    C     0.00000   0.04275   0.25000   0.00000  Uiso   1.00
C13    C     0.18557   0.13572   0.27057   0.00000  Uiso   1.00
C14    C     0.14777   0.19761   0.22943   0.00000  Uiso   1.00
C15    C     0.13599   0.13579   0.27067   0.00000  Uiso   1.00
C16    C     0.19734   0.19754   0.22933   0.00000  Uiso   1.00
C17    C     0.30625   0.16818   0.33615   0.00000  Uiso   1.00
C18    C     0.02709   0.16515   0.16385   0.00000  Uiso   1.00
C19    C     0.29163   0.17344   0.38541   0.00000  Uiso   1.00
C20    C     0.04170   0.15989   0.11459   0.00000  Uiso   1.00
C21    C     0.30358   0.19873   0.45560   0.00000  Uiso   1.00
C22    C     0.02975   0.13461   0.04440   0.00000  Uiso   1.00
C23    C     0.32038   0.19452   0.40894   0.00000  Uiso   1.00
C24    C     0.01295   0.13881   0.09106   0.00000  Uiso   1.00
C25    C     0.24537   0.16000   0.40878   0.00000  Uiso   1.00
C26    C     0.08797   0.17334   0.09122   0.00000  Uiso   1.00
C27    C     0.22468   0.17100   0.45385   0.00000  Uiso   1.00
C28    C     0.10866   0.16233   0.04615   0.00000  Uiso   1.00
C29    C     0.25628   0.18660   0.47815   0.00000  Uiso   1.00
C30    C     0.07706   0.14673   0.02185   0.00000  Uiso   1.00
C31    C     0.17439   0.16520   0.47595   0.00000  Uiso   1.00
C32    C     0.15894   0.16813   0.02405   0.00000  Uiso   1.00
Cu33   Cu    0.04689   0.16667   0.25000   0.00000  Uiso   1.00
Cu34   Cu    0.28645   0.16666   0.25000   0.00000  Uiso   1.00
H35    H     0.26724   0.19604   0.04358   0.00000  Uiso   1.00
H36    H     0.06609   0.13729   0.45642   0.00000  Uiso   1.00
H37    H     0.10690   0.19327   0.10872   0.00000  Uiso   1.00
H38    H     0.22643   0.14006   0.39128   0.00000  Uiso   1.00
H39    H     0.32685   0.21260   0.47418   0.00000  Uiso   1.00
H40    H     0.00648   0.12074   0.02582   0.00000  Uiso   1.00
H41    H     0.25815   0.03733   0.24823   0.00000  Uiso   1.00
H42    H     0.07519   0.29601   0.25177   0.00000  Uiso   1.00
H43    H     0.19931   0.11105   0.28740   0.00000  Uiso   1.00
H44    H     0.13402   0.22228   0.21260   0.00000  Uiso   1.00
H45    H     0.11262   0.11117   0.28754   0.00000  Uiso   1.00
H46    H     0.22071   0.22217   0.21246   0.00000  Uiso   1.00
N47    N     0.11736   0.16668   0.24999   0.00000  Uiso   1.00
N48    N     0.21597   0.16666   0.25001   0.00000  Uiso   1.00
O49    O     0.03958   0.10655   0.25000   0.00000  Uiso   1.00
O50    O     0.29375   0.22678   0.25000   0.00000  Uiso   1.00
O51    O     0.29372   0.10654   0.25000   0.00000  Uiso   1.00
O52    O     0.03961   0.22679   0.24999   0.00000  Uiso   1.00
O53    O     0.01852   0.16668   0.31491   0.00000  Uiso   1.00
O54    O     0.31481   0.16666   0.18508   0.00000  Uiso   1.00
O55    O     0.27267   0.16667   0.31492   0.00000  Uiso   1.00
O56    O     0.06067   0.16667   0.18508   0.00000  Uiso   1.00
C57    C     0.30114   0.11920   0.11391   0.00000  Uiso   1.00
N58    N     0.26528   0.10303   0.13233   0.00000  Uiso   1.00
C59    C     0.03219   0.21414   0.38609   0.00000  Uiso   1.00
N60    N     0.06805   0.23031   0.36767   0.00000  Uiso   1.00
C61    C     0.18787   0.16607   0.09504   0.00000  Uiso   1.00
N62    N     0.18232   0.15839   0.13279   0.00000  Uiso   1.00
C63    C     0.14546   0.16726   0.40496   0.00000  Uiso   1.00
N64    N     0.15101   0.17494   0.36721   0.00000  Uiso   1.00
H65    H     0.25815   0.29607   0.24824   0.00000  Uiso   1.00
H66    H     0.07519   0.03727   0.25176   0.00000  Uiso   1.00
C67    C     0.66666   0.08737   0.25001   0.00000  Uiso   1.00
C68    C     0.33334   0.24596   0.24999   0.00000  Uiso   1.00
C69    C     0.52811   0.17556   0.04788   0.00000  Uiso   1.00
C70    C     0.47189   0.15778   0.45212   0.00000  Uiso   1.00
C71    C     0.57464   0.18798   0.02483   0.00000  Uiso   1.00
C72    C     0.42536   0.14535   0.47517   0.00000  Uiso   1.00
C73    C     0.62446   0.02130   0.24903   0.00000  Uiso   1.00
C74    C     0.37553   0.31203   0.25097   0.00000  Uiso   1.00
C75    C     0.62446   0.31206   0.24903   0.00000  Uiso   1.00
C76    C     0.37554   0.02127   0.25097   0.00000  Uiso   1.00
C77    C     0.33333   0.29059   0.25000   0.00000  Uiso   1.00
C78    C     0.33333   0.04275   0.25000   0.00000  Uiso   1.00
C79    C     0.51890   0.13572   0.27057   0.00000  Uiso   1.00
C80    C     0.48110   0.19761   0.22943   0.00000  Uiso   1.00
C81    C     0.46932   0.13579   0.27067   0.00000  Uiso   1.00
C82    C     0.53068   0.19754   0.22933   0.00000  Uiso   1.00
C83    C     0.63958   0.16818   0.33615   0.00000  Uiso   1.00
C84    C     0.36042   0.16515   0.16385   0.00000  Uiso   1.00
C85    C     0.62497   0.17344   0.38541   0.00000  Uiso   1.00
C86    C     0.37503   0.15989   0.11459   0.00000  Uiso   1.00
C87    C     0.63692   0.19873   0.45560   0.00000  Uiso   1.00
C88    C     0.36308   0.13461   0.04440   0.00000  Uiso   1.00
C89    C     0.65372   0.19452   0.40894   0.00000  Uiso   1.00
C90    C     0.34628   0.13881   0.09106   0.00000  Uiso   1.00
C91    C     0.57870   0.16000   0.40878   0.00000  Uiso   1.00
C92    C     0.42130   0.17334   0.09122   0.00000  Uiso   1.00
C93    C     0.55801   0.17100   0.45385   0.00000  Uiso   1.00
C94    C     0.44199   0.16233   0.04615   0.00000  Uiso   1.00
C95    C     0.58961   0.18660   0.47815   0.00000  Uiso   1.00
C96    C     0.41039   0.14673   0.02185   0.00000  Uiso   1.00
C97    C     0.50772   0.16520   0.47595   0.00000  Uiso   1.00
C98    C     0.49228   0.16813   0.02405   0.00000  Uiso   1.00
Cu99   Cu    0.38022   0.16667   0.25000   0.00000  Uiso   1.00
Cu100  Cu    0.61978   0.16666   0.25000   0.00000  Uiso   1.00
H101   H     0.60057   0.19604   0.04358   0.00000  Uiso   1.00
H102   H     0.39943   0.13729   0.45642   0.00000  Uiso   1.00
H103   H     0.44024   0.19327   0.10872   0.00000  Uiso   1.00
H104   H     0.55976   0.14006   0.39128   0.00000  Uiso   1.00
H105   H     0.66019   0.21260   0.47418   0.00000  Uiso   1.00
H106   H     0.33981   0.12074   0.02582   0.00000  Uiso   1.00
H107   H     0.59148   0.03733   0.24823   0.00000  Uiso   1.00
H108   H     0.40852   0.29601   0.25177   0.00000  Uiso   1.00
H109   H     0.53265   0.11105   0.28740   0.00000  Uiso   1.00
H110   H     0.46735   0.22228   0.21260   0.00000  Uiso   1.00
H111   H     0.44595   0.11117   0.28754   0.00000  Uiso   1.00
H112   H     0.55405   0.22217   0.21246   0.00000  Uiso   1.00
N113   N     0.45069   0.16668   0.24999   0.00000  Uiso   1.00
N114   N     0.54931   0.16666   0.25001   0.00000  Uiso   1.00
O115   O     0.37291   0.10655   0.25000   0.00000  Uiso   1.00
O116   O     0.62709   0.22678   0.25000   0.00000  Uiso   1.00
O117   O     0.62706   0.10654   0.25000   0.00000  Uiso   1.00
O118   O     0.37294   0.22679   0.24999   0.00000  Uiso   1.00
O119   O     0.35186   0.16668   0.31491   0.00000  Uiso   1.00
O120   O     0.64814   0.16666   0.18508   0.00000  Uiso   1.00
O121   O     0.60600   0.16667   0.31492   0.00000  Uiso   1.00
O122   O     0.39400   0.16667   0.18508   0.00000  Uiso   1.00
C123   C     0.63447   0.11920   0.11391   0.00000  Uiso   1.00
N124   N     0.59862   0.10303   0.13233   0.00000  Uiso   1.00
C125   C     0.36553   0.21414   0.38609   0.00000  Uiso   1.00
N126   N     0.40138   0.23031   0.36767   0.00000  Uiso   1.00
C127   C     0.52120   0.16607   0.09504   0.00000  Uiso   1.00
N128   N     0.51566   0.15839   0.13279   0.00000  Uiso   1.00
C129   C     0.47880   0.16726   0.40496   0.00000  Uiso   1.00
N130   N     0.48434   0.17494   0.36721   0.00000  Uiso   1.00
H131   H     0.59148   0.29607   0.24824   0.00000  Uiso   1.00
H132   H     0.40852   0.03727   0.25176   0.00000  Uiso   1.00
C133   C     0.99999   0.08737   0.25001   0.00000  Uiso   1.00
C134   C     0.66668   0.24596   0.24999   0.00000  Uiso   1.00
C135   C     0.86144   0.17556   0.04788   0.00000  Uiso   1.00
C136   C     0.80522   0.15778   0.45212   0.00000  Uiso   1.00
C137   C     0.90798   0.18798   0.02483   0.00000  Uiso   1.00
C138   C     0.75869   0.14535   0.47517   0.00000  Uiso   1.00
C139   C     0.95780   0.02130   0.24903   0.00000  Uiso   1.00
C140   C     0.70887   0.31203   0.25097   0.00000  Uiso   1.00
C141   C     0.95780   0.31206   0.24903   0.00000  Uiso   1.00
C142   C     0.70887   0.02127   0.25097   0.00000  Uiso   1.00
C143   C     0.66667   0.29059   0.25000   0.00000  Uiso   1.00
C144   C     0.66667   0.04275   0.25000   0.00000  Uiso   1.00
C145   C     0.85223   0.13572   0.27057   0.00000  Uiso   1.00
C146   C     0.81443   0.19761   0.22943   0.00000  Uiso   1.00
C147   C     0.80266   0.13579   0.27067   0.00000  Uiso   1.00
C148   C     0.86401   0.19754   0.22933   0.00000  Uiso   1.00
C149   C     0.97291   0.16818   0.33615   0.00000  Uiso   1.00
C150   C     0.69375   0.16515   0.16385   0.00000  Uiso   1.00
C151   C     0.95830   0.17344   0.38541   0.00000  Uiso   1.00
C152   C     0.70837   0.15989   0.11459   0.00000  Uiso   1.00
C153   C     0.97025   0.19873   0.45560   0.00000  Uiso   1.00
C154   C     0.69642   0.13461   0.04440   0.00000  Uiso   1.00
C155   C     0.98705   0.19452   0.40894   0.00000  Uiso   1.00
C156   C     0.67961   0.13881   0.09106   0.00000  Uiso   1.00
C157   C     0.91203   0.16000   0.40878   0.00000  Uiso   1.00
C158   C     0.75463   0.17334   0.09122   0.00000  Uiso   1.00
C159   C     0.89134   0.17100   0.45385   0.00000  Uiso   1.00
C160   C     0.77532   0.16233   0.04615   0.00000  Uiso   1.00
C161   C     0.92294   0.18660   0.47815   0.00000  Uiso   1.00
C162   C     0.74372   0.14673   0.02185   0.00000  Uiso   1.00
C163   C     0.84106   0.16520   0.47595   0.00000  Uiso   1.00
C164   C     0.82561   0.16813   0.02405   0.00000  Uiso   1.00
Cu165  Cu    0.71355   0.16667   0.25000   0.00000  Uiso   1.00
Cu166  Cu    0.95311   0.16666   0.25000   0.00000  Uiso   1.00
H167   H     0.93390   0.19604   0.04358   0.00000  Uiso   1.00
H168   H     0.73276   0.13729   0.45642   0.00000  Uiso   1.00
H169   H     0.77357   0.19327   0.10872   0.00000  Uiso   1.00
H170   H     0.89310   0.14006   0.39128   0.00000  Uiso   1.00
H171   H     0.99352   0.21260   0.47418   0.00000  Uiso   1.00
H172   H     0.67315   0.12074   0.02582   0.00000  Uiso   1.00
H173   H     0.92481   0.03733   0.24823   0.00000  Uiso   1.00
H174   H     0.74185   0.29601   0.25177   0.00000  Uiso   1.00
H175   H     0.86598   0.11105   0.28740   0.00000  Uiso   1.00
H176   H     0.80069   0.22228   0.21260   0.00000  Uiso   1.00
H177   H     0.77929   0.11117   0.28754   0.00000  Uiso   1.00
H178   H     0.88738   0.22217   0.21246   0.00000  Uiso   1.00
N179   N     0.78403   0.16668   0.24999   0.00000  Uiso   1.00
N180   N     0.88264   0.16666   0.25001   0.00000  Uiso   1.00
O181   O     0.70625   0.10655   0.25000   0.00000  Uiso   1.00
O182   O     0.96042   0.22678   0.25000   0.00000  Uiso   1.00
O183   O     0.96039   0.10654   0.25000   0.00000  Uiso   1.00
O184   O     0.70628   0.22679   0.24999   0.00000  Uiso   1.00
O185   O     0.68519   0.16668   0.31491   0.00000  Uiso   1.00
O186   O     0.98148   0.16666   0.18508   0.00000  Uiso   1.00
O187   O     0.93933   0.16667   0.31492   0.00000  Uiso   1.00
O188   O     0.72733   0.16667   0.18508   0.00000  Uiso   1.00
C189   C     0.96781   0.11920   0.11391   0.00000  Uiso   1.00
N190   N     0.93195   0.10303   0.13233   0.00000  Uiso   1.00
C191   C     0.69886   0.21414   0.38609   0.00000  Uiso   1.00
N192   N     0.73472   0.23031   0.36767   0.00000  Uiso   1.00
C193   C     0.85453   0.16607   0.09504   0.00000  Uiso   1.00
N194   N     0.84899   0.15839   0.13279   0.00000  Uiso   1.00
C195   C     0.81213   0.16726   0.40496   0.00000  Uiso   1.00
N196   N     0.81768   0.17494   0.36721   0.00000  Uiso   1.00
H197   H     0.92481   0.29607   0.24824   0.00000  Uiso   1.00
H198   H     0.74185   0.03727   0.25176   0.00000  Uiso   1.00
C199   C     0.33332   0.42071   0.25001   0.00000  Uiso   1.00
C200   C     0.00001   0.57929   0.24999   0.00000  Uiso   1.00
C201   C     0.19478   0.50889   0.04788   0.00000  Uiso   1.00
C202   C     0.13856   0.49111   0.45212   0.00000  Uiso   1.00
C203   C     0.24131   0.52132   0.02483   0.00000  Uiso   1.00
C204   C     0.09202   0.47868   0.47517   0.00000  Uiso   1.00
C205   C     0.29113   0.35464   0.24903   0.00000  Uiso   1.00
C206   C     0.04220   0.64536   0.25097   0.00000  Uiso   1.00
C207   C     0.29113   0.64540   0.24903   0.00000  Uiso   1.00
C208   C     0.04220   0.35460   0.25097   0.00000  Uiso   1.00
C209   C    -0.00000   0.62392   0.25000   0.00000  Uiso   1.00
C210   C     0.00000   0.37608   0.25000   0.00000  Uiso   1.00
C211   C     0.18557   0.46905   0.27057   0.00000  Uiso   1.00
C212   C     0.14777   0.53095   0.22943   0.00000  Uiso   1.00
C213   C     0.13599   0.46913   0.27067   0.00000  Uiso   1.00
C214   C     0.19734   0.53087   0.22933   0.00000  Uiso   1.00
C215   C     0.30625   0.50152   0.33615   0.00000  Uiso   1.00
C216   C     0.02709   0.49848   0.16385   0.00000  Uiso   1.00
C217   C     0.29163   0.50677   0.38541   0.00000  Uiso   1.00
C218   C     0.04170   0.49323   0.11459   0.00000  Uiso   1.00
C219   C     0.30358   0.53206   0.45560   0.00000  Uiso   1.00
C220   C     0.02975   0.46794   0.04440   0.00000  Uiso   1.00
C221   C     0.32038   0.52786   0.40894   0.00000  Uiso   1.00
C222   C     0.01295   0.47214   0.09106   0.00000  Uiso   1.00
C223   C     0.24537   0.49333   0.40878   0.00000  Uiso   1.00
C224   C     0.08797   0.50667   0.09122   0.00000  Uiso   1.00
C225   C     0.22468   0.50433   0.45385   0.00000  Uiso   1.00
C226   C     0.10866   0.49567   0.04615   0.00000  Uiso   1.00
C227   C     0.25628   0.51993   0.47815   0.00000  Uiso   1.00
C228   C     0.07706   0.48007   0.02185   0.00000  Uiso   1.00
C229   C     0.17439   0.49854   0.47595   0.00000  Uiso   1.00
C230   C     0.15894   0.50146   0.02405   0.00000  Uiso   1.00
Cu231  Cu    0.04689   0.50001   0.25000   0.00000  Uiso   1.00
Cu232  Cu    0.28645   0.49999   0.25000   0.00000  Uiso   1.00
H233   H     0.26724   0.52938   0.04358   0.00000  Uiso   1.00
H234   H     0.06609   0.47062   0.45642   0.00000  Uiso   1.00
H235   H     0.10690   0.52660   0.10872   0.00000  Uiso   1.00
H236   H     0.22643   0.47340   0.39128   0.00000  Uiso   1.00
H237   H     0.32685   0.54593   0.47418   0.00000  Uiso   1.00
H238   H     0.00648   0.45407   0.02582   0.00000  Uiso   1.00
H239   H     0.25815   0.37066   0.24823   0.00000  Uiso   1.00
H240   H     0.07519   0.62934   0.25177   0.00000  Uiso   1.00
H241   H     0.19931   0.44439   0.28740   0.00000  Uiso   1.00
H242   H     0.13402   0.55561   0.21260   0.00000  Uiso   1.00
H243   H     0.11262   0.44450   0.28754   0.00000  Uiso   1.00
H244   H     0.22071   0.55550   0.21246   0.00000  Uiso   1.00
N245   N     0.11736   0.50001   0.24999   0.00000  Uiso   1.00
N246   N     0.21597   0.49999   0.25001   0.00000  Uiso   1.00
O247   O     0.03958   0.43989   0.25000   0.00000  Uiso   1.00
O248   O     0.29375   0.56011   0.25000   0.00000  Uiso   1.00
O249   O     0.29372   0.43988   0.25000   0.00000  Uiso   1.00
O250   O     0.03961   0.56012   0.24999   0.00000  Uiso   1.00
O251   O     0.01852   0.50001   0.31491   0.00000  Uiso   1.00
O252   O     0.31481   0.49999   0.18508   0.00000  Uiso   1.00
O253   O     0.27267   0.50000   0.31492   0.00000  Uiso   1.00
O254   O     0.06067   0.50000   0.18508   0.00000  Uiso   1.00
C255   C     0.30114   0.45253   0.11391   0.00000  Uiso   1.00
N256   N     0.26528   0.43636   0.13233   0.00000  Uiso   1.00
C257   C     0.03219   0.54747   0.38609   0.00000  Uiso   1.00
N258   N     0.06805   0.56364   0.36767   0.00000  Uiso   1.00
C259   C     0.18787   0.49941   0.09504   0.00000  Uiso   1.00
N260   N     0.18232   0.49173   0.13279   0.00000  Uiso   1.00
C261   C     0.14546   0.50059   0.40496   0.00000  Uiso   1.00
N262   N     0.15101   0.50827   0.36721   0.00000  Uiso   1.00
H263   H     0.25815   0.62940   0.24824   0.00000  Uiso   1.00
H264   H     0.07519   0.37060   0.25176   0.00000  Uiso   1.00
C265   C     0.66666   0.42071   0.25001   0.00000  Uiso   1.00
C266   C     0.33334   0.57929   0.24999   0.00000  Uiso   1.00
C267   C     0.52811   0.50889   0.04788   0.00000  Uiso   1.00
C268   C     0.47189   0.49111   0.45212   0.00000  Uiso   1.00
C269   C     0.57464   0.52132   0.02483   0.00000  Uiso   1.00
C270   C     0.42536   0.47868   0.47517   0.00000  Uiso   1.00
C271   C     0.62446   0.35464   0.24903   0.00000  Uiso   1.00
C272   C     0.37553   0.64536   0.25097   0.00000  Uiso   1.00
C273   C     0.62446   0.64540   0.24903   0.00000  Uiso   1.00
C274   C     0.37554   0.35460   0.25097   0.00000  Uiso   1.00
C275   C     0.33333   0.62392   0.25000   0.00000  Uiso   1.00
C276   C     0.33333   0.37608   0.25000   0.00000  Uiso   1.00
C277   C     0.51890   0.46905   0.27057   0.00000  Uiso   1.00
C278   C     0.48110   0.53095   0.22943   0.00000  Uiso   1.00
C279   C     0.46932   0.46913   0.27067   0.00000  Uiso   1.00
C280   C     0.53068   0.53087   0.22933   0.00000  Uiso   1.00
C281   C     0.63958   0.50152   0.33615   0.00000  Uiso   1.00
C282   C     0.36042   0.49848   0.16385   0.00000  Uiso   1.00
C283   C     0.62497   0.50677   0.38541   0.00000  Uiso   1.00
C284   C     0.37503   0.49323   0.11459   0.00000  Uiso   1.00
C285   C     0.63692   0.53206   0.45560   0.00000  Uiso   1.00
C286   C     0.36308   0.46794   0.04440   0.00000  Uiso   1.00
C287   C     0.65372   0.52786   0.40894   0.00000  Uiso   1.00
C288   C     0.34628   0.47214   0.09106   0.00000  Uiso   1.00
C289   C     0.57870   0.49333   0.40878   0.00000  Uiso   1.00
C290   C     0.42130   0.50667   0.09122   0.00000  Uiso   1.00
C291   C     0.55801   0.50433   0.45385   0.00000  Uiso   1.00
C292   C     0.44199   0.49567   0.04615   0.00000  Uiso   1.00
C293   C     0.58961   0.51993   0.47815   0.00000  Uiso   1.00
C294   C     0.41039   0.48007   0.02185   0.00000  Uiso   1.00
C295   C     0.50772   0.49854   0.47595   0.00000  Uiso   1.00
C296   C     0.49228   0.50146   0.02405   0.00000  Uiso   1.00
Cu297  Cu    0.38022   0.50001   0.25000   0.00000  Uiso   1.00
Cu298  Cu    0.61978   0.49999   0.25000   0.00000  Uiso   1.00
H299   H     0.60057   0.52938   0.04358   0.00000  Uiso   1.00
H300   H     0.39943   0.47062   0.45642   0.00000  Uiso   1.00
H301   H     0.44024   0.52660   0.10872   0.00000  Uiso   1.00
H302   H     0.55976   0.47340   0.39128   0.00000  Uiso   1.00
H303   H     0.66019   0.54593   0.47418   0.00000  Uiso   1.00
H304   H     0.33981   0.45407   0.02582   0.00000  Uiso   1.00
H305   H     0.59148   0.37066   0.24823   0.00000  Uiso   1.00
H306   H     0.40852   0.62934   0.25177   0.00000  Uiso   1.00
H307   H     0.53265   0.44439   0.28740   0.00000  Uiso   1.00
H308   H     0.46735   0.55561   0.21260   0.00000  Uiso   1.00
H309   H     0.44595   0.44450   0.28754   0.00000  Uiso   1.00
H310   H     0.55405   0.55550   0.21246   0.00000  Uiso   1.00
N311   N     0.45069   0.50001   0.24999   0.00000  Uiso   1.00
N312   N     0.54931   0.49999   0.25001   0.00000  Uiso   1.00
O313   O     0.37291   0.43989   0.25000   0.00000  Uiso   1.00
O314   O     0.62709   0.56011   0.25000   0.00000  Uiso   1.00
O315   O     0.62706   0.43988   0.25000   0.00000  Uiso   1.00
O316   O     0.37294   0.56012   0.24999   0.00000  Uiso   1.00
O317   O     0.35186   0.50001   0.31491   0.00000  Uiso   1.00
O318   O     0.64814   0.49999   0.18508   0.00000  Uiso   1.00
O319   O     0.60600   0.50000   0.31492   0.00000  Uiso   1.00
O320   O     0.39400   0.50000   0.18508   0.00000  Uiso   1.00
C321   C     0.63447   0.45253   0.11391   0.00000  Uiso   1.00
N322   N     0.59862   0.43636   0.13233   0.00000  Uiso   1.00
C323   C     0.36553   0.54747   0.38609   0.00000  Uiso   1.00
N324   N     0.40138   0.56364   0.36767   0.00000  Uiso   1.00
C325   C     0.52120   0.49941   0.09504   0.00000  Uiso   1.00
N326   N     0.51566   0.49173   0.13279   0.00000  Uiso   1.00
C327   C     0.47880   0.50059   0.40496   0.00000  Uiso   1.00
N328   N     0.48434   0.50827   0.36721   0.00000  Uiso   1.00
H329   H     0.59148   0.62940   0.24824   0.00000  Uiso   1.00
H330   H     0.40852   0.37060   0.25176   0.00000  Uiso   1.00
C331   C     0.99999   0.42071   0.25001   0.00000  Uiso   1.00
C332   C     0.66668   0.57929   0.24999   0.00000  Uiso   1.00
C333   C     0.86144   0.50889   0.04788   0.00000  Uiso   1.00
C334   C     0.80522   0.49111   0.45212   0.00000  Uiso   1.00
C335   C     0.90798   0.52132   0.02483   0.00000  Uiso   1.00
C336   C     0.75869   0.47868   0.47517   0.00000  Uiso   1.00
C337   C     0.95780   0.35464   0.24903   0.00000  Uiso   1.00
C338   C     0.70887   0.64536   0.25097   0.00000  Uiso   1.00
C339   C     0.95780   0.64540   0.24903   0.00000  Uiso   1.00
C340   C     0.70887   0.35460   0.25097   0.00000  Uiso   1.00
C341   C     0.66667   0.62392   0.25000   0.00000  Uiso   1.00
C342   C     0.66667   0.37608   0.25000   0.00000  Uiso   1.00
C343   C     0.85223   0.46905   0.27057   0.00000  Uiso   1.00
C344   C     0.81443   0.53095   0.22943   0.00000  Uiso   1.00
C345   C     0.80266   0.46913   0.27067   0.00000  Uiso   1.00
C346   C     0.86401   0.53087   0.22933   0.00000  Uiso   1.00
C347   C     0.97291   0.50152   0.33615   0.00000  Uiso   1.00
C348   C     0.69375   0.49848   0.16385   0.00000  Uiso   1.00
C349   C     0.95830   0.50677   0.38541   0.00000  Uiso   1.00
C350   C     0.70837   0.49323   0.11459   0.00000  Uiso   1.00
C351   C     0.97025   0.53206   0.45560   0.00000  Uiso   1.00
C352   C     0.69642   0.46794   0.04440   0.00000  Uiso   1.00
C353   C     0.98705   0.52786   0.40894   0.00000  Uiso   1.00
C354   C     0.67961   0.47214   0.09106   0.00000  Uiso   1.00
C355   C     0.91203   0.49333   0.40878   0.00000  Uiso   1.00
C356   C     0.75463   0.50667   0.09122   0.00000  Uiso   1.00
C357   C     0.89134   0.50433   0.45385   0.00000  Uiso   1.00
C358   C     0.77532   0.49567   0.04615   0.00000  Uiso   1.00
C359   C     0.92294   0.51993   0.47815   0.00000  Uiso   1.00
C360   C     0.74372   0.48007   0.02185   0.00000  Uiso   1.00
C361   C     0.84106   0.49854   0.47595   0.00000  Uiso   1.00
C362   C     0.82561   0.50146   0.02405   0.00000  Uiso   1.00
Cu363  Cu    0.71355   0.50001   0.25000   0.00000  Uiso   1.00
Cu364  Cu    0.95311   0.49999   0.25000   0.00000  Uiso   1.00
H365   H     0.93390   0.52938   0.04358   0.00000  Uiso   1.00
H366   H     0.73276   0.47062   0.45642   0.00000  Uiso   1.00
H367   H     0.77357   0.52660   0.10872   0.00000  Uiso   1.00
H368   H     0.89310   0.47340   0.39128   0.00000  Uiso   1.00
H369   H     0.99352   0.54593   0.47418   0.00000  Uiso   1.00
H370   H     0.67315   0.45407   0.02582   0.00000  Uiso   1.00
H371   H     0.92481   0.37066   0.24823   0.00000  Uiso   1.00
H372   H     0.74185   0.62934   0.25177   0.00000  Uiso   1.00
H373   H     0.86598   0.44439   0.28740   0.00000  Uiso   1.00
H374   H     0.80069   0.55561   0.21260   0.00000  Uiso   1.00
H375   H     0.77929   0.44450   0.28754   0.00000  Uiso   1.00
H376   H     0.88738   0.55550   0.21246   0.00000  Uiso   1.00
N377   N     0.78403   0.50001   0.24999   0.00000  Uiso   1.00
N378   N     0.88264   0.49999   0.25001   0.00000  Uiso   1.00
O379   O     0.70625   0.43989   0.25000   0.00000  Uiso   1.00
O380   O     0.96042   0.56011   0.25000   0.00000  Uiso   1.00
O381   O     0.96039   0.43988   0.25000   0.00000  Uiso   1.00
O382   O     0.70628   0.56012   0.24999   0.00000  Uiso   1.00
O383   O     0.68519   0.50001   0.31491   0.00000  Uiso   1.00
O384   O     0.98148   0.49999   0.18508   0.00000  Uiso   1.00
O385   O     0.93933   0.50000   0.31492   0.00000  Uiso   1.00
O386   O     0.72733   0.50000   0.18508   0.00000  Uiso   1.00
C387   C     0.96781   0.45253   0.11391   0.00000  Uiso   1.00
N388   N     0.93195   0.43636   0.13233   0.00000  Uiso   1.00
C389   C     0.69886   0.54747   0.38609   0.00000  Uiso   1.00
N390   N     0.73472   0.56364   0.36767   0.00000  Uiso   1.00
C391   C     0.85453   0.49941   0.09504   0.00000  Uiso   1.00
N392   N     0.84899   0.49173   0.13279   0.00000  Uiso   1.00
C393   C     0.81213   0.50059   0.40496   0.00000  Uiso   1.00
N394   N     0.81768   0.50827   0.36721   0.00000  Uiso   1.00
H395   H     0.92481   0.62940   0.24824   0.00000  Uiso   1.00
H396   H     0.74185   0.37060   0.25176   0.00000  Uiso   1.00
C397   C     0.33332   0.75404   0.25001   0.00000  Uiso   1.00
C398   C     0.00001   0.91263   0.24999   0.00000  Uiso   1.00
C399   C     0.19478   0.84222   0.04788   0.00000  Uiso   1.00
C400   C     0.13856   0.82445   0.45212   0.00000  Uiso   1.00
C401   C     0.24131   0.85465   0.02483   0.00000  Uiso   1.00
C402   C     0.09202   0.81202   0.47517   0.00000  Uiso   1.00
C403   C     0.29113   0.68797   0.24903   0.00000  Uiso   1.00
C404   C     0.04220   0.97870   0.25097   0.00000  Uiso   1.00
C405   C     0.29113   0.97873   0.24903   0.00000  Uiso   1.00
C406   C     0.04220   0.68794   0.25097   0.00000  Uiso   1.00
C407   C    -0.00000   0.95725   0.25000   0.00000  Uiso   1.00
C408   C     0.00000   0.70941   0.25000   0.00000  Uiso   1.00
C409   C     0.18557   0.80239   0.27057   0.00000  Uiso   1.00
C410   C     0.14777   0.86428   0.22943   0.00000  Uiso   1.00
C411   C     0.13599   0.80246   0.27067   0.00000  Uiso   1.00
C412   C     0.19734   0.86421   0.22933   0.00000  Uiso   1.00
C413   C     0.30625   0.83485   0.33615   0.00000  Uiso   1.00
C414   C     0.02709   0.83182   0.16385   0.00000  Uiso   1.00
C415   C     0.29163   0.84011   0.38541   0.00000  Uiso   1.00
C416   C     0.04170   0.82656   0.11459   0.00000  Uiso   1.00
C417   C     0.30358   0.86540   0.45560   0.00000  Uiso   1.00
C418   C     0.02975   0.80127   0.04440   0.00000  Uiso   1.00
C419   C     0.32038   0.86119   0.40894   0.00000  Uiso   1.00
C420   C     0.01295   0.80548   0.09106   0.00000  Uiso   1.00
C421   C     0.24537   0.82666   0.40878   0.00000  Uiso   1.00
C422   C     0.08797   0.84000   0.09122   0.00000  Uiso   1.00
C423   C     0.22468   0.83767   0.45385   0.00000  Uiso   1.00
C424   C     0.10866   0.82900   0.04615   0.00000  Uiso   1.00
C425   C     0.25628   0.85327   0.47815   0.00000  Uiso   1.00
C426   C     0.07706   0.81340   0.02185   0.00000  Uiso   1.00
C427   C     0.17439   0.83187   0.47595   0.00000  Uiso   1.00
C428   C     0.15894   0.83480   0.02405   0.00000  Uiso   1.00
Cu429  Cu    0.04689   0.83334   0.25000   0.00000  Uiso   1.00
Cu430  Cu    0.28645   0.83333   0.25000   0.00000  Uiso   1.00
H431   H     0.26724   0.86271   0.04358   0.00000  Uiso   1.00
H432   H     0.06609   0.80396   0.45642   0.00000  Uiso   1.00
H433   H     0.10690   0.85994   0.10872   0.00000  Uiso   1.00
H434   H     0.22643   0.80673   0.39128   0.00000  Uiso   1.00
H435   H     0.32685   0.87926   0.47418   0.00000  Uiso   1.00
H436   H     0.00648   0.78740   0.02582   0.00000  Uiso   1.00
H437   H     0.25815   0.70399   0.24823   0.00000  Uiso   1.00
H438   H     0.07519   0.96267   0.25177   0.00000  Uiso   1.00
H439   H     0.19931   0.77772   0.28740   0.00000  Uiso   1.00
H440   H     0.13402   0.88895   0.21260   0.00000  Uiso   1.00
H441   H     0.11262   0.77783   0.28754   0.00000  Uiso   1.00
H442   H     0.22071   0.88883   0.21246   0.00000  Uiso   1.00
N443   N     0.11736   0.83334   0.24999   0.00000  Uiso   1.00
N444   N     0.21597   0.83332   0.25001   0.00000  Uiso   1.00
O445   O     0.03958   0.77322   0.25000   0.00000  Uiso   1.00
O446   O     0.29375   0.89345   0.25000   0.00000  Uiso   1.00
O447   O     0.29372   0.77321   0.25000   0.00000  Uiso   1.00
O448   O     0.03961   0.89346   0.24999   0.00000  Uiso   1.00
O449   O     0.01852   0.83334   0.31491   0.00000  Uiso   1.00
O450   O     0.31481   0.83332   0.18508   0.00000  Uiso   1.00
O451   O     0.27267   0.83333   0.31492   0.00000  Uiso   1.00
O452   O     0.06067   0.83333   0.18508   0.00000  Uiso   1.00
C453   C     0.30114   0.78586   0.11391   0.00000  Uiso   1.00
N454   N     0.26528   0.76969   0.13233   0.00000  Uiso   1.00
C455   C     0.03219   0.88080   0.38609   0.00000  Uiso   1.00
N456   N     0.06805   0.89697   0.36767   0.00000  Uiso   1.00
C457   C     0.18787   0.83274   0.09504   0.00000  Uiso   1.00
N458   N     0.18232   0.82506   0.13279   0.00000  Uiso   1.00
C459   C     0.14546   0.83393   0.40496   0.00000  Uiso   1.00
N460   N     0.15101   0.84161   0.36721   0.00000  Uiso   1.00
H461   H     0.25815   0.96273   0.24824   0.00000  Uiso   1.00
H462   H     0.07519   0.70393   0.25176   0.00000  Uiso   1.00
C463   C     0.66666   0.75404   0.25001   0.00000  Uiso   1.00
C464   C     0.33334   0.91263   0.24999   0.00000  Uiso   1.00
C465   C     0.52811   0.84222   0.04788   0.00000  Uiso   1.00
C466   C     0.47189   0.82445   0.45212   0.00000  Uiso   1.00
C467   C     0.57464   0.85465   0.02483   0.00000  Uiso   1.00
C468   C     0.42536   0.81202   0.47517   0.00000  Uiso   1.00
C469   C     0.62446   0.68797   0.24903   0.00000  Uiso   1.00
C470   C     0.37553   0.97870   0.25097   0.00000  Uiso   1.00
C471   C     0.62446   0.97873   0.24903   0.00000  Uiso   1.00
C472   C     0.37554   0.68794   0.25097   0.00000  Uiso   1.00
C473   C     0.33333   0.95725   0.25000   0.00000  Uiso   1.00
C474   C     0.33333   0.70941   0.25000   0.00000  Uiso   1.00
C475   C     0.51890   0.80239   0.27057   0.00000  Uiso   1.00
C476   C     0.48110   0.86428   0.22943   0.00000  Uiso   1.00
C477   C     0.46932   0.80246   0.27067   0.00000  Uiso   1.00
C478   C     0.53068   0.86421   0.22933   0.00000  Uiso   1.00
C479   C     0.63958   0.83485   0.33615   0.00000  Uiso   1.00
C480   C     0.36042   0.83182   0.16385   0.00000  Uiso   1.00
C481   C     0.62497   0.84011   0.38541   0.00000  Uiso   1.00
C482   C     0.37503   0.82656   0.11459   0.00000  Uiso   1.00
C483   C     0.63692   0.86540   0.45560   0.00000  Uiso   1.00
C484   C     0.36308   0.80127   0.04440   0.00000  Uiso   1.00
C485   C     0.65372   0.86119   0.40894   0.00000  Uiso   1.00
C486   C     0.34628   0.80548   0.09106   0.00000  Uiso   1.00
C487   C     0.57870   0.82666   0.40878   0.00000  Uiso   1.00
C488   C     0.42130   0.84000   0.09122   0.00000  Uiso   1.00
C489   C     0.55801   0.83767   0.45385   0.00000  Uiso   1.00
C490   C     0.44199   0.82900   0.04615   0.00000  Uiso   1.00
C491   C     0.58961   0.85327   0.47815   0.00000  Uiso   1.00
C492   C     0.41039   0.81340   0.02185   0.00000  Uiso   1.00
C493   C     0.50772   0.83187   0.47595   0.00000  Uiso   1.00
C494   C     0.49228   0.83480   0.02405   0.00000  Uiso   1.00
Cu495  Cu    0.38022   0.83334   0.25000   0.00000  Uiso   1.00
Cu496  Cu    0.61978   0.83333   0.25000   0.00000  Uiso   1.00
H497   H     0.60057   0.86271   0.04358   0.00000  Uiso   1.00
H498   H     0.39943   0.80396   0.45642   0.00000  Uiso   1.00
H499   H     0.44024   0.85994   0.10872   0.00000  Uiso   1.00
H500   H     0.55976   0.80673   0.39128   0.00000  Uiso   1.00
H501   H     0.66019   0.87926   0.47418   0.00000  Uiso   1.00
H502   H     0.33981   0.78740   0.02582   0.00000  Uiso   1.00
H503   H     0.59148   0.70399   0.24823   0.00000  Uiso   1.00
H504   H     0.40852   0.96267   0.25177   0.00000  Uiso   1.00
H505   H     0.53265   0.77772   0.28740   0.00000  Uiso   1.00
H506   H     0.46735   0.88895   0.21260   0.00000  Uiso   1.00
H507   H     0.44595   0.77783   0.28754   0.00000  Uiso   1.00
H508   H     0.55405   0.88883   0.21246   0.00000  Uiso   1.00
N509   N     0.45069   0.83334   0.24999   0.00000  Uiso   1.00
N510   N     0.54931   0.83332   0.25001   0.00000  Uiso   1.00
O511   O     0.37291   0.77322   0.25000   0.00000  Uiso   1.00
O512   O     0.62709   0.89345   0.25000   0.00000  Uiso   1.00
O513   O     0.62706   0.77321   0.25000   0.00000  Uiso   1.00
O514   O     0.37294   0.89346   0.24999   0.00000  Uiso   1.00
O515   O     0.35186   0.83334   0.31491   0.00000  Uiso   1.00
O516   O     0.64814   0.83332   0.18508   0.00000  Uiso   1.00
O517   O     0.60600   0.83333   0.31492   0.00000  Uiso   1.00
O518   O     0.39400   0.83333   0.18508   0.00000  Uiso   1.00
C519   C     0.63447   0.78586   0.11391   0.00000  Uiso   1.00
N520   N     0.59862   0.76969   0.13233   0.00000  Uiso   1.00
C521   C     0.36553   0.88080   0.38609   0.00000  Uiso   1.00
N522   N     0.40138   0.89697   0.36767   0.00000  Uiso   1.00
C523   C     0.52120   0.83274   0.09504   0.00000  Uiso   1.00
N524   N     0.51566   0.82506   0.13279   0.00000  Uiso   1.00
C525   C     0.47880   0.83393   0.40496   0.00000  Uiso   1.00
N526   N     0.48434   0.84161   0.36721   0.00000  Uiso   1.00
H527   H     0.59148   0.96273   0.24824   0.00000  Uiso   1.00
H528   H     0.40852   0.70393   0.25176   0.00000  Uiso   1.00
C529   C     0.99999   0.75404   0.25001   0.00000  Uiso   1.00
C530   C     0.66668   0.91263   0.24999   0.00000  Uiso   1.00
C531   C     0.86144   0.84222   0.04788   0.00000  Uiso   1.00
C532   C     0.80522   0.82445   0.45212   0.00000  Uiso   1.00
C533   C     0.90798   0.85465   0.02483   0.00000  Uiso   1.00
C534   C     0.75869   0.81202   0.47517   0.00000  Uiso   1.00
C535   C     0.95780   0.68797   0.24903   0.00000  Uiso   1.00
C536   C     0.70887   0.97870   0.25097   0.00000  Uiso   1.00
C537   C     0.95780   0.97873   0.24903   0.00000  Uiso   1.00
C538   C     0.70887   0.68794   0.25097   0.00000  Uiso   1.00
C539   C     0.66667   0.95725   0.25000   0.00000  Uiso   1.00
C540   C     0.66667   0.70941   0.25000   0.00000  Uiso   1.00
C541   C     0.85223   0.80239   0.27057   0.00000  Uiso   1.00
C542   C     0.81443   0.86428   0.22943   0.00000  Uiso   1.00
C543   C     0.80266   0.80246   0.27067   0.00000  Uiso   1.00
C544   C     0.86401   0.86421   0.22933   0.00000  Uiso   1.00
C545   C     0.97291   0.83485   0.33615   0.00000  Uiso   1.00
C546   C     0.69375   0.83182   0.16385   0.00000  Uiso   1.00
C547   C     0.95830   0.84011   0.38541   0.00000  Uiso   1.00
C548   C     0.70837   0.82656   0.11459   0.00000  Uiso   1.00
C549   C     0.97025   0.86540   0.45560   0.00000  Uiso   1.00
C550   C     0.69642   0.80127   0.04440   0.00000  Uiso   1.00
C551   C     0.98705   0.86119   0.40894   0.00000  Uiso   1.00
C552   C     0.67961   0.80548   0.09106   0.00000  Uiso   1.00
C553   C     0.91203   0.82666   0.40878   0.00000  Uiso   1.00
C554   C     0.75463   0.84000   0.09122   0.00000  Uiso   1.00
C555   C     0.89134   0.83767   0.45385   0.00000  Uiso   1.00
C556   C     0.77532   0.82900   0.04615   0.00000  Uiso   1.00
C557   C     0.92294   0.85327   0.47815   0.00000  Uiso   1.00
C558   C     0.74372   0.81340   0.02185   0.00000  Uiso   1.00
C559   C     0.84106   0.83187   0.47595   0.00000  Uiso   1.00
C560   C     0.82561   0.83480   0.02405   0.00000  Uiso   1.00
Cu561  Cu    0.71355   0.83334   0.25000   0.00000  Uiso   1.00
Cu562  Cu    0.95311   0.83333   0.25000   0.00000  Uiso   1.00
H563   H     0.93390   0.86271   0.04358   0.00000  Uiso   1.00
H564   H     0.73276   0.80396   0.45642   0.00000  Uiso   1.00
H565   H     0.77357   0.85994   0.10872   0.00000  Uiso   1.00
H566   H     0.89310   0.80673   0.39128   0.00000  Uiso   1.00
H567   H     0.99352   0.87926   0.47418   0.00000  Uiso   1.00
H568   H     0.67315   0.78740   0.02582   0.00000  Uiso   1.00
H569   H     0.92481   0.70399   0.24823   0.00000  Uiso   1.00
H570   H     0.74185   0.96267   0.25177   0.00000  Uiso   1.00
H571   H     0.86598   0.77772   0.28740   0.00000  Uiso   1.00
H572   H     0.80069   0.88895   0.21260   0.00000  Uiso   1.00
H573   H     0.77929   0.77783   0.28754   0.00000  Uiso   1.00
H574   H     0.88738   0.88883   0.21246   0.00000  Uiso   1.00
N575   N     0.78403   0.83334   0.24999   0.00000  Uiso   1.00
N576   N     0.88264   0.83332   0.25001   0.00000  Uiso   1.00
O577   O     0.70625   0.77322   0.25000   0.00000  Uiso   1.00
O578   O     0.96042   0.89345   0.25000   0.00000  Uiso   1.00
O579   O     0.96039   0.77321   0.25000   0.00000  Uiso   1.00
O580   O     0.70628   0.89346   0.24999   0.00000  Uiso   1.00
O581   O     0.68519   0.83334   0.31491   0.00000  Uiso   1.00
O582   O     0.98148   0.83332   0.18508   0.00000  Uiso   1.00
O583   O     0.93933   0.83333   0.31492   0.00000  Uiso   1.00
O584   O     0.72733   0.83333   0.18508   0.00000  Uiso   1.00
C585   C     0.96781   0.78586   0.11391   0.00000  Uiso   1.00
N586   N     0.93195   0.76969   0.13233   0.00000  Uiso   1.00
C587   C     0.69886   0.88080   0.38609   0.00000  Uiso   1.00
N588   N     0.73472   0.89697   0.36767   0.00000  Uiso   1.00
C589   C     0.85453   0.83274   0.09504   0.00000  Uiso   1.00
N590   N     0.84899   0.82506   0.13279   0.00000  Uiso   1.00
C591   C     0.81213   0.83393   0.40496   0.00000  Uiso   1.00
N592   N     0.81768   0.84161   0.36721   0.00000  Uiso   1.00
H593   H     0.92481   0.96273   0.24824   0.00000  Uiso   1.00
H594   H     0.74185   0.70393   0.25176   0.00000  Uiso   1.00
C595   C     0.33332   0.08737   0.75001   0.00000  Uiso   1.00
C596   C     0.00001   0.24596   0.74999   0.00000  Uiso   1.00
C597   C     0.19478   0.17556   0.54788   0.00000  Uiso   1.00
C598   C     0.13856   0.15778   0.95212   0.00000  Uiso   1.00
C599   C     0.24131   0.18798   0.52483   0.00000  Uiso   1.00
C600   C     0.09202   0.14535   0.97517   0.00000  Uiso   1.00
C601   C     0.29113   0.02130   0.74903   0.00000  Uiso   1.00
C602   C     0.04220   0.31203   0.75097   0.00000  Uiso   1.00
C603   C     0.29113   0.31206   0.74903   0.00000  Uiso   1.00
C604   C     0.04220   0.02127   0.75097   0.00000  Uiso   1.00
C605   C    -0.00000   0.29059   0.75000   0.00000  Uiso   1.00
C606   C     0.00000   0.04275   0.75000   0.00000  Uiso   1.00
C607   C     0.18557   0.13572   0.77057   0.00000  Uiso   1.00
C608   C     0.14777   0.19761   0.72943   0.00000  Uiso   1.00
C609   C     0.13599   0.13579   0.77067   0.00000  Uiso   1.00
C610   C     0.19734   0.19754   0.72933   0.00000  Uiso   1.00
C611   C     0.30625   0.16818   0.83615   0.00000  Uiso   1.00
C612   C     0.02709   0.16515   0.66385   0.00000  Uiso   1.00
C613   C     0.29163   0.17344   0.88541   0.00000  Uiso   1.00
C614   C     0.04170   0.15989   0.61459   0.00000  Uiso   1.00
C615   C     0.30358   0.19873   0.95560   0.00000  Uiso   1.00
C616   C     0.02975   0.13461   0.54440   0.00000  Uiso   1.00
C617   C     0.32038   0.19452   0.90894   0.00000  Uiso   1.00
C618   C     0.01295   0.13881   0.59106   0.00000  Uiso   1.00
C619   C     0.24537   0.16000   0.90878   0.00000  Uiso   1.00
C620   C     0.08797   0.17334   0.59122   0.00000  Uiso   1.00
C621   C     0.22468   0.17100   0.95385   0.00000  Uiso   1.00
C622   C     0.10866   0.16233   0.54615   0.00000  Uiso   1.00
C623   C     0.25628   0.18660   0.97815   0.00000  Uiso   1.00
C624   C     0.07706   0.14673   0.52185   0.00000  Uiso   1.00
C625   C     0.17439   0.16520   0.97595   0.00000  Uiso   1.00
C626   C     0.15894   0.16813   0.52405   0.00000  Uiso   1.00
Cu627  Cu    0.04689   0.16667   0.75000   0.00000  Uiso   1.00
Cu628  Cu    0.28645   0.16666   0.75000   0.00000  Uiso   1.00
H629   H     0.26724   0.19604   0.54358   0.00000  Uiso   1.00
H630   H     0.06609   0.13729   0.95642   0.00000  Uiso   1.00
H631   H     0.10690   0.19327   0.60872   0.00000  Uiso   1.00
H632   H     0.22643   0.14006   0.89128   0.00000  Uiso   1.00
H633   H     0.32685   0.21260   0.97418   0.00000  Uiso   1.00
H634   H     0.00648   0.12074   0.52582   0.00000  Uiso   1.00
H635   H     0.25815   0.03733   0.74823   0.00000  Uiso   1.00
H636   H     0.07519   0.29601   0.75177   0.00000  Uiso   1.00
H637   H     0.19931   0.11105   0.78740   0.00000  Uiso   1.00
H638   H     0.13402   0.22228   0.71260   0.00000  Uiso   1.00
H639   H     0.11262   0.11117   0.78754   0.00000  Uiso   1.00
H640   H     0.22071   0.22217   0.71246   0.00000  Uiso   1.00
N641   N     0.11736   0.16668   0.74999   0.00000  Uiso   1.00
N642   N     0.21597   0.16666   0.75001   0.00000  Uiso   1.00
O643   O     0.03958   0.10655   0.75000   0.00000  Uiso   1.00
O644   O     0.29375   0.22678   0.75000   0.00000  Uiso   1.00
O645   O     0.29372   0.10654   0.75000   0.00000  Uiso   1.00
O646   O     0.03961   0.22679   0.74999   0.00000  Uiso   1.00
O647   O     0.01852   0.16668   0.81491   0.00000  Uiso   1.00
O648   O     0.31481   0.16666   0.68508   0.00000  Uiso   1.00
O649   O     0.27267   0.16667   0.81492   0.00000  Uiso   1.00
O650   O     0.06067   0.16667   0.68508   0.00000  Uiso   1.00
C651   C     0.30114   0.11920   0.61391   0.00000  Uiso   1.00
N652   N     0.26528   0.10303   0.63233   0.00000  Uiso   1.00
C653   C     0.03219   0.21414   0.88609   0.00000  Uiso   1.00
N654   N     0.06805   0.23031   0.86767   0.00000  Uiso   1.00
C655   C     0.18787   0.16607   0.59504   0.00000  Uiso   1.00
N656   N     0.18232   0.15839   0.63279   0.00000  Uiso   1.00
C657   C     0.14546   0.16726   0.90496   0.00000  Uiso   1.00
N658   N     0.15101   0.17494   0.86721   0.00000  Uiso   1.00
H659   H     0.25815   0.29607   0.74824   0.00000  Uiso   1.00
H660   H     0.07519   0.03727   0.75176   0.00000  Uiso   1.00
C661   C     0.66666   0.08737   0.75001   0.00000  Uiso   1.00
C662   C     0.33334   0.24596   0.74999   0.00000  Uiso   1.00
C663   C     0.52811   0.17556   0.54788   0.00000  Uiso   1.00
C664   C     0.47189   0.15778   0.95212   0.00000  Uiso   1.00
C665   C     0.57464   0.18798   0.52483   0.00000  Uiso   1.00
C666   C     0.42536   0.14535   0.97517   0.00000  Uiso   1.00
C667   C     0.62446   0.02130   0.74903   0.00000  Uiso   1.00
C668   C     0.37553   0.31203   0.75097   0.00000  Uiso   1.00
C669   C     0.62446   0.31206   0.74903   0.00000  Uiso   1.00
C670   C     0.37554   0.02127   0.75097   0.00000  Uiso   1.00
C671   C     0.33333   0.29059   0.75000   0.00000  Uiso   1.00
C672   C     0.33333   0.04275   0.75000   0.00000  Uiso   1.00
C673   C     0.51890   0.13572   0.77057   0.00000  Uiso   1.00
C674   C     0.48110   0.19761   0.72943   0.00000  Uiso   1.00
C675   C     0.46932   0.13579   0.77067   0.00000  Uiso   1.00
C676   C     0.53068   0.19754   0.72933   0.00000  Uiso   1.00
C677   C     0.63958   0.16818   0.83615   0.00000  Uiso   1.00
C678   C     0.36042   0.16515   0.66385   0.00000  Uiso   1.00
C679   C     0.62497   0.17344   0.88541   0.00000  Uiso   1.00
C680   C     0.37503   0.15989   0.61459   0.00000  Uiso   1.00
C681   C     0.63692   0.19873   0.95560   0.00000  Uiso   1.00
C682   C     0.36308   0.13461   0.54440   0.00000  Uiso   1.00
C683   C     0.65372   0.19452   0.90894   0.00000  Uiso   1.00
C684   C     0.34628   0.13881   0.59106   0.00000  Uiso   1.00
C685   C     0.57870   0.16000   0.90878   0.00000  Uiso   1.00
C686   C     0.42130   0.17334   0.59122   0.00000  Uiso   1.00
C687   C     0.55801   0.17100   0.95385   0.00000  Uiso   1.00
C688   C     0.44199   0.16233   0.54615   0.00000  Uiso   1.00
C689   C     0.58961   0.18660   0.97815   0.00000  Uiso   1.00
C690   C     0.41039   0.14673   0.52185   0.00000  Uiso   1.00
C691   C     0.50772   0.16520   0.97595   0.00000  Uiso   1.00
C692   C     0.49228   0.16813   0.52405   0.00000  Uiso   1.00
Cu693  Cu    0.38022   0.16667   0.75000   0.00000  Uiso   1.00
Cu694  Cu    0.61978   0.16666   0.75000   0.00000  Uiso   1.00
H695   H     0.60057   0.19604   0.54358   0.00000  Uiso   1.00
H696   H     0.39943   0.13729   0.95642   0.00000  Uiso   1.00
H697   H     0.44024   0.19327   0.60872   0.00000  Uiso   1.00
H698   H     0.55976   0.14006   0.89128   0.00000  Uiso   1.00
H699   H     0.66019   0.21260   0.97418   0.00000  Uiso   1.00
H700   H     0.33981   0.12074   0.52582   0.00000  Uiso   1.00
H701   H     0.59148   0.03733   0.74823   0.00000  Uiso   1.00
H702   H     0.40852   0.29601   0.75177   0.00000  Uiso   1.00
H703   H     0.53265   0.11105   0.78740   0.00000  Uiso   1.00
H704   H     0.46735   0.22228   0.71260   0.00000  Uiso   1.00
H705   H     0.44595   0.11117   0.78754   0.00000  Uiso   1.00
H706   H     0.55405   0.22217   0.71246   0.00000  Uiso   1.00
N707   N     0.45069   0.16668   0.74999   0.00000  Uiso   1.00
N708   N     0.54931   0.16666   0.75001   0.00000  Uiso   1.00
O709   O     0.37291   0.10655   0.75000   0.00000  Uiso   1.00
O710   O     0.62709   0.22678   0.75000   0.00000  Uiso   1.00
O711   O     0.62706   0.10654   0.75000   0.00000  Uiso   1.00
O712   O     0.37294   0.22679   0.74999   0.00000  Uiso   1.00
O713   O     0.35186   0.16668   0.81491   0.00000  Uiso   1.00
O714   O     0.64814   0.16666   0.68508   0.00000  Uiso   1.00
O715   O     0.60600   0.16667   0.81492   0.00000  Uiso   1.00
O716   O     0.39400   0.16667   0.68508   0.00000  Uiso   1.00
C717   C     0.63447   0.11920   0.61391   0.00000  Uiso   1.00
N718   N     0.59862   0.10303   0.63233   0.00000  Uiso   1.00
C719   C     0.36553   0.21414   0.88609   0.00000  Uiso   1.00
N720   N     0.40138   0.23031   0.86767   0.00000  Uiso   1.00
C721   C     0.52120   0.16607   0.59504   0.00000  Uiso   1.00
N722   N     0.51566   0.15839   0.63279   0.00000  Uiso   1.00
C723   C     0.47880   0.16726   0.90496   0.00000  Uiso   1.00
N724   N     0.48434   0.17494   0.86721   0.00000  Uiso   1.00
H725   H     0.59148   0.29607   0.74824   0.00000  Uiso   1.00
H726   H     0.40852   0.03727   0.75176   0.00000  Uiso   1.00
C727   C     0.99999   0.08737   0.75001   0.00000  Uiso   1.00
C728   C     0.66668   0.24596   0.74999   0.00000  Uiso   1.00
C729   C     0.86144   0.17556   0.54788   0.00000  Uiso   1.00
C730   C     0.80522   0.15778   0.95212   0.00000  Uiso   1.00
C731   C     0.90798   0.18798   0.52483   0.00000  Uiso   1.00
C732   C     0.75869   0.14535   0.97517   0.00000  Uiso   1.00
C733   C     0.95780   0.02130   0.74903   0.00000  Uiso   1.00
C734   C     0.70887   0.31203   0.75097   0.00000  Uiso   1.00
C735   C     0.95780   0.31206   0.74903   0.00000  Uiso   1.00
C736   C     0.70887   0.02127   0.75097   0.00000  Uiso   1.00
C737   C     0.66667   0.29059   0.75000   0.00000  Uiso   1.00
C738   C     0.66667   0.04275   0.75000   0.00000  Uiso   1.00
C739   C     0.85223   0.13572   0.77057   0.00000  Uiso   1.00
C740   C     0.81443   0.19761   0.72943   0.00000  Uiso   1.00
C741   C     0.80266   0.13579   0.77067   0.00000  Uiso   1.00
C742   C     0.86401   0.19754   0.72933   0.00000  Uiso   1.00
C743   C     0.97291   0.16818   0.83615   0.00000  Uiso   1.00
C744   C     0.69375   0.16515   0.66385   0.00000  Uiso   1.00
C745   C     0.95830   0.17344   0.88541   0.00000  Uiso   1.00
C746   C     0.70837   0.15989   0.61459   0.00000  Uiso   1.00
C747   C     0.97025   0.19873   0.95560   0.00000  Uiso   1.00
C748   C     0.69642   0.13461   0.54440   0.00000  Uiso   1.00
C749   C     0.98705   0.19452   0.90894   0.00000  Uiso   1.00
C750   C     0.67961   0.13881   0.59106   0.00000  Uiso   1.00
C751   C     0.91203   0.16000   0.90878   0.00000  Uiso   1.00
C752   C     0.75463   0.17334   0.59122   0.00000  Uiso   1.00
C753   C     0.89134   0.17100   0.95385   0.00000  Uiso   1.00
C754   C     0.77532   0.16233   0.54615   0.00000  Uiso   1.00
C755   C     0.92294   0.18660   0.97815   0.00000  Uiso   1.00
C756   C     0.74372   0.14673   0.52185   0.00000  Uiso   1.00
C757   C     0.84106   0.16520   0.97595   0.00000  Uiso   1.00
C758   C     0.82561   0.16813   0.52405   0.00000  Uiso   1.00
Cu759  Cu    0.71355   0.16667   0.75000   0.00000  Uiso   1.00
Cu760  Cu    0.95311   0.16666   0.75000   0.00000  Uiso   1.00
H761   H     0.93390   0.19604   0.54358   0.00000  Uiso   1.00
H762   H     0.73276   0.13729   0.95642   0.00000  Uiso   1.00
H763   H     0.77357   0.19327   0.60872   0.00000  Uiso   1.00
H764   H     0.89310   0.14006   0.89128   0.00000  Uiso   1.00
H765   H     0.99352   0.21260   0.97418   0.00000  Uiso   1.00
H766   H     0.67315   0.12074   0.52582   0.00000  Uiso   1.00
H767   H     0.92481   0.03733   0.74823   0.00000  Uiso   1.00
H768   H     0.74185   0.29601   0.75177   0.00000  Uiso   1.00
H769   H     0.86598   0.11105   0.78740   0.00000  Uiso   1.00
H770   H     0.80069   0.22228   0.71260   0.00000  Uiso   1.00
H771   H     0.77929   0.11117   0.78754   0.00000  Uiso   1.00
H772   H     0.88738   0.22217   0.71246   0.00000  Uiso   1.00
N773   N     0.78403   0.16668   0.74999   0.00000  Uiso   1.00
N774   N     0.88264   0.16666   0.75001   0.00000  Uiso   1.00
O775   O     0.70625   0.10655   0.75000   0.00000  Uiso   1.00
O776   O     0.96042   0.22678   0.75000   0.00000  Uiso   1.00
O777   O     0.96039   0.10654   0.75000   0.00000  Uiso   1.00
O778   O     0.70628   0.22679   0.74999   0.00000  Uiso   1.00
O779   O     0.68519   0.16668   0.81491   0.00000  Uiso   1.00
O780   O     0.98148   0.16666   0.68508   0.00000  Uiso   1.00
O781   O     0.93933   0.16667   0.81492   0.00000  Uiso   1.00
O782   O     0.72733   0.16667   0.68508   0.00000  Uiso   1.00
C783   C     0.96781   0.11920   0.61391   0.00000  Uiso   1.00
N784   N     0.93195   0.10303   0.63233   0.00000  Uiso   1.00
C785   C     0.69886   0.21414   0.88609   0.00000  Uiso   1.00
N786   N     0.73472   0.23031   0.86767   0.00000  Uiso   1.00
C787   C     0.85453   0.16607   0.59504   0.00000  Uiso   1.00
N788   N     0.84899   0.15839   0.63279   0.00000  Uiso   1.00
C789   C     0.81213   0.16726   0.90496   0.00000  Uiso   1.00
N790   N     0.81768   0.17494   0.86721   0.00000  Uiso   1.00
H791   H     0.92481   0.29607   0.74824   0.00000  Uiso   1.00
H792   H     0.74185   0.03727   0.75176   0.00000  Uiso   1.00
C793   C     0.33332   0.42071   0.75001   0.00000  Uiso   1.00
C794   C     0.00001   0.57929   0.74999   0.00000  Uiso   1.00
C795   C     0.19478   0.50889   0.54788   0.00000  Uiso   1.00
C796   C     0.13856   0.49111   0.95212   0.00000  Uiso   1.00
C797   C     0.24131   0.52132   0.52483   0.00000  Uiso   1.00
C798   C     0.09202   0.47868   0.97517   0.00000  Uiso   1.00
C799   C     0.29113   0.35464   0.74903   0.00000  Uiso   1.00
C800   C     0.04220   0.64536   0.75097   0.00000  Uiso   1.00
C801   C     0.29113   0.64540   0.74903   0.00000  Uiso   1.00
C802   C     0.04220   0.35460   0.75097   0.00000  Uiso   1.00
C803   C    -0.00000   0.62392   0.75000   0.00000  Uiso   1.00
C804   C     0.00000   0.37608   0.75000   0.00000  Uiso   1.00
C805   C     0.18557   0.46905   0.77057   0.00000  Uiso   1.00
C806   C     0.14777   0.53095   0.72943   0.00000  Uiso   1.00
C807   C     0.13599   0.46913   0.77067   0.00000  Uiso   1.00
C808   C     0.19734   0.53087   0.72933   0.00000  Uiso   1.00
C809   C     0.30625   0.50152   0.83615   0.00000  Uiso   1.00
C810   C     0.02709   0.49848   0.66385   0.00000  Uiso   1.00
C811   C     0.29163   0.50677   0.88541   0.00000  Uiso   1.00
C812   C     0.04170   0.49323   0.61459   0.00000  Uiso   1.00
C813   C     0.30358   0.53206   0.95560   0.00000  Uiso   1.00
C814   C     0.02975   0.46794   0.54440   0.00000  Uiso   1.00
C815   C     0.32038   0.52786   0.90894   0.00000  Uiso   1.00
C816   C     0.01295   0.47214   0.59106   0.00000  Uiso   1.00
C817   C     0.24537   0.49333   0.90878   0.00000  Uiso   1.00
C818   C     0.08797   0.50667   0.59122   0.00000  Uiso   1.00
C819   C     0.22468   0.50433   0.95385   0.00000  Uiso   1.00
C820   C     0.10866   0.49567   0.54615   0.00000  Uiso   1.00
C821   C     0.25628   0.51993   0.97815   0.00000  Uiso   1.00
C822   C     0.07706   0.48007   0.52185   0.00000  Uiso   1.00
C823   C     0.17439   0.49854   0.97595   0.00000  Uiso   1.00
C824   C     0.15894   0.50146   0.52405   0.00000  Uiso   1.00
Cu825  Cu    0.04689   0.50001   0.75000   0.00000  Uiso   1.00
Cu826  Cu    0.28645   0.49999   0.75000   0.00000  Uiso   1.00
H827   H     0.26724   0.52938   0.54358   0.00000  Uiso   1.00
H828   H     0.06609   0.47062   0.95642   0.00000  Uiso   1.00
H829   H     0.10690   0.52660   0.60872   0.00000  Uiso   1.00
H830   H     0.22643   0.47340   0.89128   0.00000  Uiso   1.00
H831   H     0.32685   0.54593   0.97418   0.00000  Uiso   1.00
H832   H     0.00648   0.45407   0.52582   0.00000  Uiso   1.00
H833   H     0.25815   0.37066   0.74823   0.00000  Uiso   1.00
H834   H     0.07519   0.62934   0.75177   0.00000  Uiso   1.00
H835   H     0.19931   0.44439   0.78740   0.00000  Uiso   1.00
H836   H     0.13402   0.55561   0.71260   0.00000  Uiso   1.00
H837   H     0.11262   0.44450   0.78754   0.00000  Uiso   1.00
H838   H     0.22071   0.55550   0.71246   0.00000  Uiso   1.00
N839   N     0.11736   0.50001   0.74999   0.00000  Uiso   1.00
N840   N     0.21597   0.49999   0.75001   0.00000  Uiso   1.00
O841   O     0.03958   0.43989   0.75000   0.00000  Uiso   1.00
O842   O     0.29375   0.56011   0.75000   0.00000  Uiso   1.00
O843   O     0.29372   0.43988   0.75000   0.00000  Uiso   1.00
O844   O     0.03961   0.56012   0.74999   0.00000  Uiso   1.00
O845   O     0.01852   0.50001   0.81491   0.00000  Uiso   1.00
O846   O     0.31481   0.49999   0.68508   0.00000  Uiso   1.00
O847   O     0.27267   0.50000   0.81492   0.00000  Uiso   1.00
O848   O     0.06067   0.50000   0.68508   0.00000  Uiso   1.00
C849   C     0.30114   0.45253   0.61391   0.00000  Uiso   1.00
N850   N     0.26528   0.43636   0.63233   0.00000  Uiso   1.00
C851   C     0.03219   0.54747   0.88609   0.00000  Uiso   1.00
N852   N     0.06805   0.56364   0.86767   0.00000  Uiso   1.00
C853   C     0.18787   0.49941   0.59504   0.00000  Uiso   1.00
N854   N     0.18232   0.49173   0.63279   0.00000  Uiso   1.00
C855   C     0.14546   0.50059   0.90496   0.00000  Uiso   1.00
N856   N     0.15101   0.50827   0.86721   0.00000  Uiso   1.00
H857   H     0.25815   0.62940   0.74824   0.00000  Uiso   1.00
H858   H     0.07519   0.37060   0.75176   0.00000  Uiso   1.00
C859   C     0.66666   0.42071   0.75001   0.00000  Uiso   1.00
C860   C     0.33334   0.57929   0.74999   0.00000  Uiso   1.00
C861   C     0.52811   0.50889   0.54788   0.00000  Uiso   1.00
C862   C     0.47189   0.49111   0.95212   0.00000  Uiso   1.00
C863   C     0.57464   0.52132   0.52483   0.00000  Uiso   1.00
C864   C     0.42536   0.47868   0.97517   0.00000  Uiso   1.00
C865   C     0.62446   0.35464   0.74903   0.00000  Uiso   1.00
C866   C     0.37553   0.64536   0.75097   0.00000  Uiso   1.00
C867   C     0.62446   0.64540   0.74903   0.00000  Uiso   1.00
C868   C     0.37554   0.35460   0.75097   0.00000  Uiso   1.00
C869   C     0.33333   0.62392   0.75000   0.00000  Uiso   1.00
C870   C     0.33333   0.37608   0.75000   0.00000  Uiso   1.00
C871   C     0.51890   0.46905   0.77057   0.00000  Uiso   1.00
C872   C     0.48110   0.53095   0.72943   0.00000  Uiso   1.00
C873   C     0.46932   0.46913   0.77067   0.00000  Uiso   1.00
C874   C     0.53068   0.53087   0.72933   0.00000  Uiso   1.00
C875   C     0.63958   0.50152   0.83615   0.00000  Uiso   1.00
C876   C     0.36042   0.49848   0.66385   0.00000  Uiso   1.00
C877   C     0.62497   0.50677   0.88541   0.00000  Uiso   1.00
C878   C     0.37503   0.49323   0.61459   0.00000  Uiso   1.00
C879   C     0.63692   0.53206   0.95560   0.00000  Uiso   1.00
C880   C     0.36308   0.46794   0.54440   0.00000  Uiso   1.00
C881   C     0.65372   0.52786   0.90894   0.00000  Uiso   1.00
C882   C     0.34628   0.47214   0.59106   0.00000  Uiso   1.00
C883   C     0.57870   0.49333   0.90878   0.00000  Uiso   1.00
C884   C     0.42130   0.50667   0.59122   0.00000  Uiso   1.00
C885   C     0.55801   0.50433   0.95385   0.00000  Uiso   1.00
C886   C     0.44199   0.49567   0.54615   0.00000  Uiso   1.00
C887   C     0.58961   0.51993   0.97815   0.00000  Uiso   1.00
C888   C     0.41039   0.48007   0.52185   0.00000  Uiso   1.00
C889   C     0.50772   0.49854   0.97595   0.00000  Uiso   1.00
C890   C     0.49228   0.50146   0.52405   0.00000  Uiso   1.00
Cu891  Cu    0.38022   0.50001   0.75000   0.00000  Uiso   1.00
Cu892  Cu    0.61978   0.49999   0.75000   0.00000  Uiso   1.00
H893   H     0.60057   0.52938   0.54358   0.00000  Uiso   1.00
H894   H     0.39943   0.47062   0.95642   0.00000  Uiso   1.00
H895   H     0.44024   0.52660   0.60872   0.00000  Uiso   1.00
H896   H     0.55976   0.47340   0.89128   0.00000  Uiso   1.00
H897   H     0.66019   0.54593   0.97418   0.00000  Uiso   1.00
H898   H     0.33981   0.45407   0.52582   0.00000  Uiso   1.00
H899   H     0.59148   0.37066   0.74823   0.00000  Uiso   1.00
H900   H     0.40852   0.62934   0.75177   0.00000  Uiso   1.00
H901   H     0.53265   0.44439   0.78740   0.00000  Uiso   1.00
H902   H     0.46735   0.55561   0.71260   0.00000  Uiso   1.00
H903   H     0.44595   0.44450   0.78754   0.00000  Uiso   1.00
H904   H     0.55405   0.55550   0.71246   0.00000  Uiso   1.00
N905   N     0.45069   0.50001   0.74999   0.00000  Uiso   1.00
N906   N     0.54931   0.49999   0.75001   0.00000  Uiso   1.00
O907   O     0.37291   0.43989   0.75000   0.00000  Uiso   1.00
O908   O     0.62709   0.56011   0.75000   0.00000  Uiso   1.00
O909   O     0.62706   0.43988   0.75000   0.00000  Uiso   1.00
O910   O     0.37294   0.56012   0.74999   0.00000  Uiso   1.00
O911   O     0.35186   0.50001   0.81491   0.00000  Uiso   1.00
O912   O     0.64814   0.49999   0.68508   0.00000  Uiso   1.00
O913   O     0.60600   0.50000   0.81492   0.00000  Uiso   1.00
O914   O     0.39400   0.50000   0.68508   0.00000  Uiso   1.00
C915   C     0.63447   0.45253   0.61391   0.00000  Uiso   1.00
N916   N     0.59862   0.43636   0.63233   0.00000  Uiso   1.00
C917   C     0.36553   0.54747   0.88609   0.00000  Uiso   1.00
N918   N     0.40138   0.56364   0.86767   0.00000  Uiso   1.00
C919   C     0.52120   0.49941   0.59504   0.00000  Uiso   1.00
N920   N     0.51566   0.49173   0.63279   0.00000  Uiso   1.00
C921   C     0.47880   0.50059   0.90496   0.00000  Uiso   1.00
N922   N     0.48434   0.50827   0.86721   0.00000  Uiso   1.00
H923   H     0.59148   0.62940   0.74824   0.00000  Uiso   1.00
H924   H     0.40852   0.37060   0.75176   0.00000  Uiso   1.00
C925   C     0.99999   0.42071   0.75001   0.00000  Uiso   1.00
C926   C     0.66668   0.57929   0.74999   0.00000  Uiso   1.00
C927   C     0.86144   0.50889   0.54788   0.00000  Uiso   1.00
C928   C     0.80522   0.49111   0.95212   0.00000  Uiso   1.00
C929   C     0.90798   0.52132   0.52483   0.00000  Uiso   1.00
C930   C     0.75869   0.47868   0.97517   0.00000  Uiso   1.00
C931   C     0.95780   0.35464   0.74903   0.00000  Uiso   1.00
C932   C     0.70887   0.64536   0.75097   0.00000  Uiso   1.00
C933   C     0.95780   0.64540   0.74903   0.00000  Uiso   1.00
C934   C     0.70887   0.35460   0.75097   0.00000  Uiso   1.00
C935   C     0.66667   0.62392   0.75000   0.00000  Uiso   1.00
C936   C     0.66667   0.37608   0.75000   0.00000  Uiso   1.00
C937   C     0.85223   0.46905   0.77057   0.00000  Uiso   1.00
C938   C     0.81443   0.53095   0.72943   0.00000  Uiso   1.00
C939   C     0.80266   0.46913   0.77067   0.00000  Uiso   1.00
C940   C     0.86401   0.53087   0.72933   0.00000  Uiso   1.00
C941   C     0.97291   0.50152   0.83615   0.00000  Uiso   1.00
C942   C     0.69375   0.49848   0.66385   0.00000  Uiso   1.00
C943   C     0.95830   0.50677   0.88541   0.00000  Uiso   1.00
C944   C     0.70837   0.49323   0.61459   0.00000  Uiso   1.00
C945   C     0.97025   0.53206   0.95560   0.00000  Uiso   1.00
C946   C     0.69642   0.46794   0.54440   0.00000  Uiso   1.00
C947   C     0.98705   0.52786   0.90894   0.00000  Uiso   1.00
C948   C     0.67961   0.47214   0.59106   0.00000  Uiso   1.00
C949   C     0.91203   0.49333   0.90878   0.00000  Uiso   1.00
C950   C     0.75463   0.50667   0.59122   0.00000  Uiso   1.00
C951   C     0.89134   0.50433   0.95385   0.00000  Uiso   1.00
C952   C     0.77532   0.49567   0.54615   0.00000  Uiso   1.00
C953   C     0.92294   0.51993   0.97815   0.00000  Uiso   1.00
C954   C     0.74372   0.48007   0.52185   0.00000  Uiso   1.00
C955   C     0.84106   0.49854   0.97595   0.00000  Uiso   1.00
C956   C     0.82561   0.50146   0.52405   0.00000  Uiso   1.00
Cu957  Cu    0.71355   0.50001   0.75000   0.00000  Uiso   1.00
Cu958  Cu    0.95311   0.49999   0.75000   0.00000  Uiso   1.00
H959   H     0.93390   0.52938   0.54358   0.00000  Uiso   1.00
H960   H     0.73276   0.47062   0.95642   0.00000  Uiso   1.00
H961   H     0.77357   0.52660   0.60872   0.00000  Uiso   1.00
H962   H     0.89310   0.47340   0.89128   0.00000  Uiso   1.00
H963   H     0.99352   0.54593   0.97418   0.00000  Uiso   1.00
H964   H     0.67315   0.45407   0.52582   0.00000  Uiso   1.00
H965   H     0.92481   0.37066   0.74823   0.00000  Uiso   1.00
H966   H     0.74185   0.62934   0.75177   0.00000  Uiso   1.00
H967   H     0.86598   0.44439   0.78740   0.00000  Uiso   1.00
H968   H     0.80069   0.55561   0.71260   0.00000  Uiso   1.00
H969   H     0.77929   0.44450   0.78754   0.00000  Uiso   1.00
H970   H     0.88738   0.55550   0.71246   0.00000  Uiso   1.00
N971   N     0.78403   0.50001   0.74999   0.00000  Uiso   1.00
N972   N     0.88264   0.49999   0.75001   0.00000  Uiso   1.00
O973   O     0.70625   0.43989   0.75000   0.00000  Uiso   1.00
O974   O     0.96042   0.56011   0.75000   0.00000  Uiso   1.00
O975   O     0.96039   0.43988   0.75000   0.00000  Uiso   1.00
O976   O     0.70628   0.56012   0.74999   0.00000  Uiso   1.00
O977   O     0.68519   0.50001   0.81491   0.00000  Uiso   1.00
O978   O     0.98148   0.49999   0.68508   0.00000  Uiso   1.00
O979   O     0.93933   0.50000   0.81492   0.00000  Uiso   1.00
O980   O     0.72733   0.50000   0.68508   0.00000  Uiso   1.00
C981   C     0.96781   0.45253   0.61391   0.00000  Uiso   1.00
N982   N     0.93195   0.43636   0.63233   0.00000  Uiso   1.00
C983   C     0.69886   0.54747   0.88609   0.00000  Uiso   1.00
N984   N     0.73472   0.56364   0.86767   0.00000  Uiso   1.00
C985   C     0.85453   0.49941   0.59504   0.00000  Uiso   1.00
N986   N     0.84899   0.49173   0.63279   0.00000  Uiso   1.00
C987   C     0.81213   0.50059   0.90496   0.00000  Uiso   1.00
N988   N     0.81768   0.50827   0.86721   0.00000  Uiso   1.00
H989   H     0.92481   0.62940   0.74824   0.00000  Uiso   1.00
H990   H     0.74185   0.37060   0.75176   0.00000  Uiso   1.00
C991   C     0.33332   0.75404   0.75001   0.00000  Uiso   1.00
C992   C     0.00001   0.91263   0.74999   0.00000  Uiso   1.00
C993   C     0.19478   0.84222   0.54788   0.00000  Uiso   1.00
C994   C     0.13856   0.82445   0.95212   0.00000  Uiso   1.00
C995   C     0.24131   0.85465   0.52483   0.00000  Uiso   1.00
C996   C     0.09202   0.81202   0.97517   0.00000  Uiso   1.00
C997   C     0.29113   0.68797   0.74903   0.00000  Uiso   1.00
C998   C     0.04220   0.97870   0.75097   0.00000  Uiso   1.00
C999   C     0.29113   0.97873   0.74903   0.00000  Uiso   1.00
C1000  C     0.04220   0.68794   0.75097   0.00000  Uiso   1.00
C1001  C    -0.00000   0.95725   0.75000   0.00000  Uiso   1.00
C1002  C     0.00000   0.70941   0.75000   0.00000  Uiso   1.00
C1003  C     0.18557   0.80239   0.77057   0.00000  Uiso   1.00
C1004  C     0.14777   0.86428   0.72943   0.00000  Uiso   1.00
C1005  C     0.13599   0.80246   0.77067   0.00000  Uiso   1.00
C1006  C     0.19734   0.86421   0.72933   0.00000  Uiso   1.00
C1007  C     0.30625   0.83485   0.83615   0.00000  Uiso   1.00
C1008  C     0.02709   0.83182   0.66385   0.00000  Uiso   1.00
C1009  C     0.29163   0.84011   0.88541   0.00000  Uiso   1.00
C1010  C     0.04170   0.82656   0.61459   0.00000  Uiso   1.00
C1011  C     0.30358   0.86540   0.95560   0.00000  Uiso   1.00
C1012  C     0.02975   0.80127   0.54440   0.00000  Uiso   1.00
C1013  C     0.32038   0.86119   0.90894   0.00000  Uiso   1.00
C1014  C     0.01295   0.80548   0.59106   0.00000  Uiso   1.00
C1015  C     0.24537   0.82666   0.90878   0.00000  Uiso   1.00
C1016  C     0.08797   0.84000   0.59122   0.00000  Uiso   1.00
C1017  C     0.22468   0.83767   0.95385   0.00000  Uiso   1.00
C1018  C     0.10866   0.82900   0.54615   0.00000  Uiso   1.00
C1019  C     0.25628   0.85327   0.97815   0.00000  Uiso   1.00
C1020  C     0.07706   0.81340   0.52185   0.00000  Uiso   1.00
C1021  C     0.17439   0.83187   0.97595   0.00000  Uiso   1.00
C1022  C     0.15894   0.83480   0.52405   0.00000  Uiso   1.00
Cu1023 Cu    0.04689   0.83334   0.75000   0.00000  Uiso   1.00
Cu1024 Cu    0.28645   0.83333   0.75000   0.00000  Uiso   1.00
H1025  H     0.26724   0.86271   0.54358   0.00000  Uiso   1.00
H1026  H     0.06609   0.80396   0.95642   0.00000  Uiso   1.00
H1027  H     0.10690   0.85994   0.60872   0.00000  Uiso   1.00
H1028  H     0.22643   0.80673   0.89128   0.00000  Uiso   1.00
H1029  H     0.32685   0.87926   0.97418   0.00000  Uiso   1.00
H1030  H     0.00648   0.78740   0.52582   0.00000  Uiso   1.00
H1031  H     0.25815   0.70399   0.74823   0.00000  Uiso   1.00
H1032  H     0.07519   0.96267   0.75177   0.00000  Uiso   1.00
H1033  H     0.19931   0.77772   0.78740   0.00000  Uiso   1.00
H1034  H     0.13402   0.88895   0.71260   0.00000  Uiso   1.00
H1035  H     0.11262   0.77783   0.78754   0.00000  Uiso   1.00
H1036  H     0.22071   0.88883   0.71246   0.00000  Uiso   1.00
N1037  N     0.11736   0.83334   0.74999   0.00000  Uiso   1.00
N1038  N     0.21597   0.83332   0.75001   0.00000  Uiso   1.00
O1039  O     0.03958   0.77322   0.75000   0.00000  Uiso   1.00
O1040  O     0.29375   0.89345   0.75000   0.00000  Uiso   1.00
O1041  O     0.29372   0.77321   0.75000   0.00000  Uiso   1.00
O1042  O     0.03961   0.89346   0.74999   0.00000  Uiso   1.00
O1043  O     0.01852   0.83334   0.81491   0.00000  Uiso   1.00
O1044  O     0.31481   0.83332   0.68508   0.00000  Uiso   1.00
O1045  O     0.27267   0.83333   0.81492   0.00000  Uiso   1.00
O1046  O     0.06067   0.83333   0.68508   0.00000  Uiso   1.00
C1047  C     0.30114   0.78586   0.61391   0.00000  Uiso   1.00
N1048  N     0.26528   0.76969   0.63233   0.00000  Uiso   1.00
C1049  C     0.03219   0.88080   0.88609   0.00000  Uiso   1.00
N1050  N     0.06805   0.89697   0.86767   0.00000  Uiso   1.00
C1051  C     0.18787   0.83274   0.59504   0.00000  Uiso   1.00
N1052  N     0.18232   0.82506   0.63279   0.00000  Uiso   1.00
C1053  C     0.14546   0.83393   0.90496   0.00000  Uiso   1.00
N1054  N     0.15101   0.84161   0.86721   0.00000  Uiso   1.00
H1055  H     0.25815   0.96273   0.74824   0.00000  Uiso   1.00
H1056  H     0.07519   0.70393   0.75176   0.00000  Uiso   1.00
C1057  C     0.66666   0.75404   0.75001   0.00000  Uiso   1.00
C1058  C     0.33334   0.91263   0.74999   0.00000  Uiso   1.00
C1059  C     0.52811   0.84222   0.54788   0.00000  Uiso   1.00
C1060  C     0.47189   0.82445   0.95212   0.00000  Uiso   1.00
C1061  C     0.57464   0.85465   0.52483   0.00000  Uiso   1.00
C1062  C     0.42536   0.81202   0.97517   0.00000  Uiso   1.00
C1063  C     0.62446   0.68797   0.74903   0.00000  Uiso   1.00
C1064  C     0.37553   0.97870   0.75097   0.00000  Uiso   1.00
C1065  C     0.62446   0.97873   0.74903   0.00000  Uiso   1.00
C1066  C     0.37554   0.68794   0.75097   0.00000  Uiso   1.00
C1067  C     0.33333   0.95725   0.75000   0.00000  Uiso   1.00
C1068  C     0.33333   0.70941   0.75000   0.00000  Uiso   1.00
C1069  C     0.51890   0.80239   0.77057   0.00000  Uiso   1.00
C1070  C     0.48110   0.86428   0.72943   0.00000  Uiso   1.00
C1071  C     0.46932   0.80246   0.77067   0.00000  Uiso   1.00
C1072  C     0.53068   0.86421   0.72933   0.00000  Uiso   1.00
C1073  C     0.63958   0.83485   0.83615   0.00000  Uiso   1.00
C1074  C     0.36042   0.83182   0.66385   0.00000  Uiso   1.00
C1075  C     0.62497   0.84011   0.88541   0.00000  Uiso   1.00
C1076  C     0.37503   0.82656   0.61459   0.00000  Uiso   1.00
C1077  C     0.63692   0.86540   0.95560   0.00000  Uiso   1.00
C1078  C     0.36308   0.80127   0.54440   0.00000  Uiso   1.00
C1079  C     0.65372   0.86119   0.90894   0.00000  Uiso   1.00
C1080  C     0.34628   0.80548   0.59106   0.00000  Uiso   1.00
C1081  C     0.57870   0.82666   0.90878   0.00000  Uiso   1.00
C1082  C     0.42130   0.84000   0.59122   0.00000  Uiso   1.00
C1083  C     0.55801   0.83767   0.95385   0.00000  Uiso   1.00
C1084  C     0.44199   0.82900   0.54615   0.00000  Uiso   1.00
C1085  C     0.58961   0.85327   0.97815   0.00000  Uiso   1.00
C1086  C     0.41039   0.81340   0.52185   0.00000  Uiso   1.00
C1087  C     0.50772   0.83187   0.97595   0.00000  Uiso   1.00
C1088  C     0.49228   0.83480   0.52405   0.00000  Uiso   1.00
Cu1089 Cu    0.38022   0.83334   0.75000   0.00000  Uiso   1.00
Cu1090 Cu    0.61978   0.83333   0.75000   0.00000  Uiso   1.00
H1091  H     0.60057   0.86271   0.54358   0.00000  Uiso   1.00
H1092  H     0.39943   0.80396   0.95642   0.00000  Uiso   1.00
H1093  H     0.44024   0.85994   0.60872   0.00000  Uiso   1.00
H1094  H     0.55976   0.80673   0.89128   0.00000  Uiso   1.00
H1095  H     0.66019   0.87926   0.97418   0.00000  Uiso   1.00
H1096  H     0.33981   0.78740   0.52582   0.00000  Uiso   1.00
H1097  H     0.59148   0.70399   0.74823   0.00000  Uiso   1.00
H1098  H     0.40852   0.96267   0.75177   0.00000  Uiso   1.00
H1099  H     0.53265   0.77772   0.78740   0.00000  Uiso   1.00
H1100  H     0.46735   0.88895   0.71260   0.00000  Uiso   1.00
H1101  H     0.44595   0.77783   0.78754   0.00000  Uiso   1.00
H1102  H     0.55405   0.88883   0.71246   0.00000  Uiso   1.00
N1103  N     0.45069   0.83334   0.74999   0.00000  Uiso   1.00
N1104  N     0.54931   0.83332   0.75001   0.00000  Uiso   1.00
O1105  O     0.37291   0.77322   0.75000   0.00000  Uiso   1.00
O1106  O     0.62709   0.89345   0.75000   0.00000  Uiso   1.00
O1107  O     0.62706   0.77321   0.75000   0.00000  Uiso   1.00
O1108  O     0.37294   0.89346   0.74999   0.00000  Uiso   1.00
O1109  O     0.35186   0.83334   0.81491   0.00000  Uiso   1.00
O1110  O     0.64814   0.83332   0.68508   0.00000  Uiso   1.00
O1111  O     0.60600   0.83333   0.81492   0.00000  Uiso   1.00
O1112  O     0.39400   0.83333   0.68508   0.00000  Uiso   1.00
C1113  C     0.63447   0.78586   0.61391   0.00000  Uiso   1.00
N1114  N     0.59862   0.76969   0.63233   0.00000  Uiso   1.00
C1115  C     0.36553   0.88080   0.88609   0.00000  Uiso   1.00
N1116  N     0.40138   0.89697   0.86767   0.00000  Uiso   1.00
C1117  C     0.52120   0.83274   0.59504   0.00000  Uiso   1.00
N1118  N     0.51566   0.82506   0.63279   0.00000  Uiso   1.00
C1119  C     0.47880   0.83393   0.90496   0.00000  Uiso   1.00
N1120  N     0.48434   0.84161   0.86721   0.00000  Uiso   1.00
H1121  H     0.59148   0.96273   0.74824   0.00000  Uiso   1.00
H1122  H     0.40852   0.70393   0.75176   0.00000  Uiso   1.00
C1123  C     0.99999   0.75404   0.75001   0.00000  Uiso   1.00
C1124  C     0.66668   0.91263   0.74999   0.00000  Uiso   1.00
C1125  C     0.86144   0.84222   0.54788   0.00000  Uiso   1.00
C1126  C     0.80522   0.82445   0.95212   0.00000  Uiso   1.00
C1127  C     0.90798   0.85465   0.52483   0.00000  Uiso   1.00
C1128  C     0.75869   0.81202   0.97517   0.00000  Uiso   1.00
C1129  C     0.95780   0.68797   0.74903   0.00000  Uiso   1.00
C1130  C     0.70887   0.97870   0.75097   0.00000  Uiso   1.00
C1131  C     0.95780   0.97873   0.74903   0.00000  Uiso   1.00
C1132  C     0.70887   0.68794   0.75097   0.00000  Uiso   1.00
C1133  C     0.66667   0.95725   0.75000   0.00000  Uiso   1.00
C1134  C     0.66667   0.70941   0.75000   0.00000  Uiso   1.00
C1135  C     0.85223   0.80239   0.77057   0.00000  Uiso   1.00
C1136  C     0.81443   0.86428   0.72943   0.00000  Uiso   1.00
C1137  C     0.80266   0.80246   0.77067   0.00000  Uiso   1.00
C1138  C     0.86401   0.86421   0.72933   0.00000  Uiso   1.00
C1139  C     0.97291   0.83485   0.83615   0.00000  Uiso   1.00
C1140  C     0.69375   0.83182   0.66385   0.00000  Uiso   1.00
C1141  C     0.95830   0.84011   0.88541   0.00000  Uiso   1.00
C1142  C     0.70837   0.82656   0.61459   0.00000  Uiso   1.00
C1143  C     0.97025   0.86540   0.95560   0.00000  Uiso   1.00
C1144  C     0.69642   0.80127   0.54440   0.00000  Uiso   1.00
C1145  C     0.98705   0.86119   0.90894   0.00000  Uiso   1.00
C1146  C     0.67961   0.80548   0.59106   0.00000  Uiso   1.00
C1147  C     0.91203   0.82666   0.90878   0.00000  Uiso   1.00
C1148  C     0.75463   0.84000   0.59122   0.00000  Uiso   1.00
C1149  C     0.89134   0.83767   0.95385   0.00000  Uiso   1.00
C1150  C     0.77532   0.82900   0.54615   0.00000  Uiso   1.00
C1151  C     0.92294   0.85327   0.97815   0.00000  Uiso   1.00
C1152  C     0.74372   0.81340   0.52185   0.00000  Uiso   1.00
C1153  C     0.84106   0.83187   0.97595   0.00000  Uiso   1.00
C1154  C     0.82561   0.83480   0.52405   0.00000  Uiso   1.00
Cu1155 Cu    0.71355   0.83334   0.75000   0.00000  Uiso   1.00
Cu1156 Cu    0.95311   0.83333   0.75000   0.00000  Uiso   1.00
H1157  H     0.93390   0.86271   0.54358   0.00000  Uiso   1.00
H1158  H     0.73276   0.80396   0.95642   0.00000  Uiso   1.00
H1159  H     0.77357   0.85994   0.60872   0.00000  Uiso   1.00
H1160  H     0.89310   0.80673   0.89128   0.00000  Uiso   1.00
H1161  H     0.99352   0.87926   0.97418   0.00000  Uiso   1.00
H1162  H     0.67315   0.78740   0.52582   0.00000  Uiso   1.00
H1163  H     0.92481   0.70399   0.74823   0.00000  Uiso   1.00
H1164  H     0.74185   0.96267   0.75177   0.00000  Uiso   1.00
H1165  H     0.86598   0.77772   0.78740   0.00000  Uiso   1.00
H1166  H     0.80069   0.88895   0.71260   0.00000  Uiso   1.00
H1167  H     0.77929   0.77783   0.78754   0.00000  Uiso   1.00
H1168  H     0.88738   0.88883   0.71246   0.00000  Uiso   1.00
N1169  N     0.78403   0.83334   0.74999   0.00000  Uiso   1.00
N1170  N     0.88264   0.83332   0.75001   0.00000  Uiso   1.00
O1171  O     0.70625   0.77322   0.75000   0.00000  Uiso   1.00
O1172  O     0.96042   0.89345   0.75000   0.00000  Uiso   1.00
O1173  O     0.96039   0.77321   0.75000   0.00000  Uiso   1.00
O1174  O     0.70628   0.89346   0.74999   0.00000  Uiso   1.00
O1175  O     0.68519   0.83334   0.81491   0.00000  Uiso   1.00
O1176  O     0.98148   0.83332   0.68508   0.00000  Uiso   1.00
O1177  O     0.93933   0.83333   0.81492   0.00000  Uiso   1.00
O1178  O     0.72733   0.83333   0.68508   0.00000  Uiso   1.00
C1179  C     0.96781   0.78586   0.61391   0.00000  Uiso   1.00
N1180  N     0.93195   0.76969   0.63233   0.00000  Uiso   1.00
C1181  C     0.69886   0.88080   0.88609   0.00000  Uiso   1.00
N1182  N     0.73472   0.89697   0.86767   0.00000  Uiso   1.00
C1183  C     0.85453   0.83274   0.59504   0.00000  Uiso   1.00
N1184  N     0.84899   0.82506   0.63279   0.00000  Uiso   1.00
C1185  C     0.81213   0.83393   0.90496   0.00000  Uiso   1.00
N1186  N     0.81768   0.84161   0.86721   0.00000  Uiso   1.00
H1187  H     0.92481   0.96273   0.74824   0.00000  Uiso   1.00
H1188  H     0.74185   0.70393   0.75176   0.00000  Uiso   1.00
loop_
_geom_bond_atom_site_label_1
_geom_bond_atom_site_label_2
_geom_bond_distance
_geom_bond_site_symmetry_2
_ccdc_geom_bond_type
C1     O51     1.292   .     A
C1     C78     1.450   .     S
C1     O115    1.293   .     S
C2     O52     1.292   .     A
C2     C11     1.450   .     S
C2     O182    1.293   1_455 S
C3     C32     1.431   .     A
C3     C61     1.444   .     S
C3     C5      1.391   .     A
C4     C63     1.444   .     S
C4     C31     1.431   .     A
C4     C6      1.391   .     A
C5     H35     1.086   .     S
C5     C623    1.388   1_554 S
C6     H36     1.086   .     S
C6     C624    1.388   .     S
C7     H41     1.083   .     S
C7     C405    1.384   1_545 S
C7     C78     1.401   .     S
C8     H42     1.083   .     S
C8     C208    1.384   .     S
C8     C11     1.401   .     S
C9     C77     1.401   .     A
C9     H65     1.083   .     S
C9     C205    1.384   .     S
C10    H66     1.083   .     S
C10    C12     1.401   .     A
C10    C404    1.384   1_545 S
C11    C141    1.401   1_455 A
C12    C139    1.401   1_455 S
C12    C133    1.450   1_455 S
C13    N48     1.367   .     A
C13    C15     1.417   .     A
C13    H43     1.081   .     S
C14    N47     1.367   .     A
C14    C16     1.417   .     A
C14    H44     1.081   .     S
C15    N47     1.367   .     A
C15    H45     1.081   .     S
C16    N48     1.367   .     A
C16    H46     1.081   .     S
C17    O55     1.298   .     A
C17    C19     1.473   .     S
C17    O119    1.296   .     S
C18    O56     1.298   .     A
C18    C20     1.473   .     S
C18    O186    1.296   1_455 S
C19    C23     1.411   .     A
C19    C25     1.397   .     A
C20    C26     1.397   .     A
C20    C24     1.411   .     A
C21    H39     1.085   .     S
C21    C23     1.396   .     A
C21    C29     1.403   .     A
C22    H40     1.085   .     S
C22    C24     1.396   .     A
C22    C30     1.403   .     A
C23    C125    1.443   .     S
C24    C189    1.443   1_455 S
C25    H38     1.078   .     S
C25    C27     1.405   .     A
C26    H37     1.078   .     S
C26    C28     1.405   .     A
C27    C29     1.413   .     A
C27    C31     1.431   .     A
C28    C32     1.431   .     A
C28    C30     1.413   .     A
C29    C599    1.388   .     S
C30    C600    1.388   1_554 S
C31    C626    1.433   .     S
C32    C625    1.433   1_554 S
Cu33   O56     1.932   .     S
Cu33   O52     1.965   .     S
Cu33   O53     1.948   .     S
Cu33   N47     2.016   .     S
Cu33   O49     1.965   .     S
Cu33   Cu166   2.682   1_455 S
Cu34   O51     1.965   .     S
Cu34   O55     1.932   .     S
Cu34   O54     1.948   .     S
Cu34   O50     1.965   .     S
Cu34   N48     2.016   .     S
Cu34   Cu99    2.682   .     S
O49    C133    1.293   1_455 S
O50    C68     1.293   .     S
O53    C149    1.296   1_455 S
O54    C84     1.296   .     S
C57    N58     1.157   .     T
C57    C90     1.443   .     S
C59    N60     1.157   .     T
C59    C155    1.443   1_455 S
C61    N62     1.157   .     T
C63    N64     1.157   .     T
C67    O117    1.292   .     A
C67    C144    1.450   .     S
C67    O181    1.293   .     S
C68    O118    1.292   .     A
C68    C77     1.450   .     S
C69    C98     1.431   .     A
C69    C127    1.444   .     S
C69    C71     1.391   .     A
C70    C129    1.444   .     S
C70    C97     1.431   .     A
C70    C72     1.391   .     A
C71    H101    1.086   .     S
C71    C689    1.388   1_554 S
C72    H102    1.086   .     S
C72    C690    1.388   .     S
C73    H107    1.083   .     S
C73    C471    1.384   1_545 S
C73    C144    1.401   .     S
C74    H108    1.083   .     S
C74    C274    1.384   .     S
C74    C77     1.401   .     S
C75    C143    1.401   .     A
C75    H131    1.083   .     S
C75    C271    1.384   .     S
C76    H132    1.083   .     S
C76    C78     1.401   .     A
C76    C470    1.384   1_545 S
C79    N114    1.367   .     A
C79    C81     1.417   .     A
C79    H109    1.081   .     S
C80    N113    1.367   .     A
C80    C82     1.417   .     A
C80    H110    1.081   .     S
C81    N113    1.367   .     A
C81    H111    1.081   .     S
C82    N114    1.367   .     A
C82    H112    1.081   .     S
C83    O121    1.298   .     A
C83    C85     1.473   .     S
C83    O185    1.296   .     S
C84    O122    1.298   .     A
C84    C86     1.473   .     S
C85    C89     1.411   .     A
C85    C91     1.397   .     A
C86    C92     1.397   .     A
C86    C90     1.411   .     A
C87    H105    1.085   .     S
C87    C89     1.396   .     A
C87    C95     1.403   .     A
C88    H106    1.085   .     S
C88    C90     1.396   .     A
C88    C96     1.403   .     A
C89    C191    1.443   .     S
C91    H104    1.078   .     S
C91    C93     1.405   .     A
C92    H103    1.078   .     S
C92    C94     1.405   .     A
C93    C95     1.413   .     A
C93    C97     1.431   .     A
C94    C98     1.431   .     A
C94    C96     1.413   .     A
C95    C665    1.388   .     S
C96    C666    1.388   1_554 S
C97    C692    1.433   .     S
C98    C691    1.433   1_554 S
Cu99   O122    1.932   .     S
Cu99   O118    1.965   .     S
Cu99   O119    1.948   .     S
Cu99   N113    2.016   .     S
Cu99   O115    1.965   .     S
Cu100  O117    1.965   .     S
Cu100  O121    1.932   .     S
Cu100  O120    1.948   .     S
Cu100  O116    1.965   .     S
Cu100  N114    2.016   .     S
Cu100  Cu165   2.682   .     S
O116   C134    1.293   .     S
O120   C150    1.296   .     S
C123   N124    1.157   .     T
C123   C156    1.443   .     S
C125   N126    1.157   .     T
C127   N128    1.157   .     T
C129   N130    1.157   .     T
C133   O183    1.292   .     A
C133   C12     1.450   1_655 S
C133   O49     1.293   1_655 S
C134   O184    1.292   .     A
C134   C143    1.450   .     S
C135   C164    1.431   .     A
C135   C193    1.444   .     S
C135   C137    1.391   .     A
C136   C195    1.444   .     S
C136   C163    1.431   .     A
C136   C138    1.391   .     A
C137   H167    1.086   .     S
C137   C755    1.388   1_554 S
C138   H168    1.086   .     S
C138   C756    1.388   .     S
C139   H173    1.083   .     S
C139   C537    1.384   1_545 S
C139   C12     1.401   1_655 S
C140   H174    1.083   .     S
C140   C340    1.384   .     S
C140   C143    1.401   .     S
C141   C11     1.401   1_655 A
C141   H197    1.083   .     S
C141   C337    1.384   .     S
C142   H198    1.083   .     S
C142   C144    1.401   .     A
C142   C536    1.384   1_545 S
C145   N180    1.367   .     A
C145   C147    1.417   .     A
C145   H175    1.081   .     S
C146   N179    1.367   .     A
C146   C148    1.417   .     A
C146   H176    1.081   .     S
C147   N179    1.367   .     A
C147   H177    1.081   .     S
C148   N180    1.367   .     A
C148   H178    1.081   .     S
C149   O187    1.298   .     A
C149   C151    1.473   .     S
C149   O53     1.296   1_655 S
C150   O188    1.298   .     A
C150   C152    1.473   .     S
C151   C155    1.411   .     A
C151   C157    1.397   .     A
C152   C158    1.397   .     A
C152   C156    1.411   .     A
C153   H171    1.085   .     S
C153   C155    1.396   .     A
C153   C161    1.403   .     A
C154   H172    1.085   .     S
C154   C156    1.396   .     A
C154   C162    1.403   .     A
C155   C59     1.443   1_655 S
C157   H170    1.078   .     S
C157   C159    1.405   .     A
C158   H169    1.078   .     S
C158   C160    1.405   .     A
C159   C161    1.413   .     A
C159   C163    1.431   .     A
C160   C164    1.431   .     A
C160   C162    1.413   .     A
C161   C731    1.388   .     S
C162   C732    1.388   1_554 S
C163   C758    1.433   .     S
C164   C757    1.433   1_554 S
Cu165  O188    1.932   .     S
Cu165  O184    1.965   .     S
Cu165  O185    1.948   .     S
Cu165  N179    2.016   .     S
Cu165  O181    1.965   .     S
Cu166  O183    1.965   .     S
Cu166  O187    1.932   .     S
Cu166  O186    1.948   .     S
Cu166  O182    1.965   .     S
Cu166  N180    2.016   .     S
Cu166  Cu33    2.682   1_655 S
O182   C2      1.293   1_655 S
O186   C18     1.296   1_655 S
C189   N190    1.157   .     T
C189   C24     1.443   1_655 S
C191   N192    1.157   .     T
C193   N194    1.157   .     T
C195   N196    1.157   .     T
C199   O249    1.292   .     A
C199   C276    1.450   .     S
C199   O313    1.293   .     S
C200   O250    1.292   .     A
C200   C209    1.450   .     S
C200   O380    1.293   1_455 S
C201   C230    1.431   .     A
C201   C259    1.444   .     S
C201   C203    1.391   .     A
C202   C261    1.444   .     S
C202   C229    1.431   .     A
C202   C204    1.391   .     A
C203   H233    1.086   .     S
C203   C821    1.388   1_554 S
C204   H234    1.086   .     S
C204   C822    1.388   .     S
C205   H239    1.083   .     S
C205   C276    1.401   .     S
C206   H240    1.083   .     S
C206   C406    1.384   .     S
C206   C209    1.401   .     S
C207   C275    1.401   .     A
C207   H263    1.083   .     S
C207   C403    1.384   .     S
C208   H264    1.083   .     S
C208   C210    1.401   .     A
C209   C339    1.401   1_455 A
C210   C337    1.401   1_455 S
C210   C331    1.450   1_455 S
C211   N246    1.367   .     A
C211   C213    1.417   .     A
C211   H241    1.081   .     S
C212   N245    1.367   .     A
C212   C214    1.417   .     A
C212   H242    1.081   .     S
C213   N245    1.367   .     A
C213   H243    1.081   .     S
C214   N246    1.367   .     A
C214   H244    1.081   .     S
C215   O253    1.298   .     A
C215   C217    1.473   .     S
C215   O317    1.296   .     S
C216   O254    1.298   .     A
C216   C218    1.473   .     S
C216   O384    1.296   1_455 S
C217   C221    1.411   .     A
C217   C223    1.397   .     A
C218   C224    1.397   .     A
C218   C222    1.411   .     A
C219   H237    1.085   .     S
C219   C221    1.396   .     A
C219   C227    1.403   .     A
C220   H238    1.085   .     S
C220   C222    1.396   .     A
C220   C228    1.403   .     A
C221   C323    1.443   .     S
C222   C387    1.443   1_455 S
C223   H236    1.078   .     S
C223   C225    1.405   .     A
C224   H235    1.078   .     S
C224   C226    1.405   .     A
C225   C227    1.413   .     A
C225   C229    1.431   .     A
C226   C230    1.431   .     A
C226   C228    1.413   .     A
C227   C797    1.388   .     S
C228   C798    1.388   1_554 S
C229   C824    1.433   .     S
C230   C823    1.433   1_554 S
Cu231  O254    1.932   .     S
Cu231  O250    1.965   .     S
Cu231  O251    1.948   .     S
Cu231  N245    2.016   .     S
Cu231  O247    1.965   .     S
Cu231  Cu364   2.682   1_455 S
Cu232  O249    1.965   .     S
Cu232  O253    1.932   .     S
Cu232  O252    1.948   .     S
Cu232  O248    1.965   .     S
Cu232  N246    2.016   .     S
Cu232  Cu297   2.682   .     S
O247   C331    1.293   1_455 S
O248   C266    1.293   .     S
O251   C347    1.296   1_455 S
O252   C282    1.296   .     S
C255   N256    1.157   .     T
C255   C288    1.443   .     S
C257   N258    1.157   .     T
C257   C353    1.443   1_455 S
C259   N260    1.157   .     T
C261   N262    1.157   .     T
C265   O315    1.292   .     A
C265   C342    1.450   .     S
C265   O379    1.293   .     S
C266   O316    1.292   .     A
C266   C275    1.450   .     S
C267   C296    1.431   .     A
C267   C325    1.444   .     S
C267   C269    1.391   .     A
C268   C327    1.444   .     S
C268   C295    1.431   .     A
C268   C270    1.391   .     A
C269   H299    1.086   .     S
C269   C887    1.388   1_554 S
C270   H300    1.086   .     S
C270   C888    1.388   .     S
C271   H305    1.083   .     S
C271   C342    1.401   .     S
C272   H306    1.083   .     S
C272   C472    1.384   .     S
C272   C275    1.401   .     S
C273   C341    1.401   .     A
C273   H329    1.083   .     S
C273   C469    1.384   .     S
C274   H330    1.083   .     S
C274   C276    1.401   .     A
C277   N312    1.367   .     A
C277   C279    1.417   .     A
C277   H307    1.081   .     S
C278   N311    1.367   .     A
C278   C280    1.417   .     A
C278   H308    1.081   .     S
C279   N311    1.367   .     A
C279   H309    1.081   .     S
C280   N312    1.367   .     A
C280   H310    1.081   .     S
C281   O319    1.298   .     A
C281   C283    1.473   .     S
C281   O383    1.296   .     S
C282   O320    1.298   .     A
C282   C284    1.473   .     S
C283   C287    1.411   .     A
C283   C289    1.397   .     A
C284   C290    1.397   .     A
C284   C288    1.411   .     A
C285   H303    1.085   .     S
C285   C287    1.396   .     A
C285   C293    1.403   .     A
C286   H304    1.085   .     S
C286   C288    1.396   .     A
C286   C294    1.403   .     A
C287   C389    1.443   .     S
C289   H302    1.078   .     S
C289   C291    1.405   .     A
C290   H301    1.078   .     S
C290   C292    1.405   .     A
C291   C293    1.413   .     A
C291   C295    1.431   .     A
C292   C296    1.431   .     A
C292   C294    1.413   .     A
C293   C863    1.388   .     S
C294   C864    1.388   1_554 S
C295   C890    1.433   .     S
C296   C889    1.433   1_554 S
Cu297  O320    1.932   .     S
Cu297  O316    1.965   .     S
Cu297  O317    1.948   .     S
Cu297  N311    2.016   .     S
Cu297  O313    1.965   .     S
Cu298  O315    1.965   .     S
Cu298  O319    1.932   .     S
Cu298  O318    1.948   .     S
Cu298  O314    1.965   .     S
Cu298  N312    2.016   .     S
Cu298  Cu363   2.682   .     S
O314   C332    1.293   .     S
O318   C348    1.296   .     S
C321   N322    1.157   .     T
C321   C354    1.443   .     S
C323   N324    1.157   .     T
C325   N326    1.157   .     T
C327   N328    1.157   .     T
C331   O381    1.292   .     A
C331   C210    1.450   1_655 S
C331   O247    1.293   1_655 S
C332   O382    1.292   .     A
C332   C341    1.450   .     S
C333   C362    1.431   .     A
C333   C391    1.444   .     S
C333   C335    1.391   .     A
C334   C393    1.444   .     S
C334   C361    1.431   .     A
C334   C336    1.391   .     A
C335   H365    1.086   .     S
C335   C953    1.388   1_554 S
C336   H366    1.086   .     S
C336   C954    1.388   .     S
C337   H371    1.083   .     S
C337   C210    1.401   1_655 S
C338   H372    1.083   .     S
C338   C538    1.384   .     S
C338   C341    1.401   .     S
C339   C209    1.401   1_655 A
C339   H395    1.083   .     S
C339   C535    1.384   .     S
C340   H396    1.083   .     S
C340   C342    1.401   .     A
C343   N378    1.367   .     A
C343   C345    1.417   .     A
C343   H373    1.081   .     S
C344   N377    1.367   .     A
C344   C346    1.417   .     A
C344   H374    1.081   .     S
C345   N377    1.367   .     A
C345   H375    1.081   .     S
C346   N378    1.367   .     A
C346   H376    1.081   .     S
C347   O385    1.298   .     A
C347   C349    1.473   .     S
C347   O251    1.296   1_655 S
C348   O386    1.298   .     A
C348   C350    1.473   .     S
C349   C353    1.411   .     A
C349   C355    1.397   .     A
C350   C356    1.397   .     A
C350   C354    1.411   .     A
C351   H369    1.085   .     S
C351   C353    1.396   .     A
C351   C359    1.403   .     A
C352   H370    1.085   .     S
C352   C354    1.396   .     A
C352   C360    1.403   .     A
C353   C257    1.443   1_655 S
C355   H368    1.078   .     S
C355   C357    1.405   .     A
C356   H367    1.078   .     S
C356   C358    1.405   .     A
C357   C359    1.413   .     A
C357   C361    1.431   .     A
C358   C362    1.431   .     A
C358   C360    1.413   .     A
C359   C929    1.388   .     S
C360   C930    1.388   1_554 S
C361   C956    1.433   .     S
C362   C955    1.433   1_554 S
Cu363  O386    1.932   .     S
Cu363  O382    1.965   .     S
Cu363  O383    1.948   .     S
Cu363  N377    2.016   .     S
Cu363  O379    1.965   .     S
Cu364  O381    1.965   .     S
Cu364  O385    1.932   .     S
Cu364  O384    1.948   .     S
Cu364  O380    1.965   .     S
Cu364  N378    2.016   .     S
Cu364  Cu231   2.682   1_655 S
O380   C200    1.293   1_655 S
O384   C216    1.296   1_655 S
C387   N388    1.157   .     T
C387   C222    1.443   1_655 S
C389   N390    1.157   .     T
C391   N392    1.157   .     T
C393   N394    1.157   .     T
C397   O447    1.292   .     A
C397   C474    1.450   .     S
C397   O511    1.293   .     S
C398   O448    1.292   .     A
C398   C407    1.450   .     S
C398   O578    1.293   1_455 S
C399   C428    1.431   .     A
C399   C457    1.444   .     S
C399   C401    1.391   .     A
C400   C459    1.444   .     S
C400   C427    1.431   .     A
C400   C402    1.391   .     A
C401   H431    1.086   .     S
C401   C1019   1.388   1_554 S
C402   H432    1.086   .     S
C402   C1020   1.388   .     S
C403   H437    1.083   .     S
C403   C474    1.401   .     S
C404   H438    1.083   .     S
C404   C10     1.384   1_565 S
C404   C407    1.401   .     S
C405   C473    1.401   .     A
C405   H461    1.083   .     S
C405   C7      1.384   1_565 S
C406   H462    1.083   .     S
C406   C408    1.401   .     A
C407   C537    1.401   1_455 A
C408   C535    1.401   1_455 S
C408   C529    1.450   1_455 S
C409   N444    1.367   .     A
C409   C411    1.417   .     A
C409   H439    1.081   .     S
C410   N443    1.367   .     A
C410   C412    1.417   .     A
C410   H440    1.081   .     S
C411   N443    1.367   .     A
C411   H441    1.081   .     S
C412   N444    1.367   .     A
C412   H442    1.081   .     S
C413   O451    1.298   .     A
C413   C415    1.473   .     S
C413   O515    1.296   .     S
C414   O452    1.298   .     A
C414   C416    1.473   .     S
C414   O582    1.296   1_455 S
C415   C419    1.411   .     A
C415   C421    1.397   .     A
C416   C422    1.397   .     A
C416   C420    1.411   .     A
C417   H435    1.085   .     S
C417   C419    1.396   .     A
C417   C425    1.403   .     A
C418   H436    1.085   .     S
C418   C420    1.396   .     A
C418   C426    1.403   .     A
C419   C521    1.443   .     S
C420   C585    1.443   1_455 S
C421   H434    1.078   .     S
C421   C423    1.405   .     A
C422   H433    1.078   .     S
C422   C424    1.405   .     A
C423   C425    1.413   .     A
C423   C427    1.431   .     A
C424   C428    1.431   .     A
C424   C426    1.413   .     A
C425   C995    1.388   .     S
C426   C996    1.388   1_554 S
C427   C1022   1.433   .     S
C428   C1021   1.433   1_554 S
Cu429  O452    1.932   .     S
Cu429  O448    1.965   .     S
Cu429  O449    1.948   .     S
Cu429  N443    2.016   .     S
Cu429  O445    1.965   .     S
Cu429  Cu562   2.682   1_455 S
Cu430  O447    1.965   .     S
Cu430  O451    1.932   .     S
Cu430  O450    1.948   .     S
Cu430  O446    1.965   .     S
Cu430  N444    2.016   .     S
Cu430  Cu495   2.682   .     S
O445   C529    1.293   1_455 S
O446   C464    1.293   .     S
O449   C545    1.296   1_455 S
O450   C480    1.296   .     S
C453   N454    1.157   .     T
C453   C486    1.443   .     S
C455   N456    1.157   .     T
C455   C551    1.443   1_455 S
C457   N458    1.157   .     T
C459   N460    1.157   .     T
C463   O513    1.292   .     A
C463   C540    1.450   .     S
C463   O577    1.293   .     S
C464   O514    1.292   .     A
C464   C473    1.450   .     S
C465   C494    1.431   .     A
C465   C523    1.444   .     S
C465   C467    1.391   .     A
C466   C525    1.444   .     S
C466   C493    1.431   .     A
C466   C468    1.391   .     A
C467   H497    1.086   .     S
C467   C1085   1.388   1_554 S
C468   H498    1.086   .     S
C468   C1086   1.388   .     S
C469   H503    1.083   .     S
C469   C540    1.401   .     S
C470   H504    1.083   .     S
C470   C76     1.384   1_565 S
C470   C473    1.401   .     S
C471   C539    1.401   .     A
C471   H527    1.083   .     S
C471   C73     1.384   1_565 S
C472   H528    1.083   .     S
C472   C474    1.401   .     A
C475   N510    1.367   .     A
C475   C477    1.417   .     A
C475   H505    1.081   .     S
C476   N509    1.367   .     A
C476   C478    1.417   .     A
C476   H506    1.081   .     S
C477   N509    1.367   .     A
C477   H507    1.081   .     S
C478   N510    1.367   .     A
C478   H508    1.081   .     S
C479   O517    1.298   .     A
C479   C481    1.473   .     S
C479   O581    1.296   .     S
C480   O518    1.298   .     A
C480   C482    1.473   .     S
C481   C485    1.411   .     A
C481   C487    1.397   .     A
C482   C488    1.397   .     A
C482   C486    1.411   .     A
C483   H501    1.085   .     S
C483   C485    1.396   .     A
C483   C491    1.403   .     A
C484   H502    1.085   .     S
C484   C486    1.396   .     A
C484   C492    1.403   .     A
C485   C587    1.443   .     S
C487   H500    1.078   .     S
C487   C489    1.405   .     A
C488   H499    1.078   .     S
C488   C490    1.405   .     A
C489   C491    1.413   .     A
C489   C493    1.431   .     A
C490   C494    1.431   .     A
C490   C492    1.413   .     A
C491   C1061   1.388   .     S
C492   C1062   1.388   1_554 S
C493   C1088   1.433   .     S
C494   C1087   1.433   1_554 S
Cu495  O518    1.932   .     S
Cu495  O514    1.965   .     S
Cu495  O515    1.948   .     S
Cu495  N509    2.016   .     S
Cu495  O511    1.965   .     S
Cu496  O513    1.965   .     S
Cu496  O517    1.932   .     S
Cu496  O516    1.948   .     S
Cu496  O512    1.965   .     S
Cu496  N510    2.016   .     S
Cu496  Cu561   2.682   .     S
O512   C530    1.293   .     S
O516   C546    1.296   .     S
C519   N520    1.157   .     T
C519   C552    1.443   .     S
C521   N522    1.157   .     T
C523   N524    1.157   .     T
C525   N526    1.157   .     T
C529   O579    1.292   .     A
C529   C408    1.450   1_655 S
C529   O445    1.293   1_655 S
C530   O580    1.292   .     A
C530   C539    1.450   .     S
C531   C560    1.431   .     A
C531   C589    1.444   .     S
C531   C533    1.391   .     A
C532   C591    1.444   .     S
C532   C559    1.431   .     A
C532   C534    1.391   .     A
C533   H563    1.086   .     S
C533   C1151   1.388   1_554 S
C534   H564    1.086   .     S
C534   C1152   1.388   .     S
C535   H569    1.083   .     S
C535   C408    1.401   1_655 S
C536   H570    1.083   .     S
C536   C142    1.384   1_565 S
C536   C539    1.401   .     S
C537   C407    1.401   1_655 A
C537   H593    1.083   .     S
C537   C139    1.384   1_565 S
C538   H594    1.083   .     S
C538   C540    1.401   .     A
C541   N576    1.367   .     A
C541   C543    1.417   .     A
C541   H571    1.081   .     S
C542   N575    1.367   .     A
C542   C544    1.417   .     A
C542   H572    1.081   .     S
C543   N575    1.367   .     A
C543   H573    1.081   .     S
C544   N576    1.367   .     A
C544   H574    1.081   .     S
C545   O583    1.298   .     A
C545   C547    1.473   .     S
C545   O449    1.296   1_655 S
C546   O584    1.298   .     A
C546   C548    1.473   .     S
C547   C551    1.411   .     A
C547   C553    1.397   .     A
C548   C554    1.397   .     A
C548   C552    1.411   .     A
C549   H567    1.085   .     S
C549   C551    1.396   .     A
C549   C557    1.403   .     A
C550   H568    1.085   .     S
C550   C552    1.396   .     A
C550   C558    1.403   .     A
C551   C455    1.443   1_655 S
C553   H566    1.078   .     S
C553   C555    1.405   .     A
C554   H565    1.078   .     S
C554   C556    1.405   .     A
C555   C557    1.413   .     A
C555   C559    1.431   .     A
C556   C560    1.431   .     A
C556   C558    1.413   .     A
C557   C1127   1.388   .     S
C558   C1128   1.388   1_554 S
C559   C1154   1.433   .     S
C560   C1153   1.433   1_554 S
Cu561  O584    1.932   .     S
Cu561  O580    1.965   .     S
Cu561  O581    1.948   .     S
Cu561  N575    2.016   .     S
Cu561  O577    1.965   .     S
Cu562  O579    1.965   .     S
Cu562  O583    1.932   .     S
Cu562  O582    1.948   .     S
Cu562  O578    1.965   .     S
Cu562  N576    2.016   .     S
Cu562  Cu429   2.682   1_655 S
O578   C398    1.293   1_655 S
O582   C414    1.296   1_655 S
C585   N586    1.157   .     T
C585   C420    1.443   1_655 S
C587   N588    1.157   .     T
C589   N590    1.157   .     T
C591   N592    1.157   .     T
C595   O645    1.292   .     A
C595   C672    1.450   .     S
C595   O709    1.293   .     S
C596   O646    1.292   .     A
C596   C605    1.450   .     S
C596   O776    1.293   1_455 S
C597   C626    1.431   .     A
C597   C655    1.444   .     S
C597   C599    1.391   .     A
C598   C657    1.444   .     S
C598   C625    1.431   .     A
C598   C600    1.391   .     A
C599   H629    1.086   .     S
C600   H630    1.086   .     S
C600   C30     1.388   1_556 S
C601   H635    1.083   .     S
C601   C999    1.384   1_545 S
C601   C672    1.401   .     S
C602   H636    1.083   .     S
C602   C802    1.384   .     S
C602   C605    1.401   .     S
C603   C671    1.401   .     A
C603   H659    1.083   .     S
C603   C799    1.384   .     S
C604   H660    1.083   .     S
C604   C606    1.401   .     A
C604   C998    1.384   1_545 S
C605   C735    1.401   1_455 A
C606   C733    1.401   1_455 S
C606   C727    1.450   1_455 S
C607   N642    1.367   .     A
C607   C609    1.417   .     A
C607   H637    1.081   .     S
C608   N641    1.367   .     A
C608   C610    1.417   .     A
C608   H638    1.081   .     S
C609   N641    1.367   .     A
C609   H639    1.081   .     S
C610   N642    1.367   .     A
C610   H640    1.081   .     S
C611   O649    1.298   .     A
C611   C613    1.473   .     S
C611   O713    1.296   .     S
C612   O650    1.298   .     A
C612   C614    1.473   .     S
C612   O780    1.296   1_455 S
C613   C617    1.411   .     A
C613   C619    1.397   .     A
C614   C620    1.397   .     A
C614   C618    1.411   .     A
C615   H633    1.085   .     S
C615   C617    1.396   .     A
C615   C623    1.403   .     A
C616   H634    1.085   .     S
C616   C618    1.396   .     A
C616   C624    1.403   .     A
C617   C719    1.443   .     S
C618   C783    1.443   1_455 S
C619   H632    1.078   .     S
C619   C621    1.405   .     A
C620   H631    1.078   .     S
C620   C622    1.405   .     A
C621   C623    1.413   .     A
C621   C625    1.431   .     A
C622   C626    1.431   .     A
C622   C624    1.413   .     A
C623   C5      1.388   1_556 S
C625   C32     1.433   1_556 S
Cu627  O650    1.932   .     S
Cu627  O646    1.965   .     S
Cu627  O647    1.948   .     S
Cu627  N641    2.016   .     S
Cu627  O643    1.965   .     S
Cu627  Cu760   2.682   1_455 S
Cu628  O645    1.965   .     S
Cu628  O649    1.932   .     S
Cu628  O648    1.948   .     S
Cu628  O644    1.965   .     S
Cu628  N642    2.016   .     S
Cu628  Cu693   2.682   .     S
O643   C727    1.293   1_455 S
O644   C662    1.293   .     S
O647   C743    1.296   1_455 S
O648   C678    1.296   .     S
C651   N652    1.157   .     T
C651   C684    1.443   .     S
C653   N654    1.157   .     T
C653   C749    1.443   1_455 S
C655   N656    1.157   .     T
C657   N658    1.157   .     T
C661   O711    1.292   .     A
C661   C738    1.450   .     S
C661   O775    1.293   .     S
C662   O712    1.292   .     A
C662   C671    1.450   .     S
C663   C692    1.431   .     A
C663   C721    1.444   .     S
C663   C665    1.391   .     A
C664   C723    1.444   .     S
C664   C691    1.431   .     A
C664   C666    1.391   .     A
C665   H695    1.086   .     S
C666   H696    1.086   .     S
C666   C96     1.388   1_556 S
C667   H701    1.083   .     S
C667   C1065   1.384   1_545 S
C667   C738    1.401   .     S
C668   H702    1.083   .     S
C668   C868    1.384   .     S
C668   C671    1.401   .     S
C669   C737    1.401   .     A
C669   H725    1.083   .     S
C669   C865    1.384   .     S
C670   H726    1.083   .     S
C670   C672    1.401   .     A
C670   C1064   1.384   1_545 S
C673   N708    1.367   .     A
C673   C675    1.417   .     A
C673   H703    1.081   .     S
C674   N707    1.367   .     A
C674   C676    1.417   .     A
C674   H704    1.081   .     S
C675   N707    1.367   .     A
C675   H705    1.081   .     S
C676   N708    1.367   .     A
C676   H706    1.081   .     S
C677   O715    1.298   .     A
C677   C679    1.473   .     S
C677   O779    1.296   .     S
C678   O716    1.298   .     A
C678   C680    1.473   .     S
C679   C683    1.411   .     A
C679   C685    1.397   .     A
C680   C686    1.397   .     A
C680   C684    1.411   .     A
C681   H699    1.085   .     S
C681   C683    1.396   .     A
C681   C689    1.403   .     A
C682   H700    1.085   .     S
C682   C684    1.396   .     A
C682   C690    1.403   .     A
C683   C785    1.443   .     S
C685   H698    1.078   .     S
C685   C687    1.405   .     A
C686   H697    1.078   .     S
C686   C688    1.405   .     A
C687   C689    1.413   .     A
C687   C691    1.431   .     A
C688   C692    1.431   .     A
C688   C690    1.413   .     A
C689   C71     1.388   1_556 S
C691   C98     1.433   1_556 S
Cu693  O716    1.932   .     S
Cu693  O712    1.965   .     S
Cu693  O713    1.948   .     S
Cu693  N707    2.016   .     S
Cu693  O709    1.965   .     S
Cu694  O711    1.965   .     S
Cu694  O715    1.932   .     S
Cu694  O714    1.948   .     S
Cu694  O710    1.965   .     S
Cu694  N708    2.016   .     S
Cu694  Cu759   2.682   .     S
O710   C728    1.293   .     S
O714   C744    1.296   .     S
C717   N718    1.157   .     T
C717   C750    1.443   .     S
C719   N720    1.157   .     T
C721   N722    1.157   .     T
C723   N724    1.157   .     T
C727   O777    1.292   .     A
C727   C606    1.450   1_655 S
C727   O643    1.293   1_655 S
C728   O778    1.292   .     A
C728   C737    1.450   .     S
C729   C758    1.431   .     A
C729   C787    1.444   .     S
C729   C731    1.391   .     A
C730   C789    1.444   .     S
C730   C757    1.431   .     A
C730   C732    1.391   .     A
C731   H761    1.086   .     S
C732   H762    1.086   .     S
C732   C162    1.388   1_556 S
C733   H767    1.083   .     S
C733   C1131   1.384   1_545 S
C733   C606    1.401   1_655 S
C734   H768    1.083   .     S
C734   C934    1.384   .     S
C734   C737    1.401   .     S
C735   C605    1.401   1_655 A
C735   H791    1.083   .     S
C735   C931    1.384   .     S
C736   H792    1.083   .     S
C736   C738    1.401   .     A
C736   C1130   1.384   1_545 S
C739   N774    1.367   .     A
C739   C741    1.417   .     A
C739   H769    1.081   .     S
C740   N773    1.367   .     A
C740   C742    1.417   .     A
C740   H770    1.081   .     S
C741   N773    1.367   .     A
C741   H771    1.081   .     S
C742   N774    1.367   .     A
C742   H772    1.081   .     S
C743   O781    1.298   .     A
C743   C745    1.473   .     S
C743   O647    1.296   1_655 S
C744   O782    1.298   .     A
C744   C746    1.473   .     S
C745   C749    1.411   .     A
C745   C751    1.397   .     A
C746   C752    1.397   .     A
C746   C750    1.411   .     A
C747   H765    1.085   .     S
C747   C749    1.396   .     A
C747   C755    1.403   .     A
C748   H766    1.085   .     S
C748   C750    1.396   .     A
C748   C756    1.403   .     A
C749   C653    1.443   1_655 S
C751   H764    1.078   .     S
C751   C753    1.405   .     A
C752   H763    1.078   .     S
C752   C754    1.405   .     A
C753   C755    1.413   .     A
C753   C757    1.431   .     A
C754   C758    1.431   .     A
C754   C756    1.413   .     A
C755   C137    1.388   1_556 S
C757   C164    1.433   1_556 S
Cu759  O782    1.932   .     S
Cu759  O778    1.965   .     S
Cu759  O779    1.948   .     S
Cu759  N773    2.016   .     S
Cu759  O775    1.965   .     S
Cu760  O777    1.965   .     S
Cu760  O781    1.932   .     S
Cu760  O780    1.948   .     S
Cu760  O776    1.965   .     S
Cu760  N774    2.016   .     S
Cu760  Cu627   2.682   1_655 S
O776   C596    1.293   1_655 S
O780   C612    1.296   1_655 S
C783   N784    1.157   .     T
C783   C618    1.443   1_655 S
C785   N786    1.157   .     T
C787   N788    1.157   .     T
C789   N790    1.157   .     T
C793   O843    1.292   .     A
C793   C870    1.450   .     S
C793   O907    1.293   .     S
C794   O844    1.292   .     A
C794   C803    1.450   .     S
C794   O974    1.293   1_455 S
C795   C824    1.431   .     A
C795   C853    1.444   .     S
C795   C797    1.391   .     A
C796   C855    1.444   .     S
C796   C823    1.431   .     A
C796   C798    1.391   .     A
C797   H827    1.086   .     S
C798   H828    1.086   .     S
C798   C228    1.388   1_556 S
C799   H833    1.083   .     S
C799   C870    1.401   .     S
C800   H834    1.083   .     S
C800   C1000   1.384   .     S
C800   C803    1.401   .     S
C801   C869    1.401   .     A
C801   H857    1.083   .     S
C801   C997    1.384   .     S
C802   H858    1.083   .     S
C802   C804    1.401   .     A
C803   C933    1.401   1_455 A
C804   C931    1.401   1_455 S
C804   C925    1.450   1_455 S
C805   N840    1.367   .     A
C805   C807    1.417   .     A
C805   H835    1.081   .     S
C806   N839    1.367   .     A
C806   C808    1.417   .     A
C806   H836    1.081   .     S
C807   N839    1.367   .     A
C807   H837    1.081   .     S
C808   N840    1.367   .     A
C808   H838    1.081   .     S
C809   O847    1.298   .     A
C809   C811    1.473   .     S
C809   O911    1.296   .     S
C810   O848    1.298   .     A
C810   C812    1.473   .     S
C810   O978    1.296   1_455 S
C811   C815    1.411   .     A
C811   C817    1.397   .     A
C812   C818    1.397   .     A
C812   C816    1.411   .     A
C813   H831    1.085   .     S
C813   C815    1.396   .     A
C813   C821    1.403   .     A
C814   H832    1.085   .     S
C814   C816    1.396   .     A
C814   C822    1.403   .     A
C815   C917    1.443   .     S
C816   C981    1.443   1_455 S
C817   H830    1.078   .     S
C817   C819    1.405   .     A
C818   H829    1.078   .     S
C818   C820    1.405   .     A
C819   C821    1.413   .     A
C819   C823    1.431   .     A
C820   C824    1.431   .     A
C820   C822    1.413   .     A
C821   C203    1.388   1_556 S
C823   C230    1.433   1_556 S
Cu825  O848    1.932   .     S
Cu825  O844    1.965   .     S
Cu825  O845    1.948   .     S
Cu825  N839    2.016   .     S
Cu825  O841    1.965   .     S
Cu825  Cu958   2.682   1_455 S
Cu826  O843    1.965   .     S
Cu826  O847    1.932   .     S
Cu826  O846    1.948   .     S
Cu826  O842    1.965   .     S
Cu826  N840    2.016   .     S
Cu826  Cu891   2.682   .     S
O841   C925    1.293   1_455 S
O842   C860    1.293   .     S
O845   C941    1.296   1_455 S
O846   C876    1.296   .     S
C849   N850    1.157   .     T
C849   C882    1.443   .     S
C851   N852    1.157   .     T
C851   C947    1.443   1_455 S
C853   N854    1.157   .     T
C855   N856    1.157   .     T
C859   O909    1.292   .     A
C859   C936    1.450   .     S
C859   O973    1.293   .     S
C860   O910    1.292   .     A
C860   C869    1.450   .     S
C861   C890    1.431   .     A
C861   C919    1.444   .     S
C861   C863    1.391   .     A
C862   C921    1.444   .     S
C862   C889    1.431   .     A
C862   C864    1.391   .     A
C863   H893    1.086   .     S
C864   H894    1.086   .     S
C864   C294    1.388   1_556 S
C865   H899    1.083   .     S
C865   C936    1.401   .     S
C866   H900    1.083   .     S
C866   C1066   1.384   .     S
C866   C869    1.401   .     S
C867   C935    1.401   .     A
C867   H923    1.083   .     S
C867   C1063   1.384   .     S
C868   H924    1.083   .     S
C868   C870    1.401   .     A
C871   N906    1.367   .     A
C871   C873    1.417   .     A
C871   H901    1.081   .     S
C872   N905    1.367   .     A
C872   C874    1.417   .     A
C872   H902    1.081   .     S
C873   N905    1.367   .     A
C873   H903    1.081   .     S
C874   N906    1.367   .     A
C874   H904    1.081   .     S
C875   O913    1.298   .     A
C875   C877    1.473   .     S
C875   O977    1.296   .     S
C876   O914    1.298   .     A
C876   C878    1.473   .     S
C877   C881    1.411   .     A
C877   C883    1.397   .     A
C878   C884    1.397   .     A
C878   C882    1.411   .     A
C879   H897    1.085   .     S
C879   C881    1.396   .     A
C879   C887    1.403   .     A
C880   H898    1.085   .     S
C880   C882    1.396   .     A
C880   C888    1.403   .     A
C881   C983    1.443   .     S
C883   H896    1.078   .     S
C883   C885    1.405   .     A
C884   H895    1.078   .     S
C884   C886    1.405   .     A
C885   C887    1.413   .     A
C885   C889    1.431   .     A
C886   C890    1.431   .     A
C886   C888    1.413   .     A
C887   C269    1.388   1_556 S
C889   C296    1.433   1_556 S
Cu891  O914    1.932   .     S
Cu891  O910    1.965   .     S
Cu891  O911    1.948   .     S
Cu891  N905    2.016   .     S
Cu891  O907    1.965   .     S
Cu892  O909    1.965   .     S
Cu892  O913    1.932   .     S
Cu892  O912    1.948   .     S
Cu892  O908    1.965   .     S
Cu892  N906    2.016   .     S
Cu892  Cu957   2.682   .     S
O908   C926    1.293   .     S
O912   C942    1.296   .     S
C915   N916    1.157   .     T
C915   C948    1.443   .     S
C917   N918    1.157   .     T
C919   N920    1.157   .     T
C921   N922    1.157   .     T
C925   O975    1.292   .     A
C925   C804    1.450   1_655 S
C925   O841    1.293   1_655 S
C926   O976    1.292   .     A
C926   C935    1.450   .     S
C927   C956    1.431   .     A
C927   C985    1.444   .     S
C927   C929    1.391   .     A
C928   C987    1.444   .     S
C928   C955    1.431   .     A
C928   C930    1.391   .     A
C929   H959    1.086   .     S
C930   H960    1.086   .     S
C930   C360    1.388   1_556 S
C931   H965    1.083   .     S
C931   C804    1.401   1_655 S
C932   H966    1.083   .     S
C932   C1132   1.384   .     S
C932   C935    1.401   .     S
C933   C803    1.401   1_655 A
C933   H989    1.083   .     S
C933   C1129   1.384   .     S
C934   H990    1.083   .     S
C934   C936    1.401   .     A
C937   N972    1.367   .     A
C937   C939    1.417   .     A
C937   H967    1.081   .     S
C938   N971    1.367   .     A
C938   C940    1.417   .     A
C938   H968    1.081   .     S
C939   N971    1.367   .     A
C939   H969    1.081   .     S
C940   N972    1.367   .     A
C940   H970    1.081   .     S
C941   O979    1.298   .     A
C941   C943    1.473   .     S
C941   O845    1.296   1_655 S
C942   O980    1.298   .     A
C942   C944    1.473   .     S
C943   C947    1.411   .     A
C943   C949    1.397   .     A
C944   C950    1.397   .     A
C944   C948    1.411   .     A
C945   H963    1.085   .     S
C945   C947    1.396   .     A
C945   C953    1.403   .     A
C946   H964    1.085   .     S
C946   C948    1.396   .     A
C946   C954    1.403   .     A
C947   C851    1.443   1_655 S
C949   H962    1.078   .     S
C949   C951    1.405   .     A
C950   H961    1.078   .     S
C950   C952    1.405   .     A
C951   C953    1.413   .     A
C951   C955    1.431   .     A
C952   C956    1.431   .     A
C952   C954    1.413   .     A
C953   C335    1.388   1_556 S
C955   C362    1.433   1_556 S
Cu957  O980    1.932   .     S
Cu957  O976    1.965   .     S
Cu957  O977    1.948   .     S
Cu957  N971    2.016   .     S
Cu957  O973    1.965   .     S
Cu958  O975    1.965   .     S
Cu958  O979    1.932   .     S
Cu958  O978    1.948   .     S
Cu958  O974    1.965   .     S
Cu958  N972    2.016   .     S
Cu958  Cu825   2.682   1_655 S
O974   C794    1.293   1_655 S
O978   C810    1.296   1_655 S
C981   N982    1.157   .     T
C981   C816    1.443   1_655 S
C983   N984    1.157   .     T
C985   N986    1.157   .     T
C987   N988    1.157   .     T
C991   O1041   1.292   .     A
C991   C1068   1.450   .     S
C991   O1105   1.293   .     S
C992   O1042   1.292   .     A
C992   C1001   1.450   .     S
C992   O1172   1.293   1_455 S
C993   C1022   1.431   .     A
C993   C1051   1.444   .     S
C993   C995    1.391   .     A
C994   C1053   1.444   .     S
C994   C1021   1.431   .     A
C994   C996    1.391   .     A
C995   H1025   1.086   .     S
C996   H1026   1.086   .     S
C996   C426    1.388   1_556 S
C997   H1031   1.083   .     S
C997   C1068   1.401   .     S
C998   H1032   1.083   .     S
C998   C604    1.384   1_565 S
C998   C1001   1.401   .     S
C999   C1067   1.401   .     A
C999   H1055   1.083   .     S
C999   C601    1.384   1_565 S
C1000  H1056   1.083   .     S
C1000  C1002   1.401   .     A
C1001  C1131   1.401   1_455 A
C1002  C1129   1.401   1_455 S
C1002  C1123   1.450   1_455 S
C1003  N1038   1.367   .     A
C1003  C1005   1.417   .     A
C1003  H1033   1.081   .     S
C1004  N1037   1.367   .     A
C1004  C1006   1.417   .     A
C1004  H1034   1.081   .     S
C1005  N1037   1.367   .     A
C1005  H1035   1.081   .     S
C1006  N1038   1.367   .     A
C1006  H1036   1.081   .     S
C1007  O1045   1.298   .     A
C1007  C1009   1.473   .     S
C1007  O1109   1.296   .     S
C1008  O1046   1.298   .     A
C1008  C1010   1.473   .     S
C1008  O1176   1.296   1_455 S
C1009  C1013   1.411   .     A
C1009  C1015   1.397   .     A
C1010  C1016   1.397   .     A
C1010  C1014   1.411   .     A
C1011  H1029   1.085   .     S
C1011  C1013   1.396   .     A
C1011  C1019   1.403   .     A
C1012  H1030   1.085   .     S
C1012  C1014   1.396   .     A
C1012  C1020   1.403   .     A
C1013  C1115   1.443   .     S
C1014  C1179   1.443   1_455 S
C1015  H1028   1.078   .     S
C1015  C1017   1.405   .     A
C1016  H1027   1.078   .     S
C1016  C1018   1.405   .     A
C1017  C1019   1.413   .     A
C1017  C1021   1.431   .     A
C1018  C1022   1.431   .     A
C1018  C1020   1.413   .     A
C1019  C401    1.388   1_556 S
C1021  C428    1.433   1_556 S
Cu1023 O1046   1.932   .     S
Cu1023 O1042   1.965   .     S
Cu1023 O1043   1.948   .     S
Cu1023 N1037   2.016   .     S
Cu1023 O1039   1.965   .     S
Cu1023 Cu1156  2.682   1_455 S
Cu1024 O1041   1.965   .     S
Cu1024 O1045   1.932   .     S
Cu1024 O1044   1.948   .     S
Cu1024 O1040   1.965   .     S
Cu1024 N1038   2.016   .     S
Cu1024 Cu1089  2.682   .     S
O1039  C1123   1.293   1_455 S
O1040  C1058   1.293   .     S
O1043  C1139   1.296   1_455 S
O1044  C1074   1.296   .     S
C1047  N1048   1.157   .     T
C1047  C1080   1.443   .     S
C1049  N1050   1.157   .     T
C1049  C1145   1.443   1_455 S
C1051  N1052   1.157   .     T
C1053  N1054   1.157   .     T
C1057  O1107   1.292   .     A
C1057  C1134   1.450   .     S
C1057  O1171   1.293   .     S
C1058  O1108   1.292   .     A
C1058  C1067   1.450   .     S
C1059  C1088   1.431   .     A
C1059  C1117   1.444   .     S
C1059  C1061   1.391   .     A
C1060  C1119   1.444   .     S
C1060  C1087   1.431   .     A
C1060  C1062   1.391   .     A
C1061  H1091   1.086   .     S
C1062  H1092   1.086   .     S
C1062  C492    1.388   1_556 S
C1063  H1097   1.083   .     S
C1063  C1134   1.401   .     S
C1064  H1098   1.083   .     S
C1064  C670    1.384   1_565 S
C1064  C1067   1.401   .     S
C1065  C1133   1.401   .     A
C1065  H1121   1.083   .     S
C1065  C667    1.384   1_565 S
C1066  H1122   1.083   .     S
C1066  C1068   1.401   .     A
C1069  N1104   1.367   .     A
C1069  C1071   1.417   .     A
C1069  H1099   1.081   .     S
C1070  N1103   1.367   .     A
C1070  C1072   1.417   .     A
C1070  H1100   1.081   .     S
C1071  N1103   1.367   .     A
C1071  H1101   1.081   .     S
C1072  N1104   1.367   .     A
C1072  H1102   1.081   .     S
C1073  O1111   1.298   .     A
C1073  C1075   1.473   .     S
C1073  O1175   1.296   .     S
C1074  O1112   1.298   .     A
C1074  C1076   1.473   .     S
C1075  C1079   1.411   .     A
C1075  C1081   1.397   .     A
C1076  C1082   1.397   .     A
C1076  C1080   1.411   .     A
C1077  H1095   1.085   .     S
C1077  C1079   1.396   .     A
C1077  C1085   1.403   .     A
C1078  H1096   1.085   .     S
C1078  C1080   1.396   .     A
C1078  C1086   1.403   .     A
C1079  C1181   1.443   .     S
C1081  H1094   1.078   .     S
C1081  C1083   1.405   .     A
C1082  H1093   1.078   .     S
C1082  C1084   1.405   .     A
C1083  C1085   1.413   .     A
C1083  C1087   1.431   .     A
C1084  C1088   1.431   .     A
C1084  C1086   1.413   .     A
C1085  C467    1.388   1_556 S
C1087  C494    1.433   1_556 S
Cu1089 O1112   1.932   .     S
Cu1089 O1108   1.965   .     S
Cu1089 O1109   1.948   .     S
Cu1089 N1103   2.016   .     S
Cu1089 O1105   1.965   .     S
Cu1090 O1107   1.965   .     S
Cu1090 O1111   1.932   .     S
Cu1090 O1110   1.948   .     S
Cu1090 O1106   1.965   .     S
Cu1090 N1104   2.016   .     S
Cu1090 Cu1155  2.682   .     S
O1106  C1124   1.293   .     S
O1110  C1140   1.296   .     S
C1113  N1114   1.157   .     T
C1113  C1146   1.443   .     S
C1115  N1116   1.157   .     T
C1117  N1118   1.157   .     T
C1119  N1120   1.157   .     T
C1123  O1173   1.292   .     A
C1123  C1002   1.450   1_655 S
C1123  O1039   1.293   1_655 S
C1124  O1174   1.292   .     A
C1124  C1133   1.450   .     S
C1125  C1154   1.431   .     A
C1125  C1183   1.444   .     S
C1125  C1127   1.391   .     A
C1126  C1185   1.444   .     S
C1126  C1153   1.431   .     A
C1126  C1128   1.391   .     A
C1127  H1157   1.086   .     S
C1128  H1158   1.086   .     S
C1128  C558    1.388   1_556 S
C1129  H1163   1.083   .     S
C1129  C1002   1.401   1_655 S
C1130  H1164   1.083   .     S
C1130  C736    1.384   1_565 S
C1130  C1133   1.401   .     S
C1131  C1001   1.401   1_655 A
C1131  H1187   1.083   .     S
C1131  C733    1.384   1_565 S
C1132  H1188   1.083   .     S
C1132  C1134   1.401   .     A
C1135  N1170   1.367   .     A
C1135  C1137   1.417   .     A
C1135  H1165   1.081   .     S
C1136  N1169   1.367   .     A
C1136  C1138   1.417   .     A
C1136  H1166   1.081   .     S
C1137  N1169   1.367   .     A
C1137  H1167   1.081   .     S
C1138  N1170   1.367   .     A
C1138  H1168   1.081   .     S
C1139  O1177   1.298   .     A
C1139  C1141   1.473   .     S
C1139  O1043   1.296   1_655 S
C1140  O1178   1.298   .     A
C1140  C1142   1.473   .     S
C1141  C1145   1.411   .     A
C1141  C1147   1.397   .     A
C1142  C1148   1.397   .     A
C1142  C1146   1.411   .     A
C1143  H1161   1.085   .     S
C1143  C1145   1.396   .     A
C1143  C1151   1.403   .     A
C1144  H1162   1.085   .     S
C1144  C1146   1.396   .     A
C1144  C1152   1.403   .     A
C1145  C1049   1.443   1_655 S
C1147  H1160   1.078   .     S
C1147  C1149   1.405   .     A
C1148  H1159   1.078   .     S
C1148  C1150   1.405   .     A
C1149  C1151   1.413   .     A
C1149  C1153   1.431   .     A
C1150  C1154   1.431   .     A
C1150  C1152   1.413   .     A
C1151  C533    1.388   1_556 S
C1153  C560    1.433   1_556 S
Cu1155 O1178   1.932   .     S
Cu1155 O1174   1.965   .     S
Cu1155 O1175   1.948   .     S
Cu1155 N1169   2.016   .     S
Cu1155 O1171   1.965   .     S
Cu1156 O1173   1.965   .     S
Cu1156 O1177   1.932   .     S
Cu1156 O1176   1.948   .     S
Cu1156 O1172   1.965   .     S
Cu1156 N1170   2.016   .     S
Cu1156 Cu1023  2.682   1_655 S
O1172  C992    1.293   1_655 S
O1176  C1008   1.296   1_655 S
C1179  N1180   1.157   .     T
C1179  C1014   1.443   1_655 S
C1181  N1182   1.157   .     T
C1183  N1184   1.157   .     T
C1185  N1186   1.157   .     T
