data_str_m2_o1_o17_pcu_sym.136
_audit_creation_date              2020-01-03
_audit_creation_method            'Materials Studio'
_symmetry_space_group_name_H-M    'P1'
_symmetry_Int_Tables_number       1
_symmetry_cell_setting            triclinic
loop_
_symmetry_equiv_pos_as_xyz
  x,y,z
_cell_length_a                    32.7091
_cell_length_b                    28.5552
_cell_length_c                    30.1097
_cell_angle_alpha                 89.6436
_cell_angle_beta                  90.1382
_cell_angle_gamma                 90.4189
loop_
_atom_site_label
_atom_site_type_symbol
_atom_site_fract_x
_atom_site_fract_y
_atom_site_fract_z
_atom_site_U_iso_or_equiv
_atom_site_adp_type
_atom_site_occupancy
C1     C     0.08734   0.16645   0.25193   0.00000  Uiso   1.00
C2     C     0.24600   0.16703   0.25255   0.00000  Uiso   1.00
C3     C     0.11434   0.10634   0.02555   0.00000  Uiso   1.00
C4     C     0.21818   0.22711   0.47425   0.00000  Uiso   1.00
C5     C     0.01988   0.12402   0.25442   0.00000  Uiso   1.00
C6     C     0.31340   0.21049   0.25785   0.00000  Uiso   1.00
C7     C     0.31161   0.12544   0.26352   0.00000  Uiso   1.00
C8     C     0.02219   0.20859   0.26524   0.00000  Uiso   1.00
C9     C     0.29066   0.16794   0.25767   0.00000  Uiso   1.00
C10    C     0.04279   0.16621   0.25671   0.00000  Uiso   1.00
C11    C     0.15122   0.02485   0.21477   0.00000  Uiso   1.00
C12    C     0.18195   0.30846   0.28530   0.00000  Uiso   1.00
C13    C     0.18160   0.02464   0.28545   0.00000  Uiso   1.00
C14    C     0.15103   0.30864   0.21487   0.00000  Uiso   1.00
C15    C     0.16792   0.16685   0.16441   0.00000  Uiso   1.00
C16    C     0.16519   0.16647   0.33554   0.00000  Uiso   1.00
C17    C     0.19022   0.19645   0.40616   0.00000  Uiso   1.00
C18    C     0.14253   0.13686   0.09373   0.00000  Uiso   1.00
C19    C     0.16379   0.16610   0.38377   0.00000  Uiso   1.00
C20    C     0.16903   0.16722   0.11610   0.00000  Uiso   1.00
C21    C     0.13685   0.13616   0.40730   0.00000  Uiso   1.00
C22    C     0.19577   0.19726   0.09242   0.00000  Uiso   1.00
C23    C     0.13806   0.13592   0.45415   0.00000  Uiso   1.00
C24    C     0.19445   0.19753   0.04560   0.00000  Uiso   1.00
C25    C     0.16548   0.16651   0.47652   0.00000  Uiso   1.00
C26    C     0.16704   0.16692   0.02328   0.00000  Uiso   1.00
C27    C     0.19131   0.19686   0.45222   0.00000  Uiso   1.00
C28    C     0.14127   0.13653   0.04761   0.00000  Uiso   1.00
C29    C     0.11269   0.10601   0.47938   0.00000  Uiso   1.00
C30    C     0.21978   0.22749   0.02037   0.00000  Uiso   1.00
Cu31   Cu    0.16667   0.21355   0.25000   0.00000  Uiso   1.00
Cu32   Cu    0.16667   0.11978   0.25000   0.00000  Uiso   1.00
H33    H     0.21054   0.21938   0.38745   0.00000  Uiso   1.00
H34    H     0.12231   0.11386   0.11249   0.00000  Uiso   1.00
H35    H     0.09151   0.08183   0.46407   0.00000  Uiso   1.00
H36    H     0.24093   0.25175   0.03562   0.00000  Uiso   1.00
H37    H     0.09444   0.08285   0.04407   0.00000  Uiso   1.00
H38    H     0.23809   0.25059   0.45573   0.00000  Uiso   1.00
H39    H     0.13856   0.04340   0.18659   0.00000  Uiso   1.00
H40    H     0.19458   0.28992   0.31350   0.00000  Uiso   1.00
H41    H     0.19348   0.04302   0.31401   0.00000  Uiso   1.00
H42    H     0.13822   0.29019   0.18679   0.00000  Uiso   1.00
N43    N     0.16667   0.28402   0.25000   0.00000  Uiso   1.00
N44    N     0.16667   0.04931   0.25000   0.00000  Uiso   1.00
O45    O     0.10655   0.20625   0.25000   0.00000  Uiso   1.00
O46    O     0.22679   0.12709   0.25001   0.00000  Uiso   1.00
O47    O     0.22679   0.20625   0.25001   0.00000  Uiso   1.00
O48    O     0.10655   0.12709   0.25000   0.00000  Uiso   1.00
O49    O     0.16666   0.20627   0.18513   0.00000  Uiso   1.00
O50    O     0.16668   0.12707   0.31487   0.00000  Uiso   1.00
O51    O     0.16668   0.20627   0.31487   0.00000  Uiso   1.00
O52    O     0.16666   0.12707   0.18513   0.00000  Uiso   1.00
I53    I     0.09236   0.09489   0.37184   0.00000  Uiso   1.00
I54    I     0.24026   0.23866   0.12749   0.00000  Uiso   1.00
I55    I     0.04306   0.05755   0.23351   0.00000  Uiso   1.00
I56    I     0.28853   0.27865   0.24477   0.00000  Uiso   1.00
I57    I     0.28556   0.06726   0.29888   0.00000  Uiso   1.00
I58    I     0.05112   0.26732   0.29772   0.00000  Uiso   1.00
C59    C     0.42068   0.16645   0.25193   0.00000  Uiso   1.00
C60    C     0.57933   0.16703   0.25255   0.00000  Uiso   1.00
C61    C     0.44767   0.10634   0.02555   0.00000  Uiso   1.00
C62    C     0.55151   0.22711   0.47425   0.00000  Uiso   1.00
C63    C     0.35321   0.12402   0.25442   0.00000  Uiso   1.00
C64    C     0.64674   0.21049   0.25785   0.00000  Uiso   1.00
C65    C     0.64494   0.12544   0.26352   0.00000  Uiso   1.00
C66    C     0.35552   0.20859   0.26524   0.00000  Uiso   1.00
C67    C     0.62399   0.16794   0.25767   0.00000  Uiso   1.00
C68    C     0.37613   0.16621   0.25671   0.00000  Uiso   1.00
C69    C     0.48456   0.02485   0.21477   0.00000  Uiso   1.00
C70    C     0.51528   0.30846   0.28530   0.00000  Uiso   1.00
C71    C     0.51494   0.02464   0.28545   0.00000  Uiso   1.00
C72    C     0.48436   0.30864   0.21487   0.00000  Uiso   1.00
C73    C     0.50125   0.16685   0.16441   0.00000  Uiso   1.00
C74    C     0.49852   0.16647   0.33554   0.00000  Uiso   1.00
C75    C     0.52356   0.19645   0.40616   0.00000  Uiso   1.00
C76    C     0.47586   0.13686   0.09373   0.00000  Uiso   1.00
C77    C     0.49712   0.16610   0.38377   0.00000  Uiso   1.00
C78    C     0.50236   0.16722   0.11610   0.00000  Uiso   1.00
C79    C     0.47018   0.13616   0.40730   0.00000  Uiso   1.00
C80    C     0.52910   0.19726   0.09242   0.00000  Uiso   1.00
C81    C     0.47140   0.13592   0.45415   0.00000  Uiso   1.00
C82    C     0.52778   0.19753   0.04560   0.00000  Uiso   1.00
C83    C     0.49882   0.16651   0.47652   0.00000  Uiso   1.00
C84    C     0.50037   0.16692   0.02328   0.00000  Uiso   1.00
C85    C     0.52465   0.19686   0.45222   0.00000  Uiso   1.00
C86    C     0.47460   0.13653   0.04761   0.00000  Uiso   1.00
C87    C     0.44602   0.10601   0.47938   0.00000  Uiso   1.00
C88    C     0.55311   0.22749   0.02037   0.00000  Uiso   1.00
Cu89   Cu    0.50000   0.21355   0.25000   0.00000  Uiso   1.00
Cu90   Cu    0.50000   0.11978   0.25000   0.00000  Uiso   1.00
H91    H     0.54388   0.21938   0.38745   0.00000  Uiso   1.00
H92    H     0.45565   0.11386   0.11249   0.00000  Uiso   1.00
H93    H     0.42484   0.08183   0.46407   0.00000  Uiso   1.00
H94    H     0.57427   0.25175   0.03562   0.00000  Uiso   1.00
H95    H     0.42777   0.08285   0.04407   0.00000  Uiso   1.00
H96    H     0.57142   0.25059   0.45573   0.00000  Uiso   1.00
H97    H     0.47189   0.04340   0.18659   0.00000  Uiso   1.00
H98    H     0.52792   0.28992   0.31350   0.00000  Uiso   1.00
H99    H     0.52682   0.04302   0.31401   0.00000  Uiso   1.00
H100   H     0.47155   0.29019   0.18679   0.00000  Uiso   1.00
N101   N     0.50000   0.28402   0.25000   0.00000  Uiso   1.00
N102   N     0.50000   0.04931   0.25000   0.00000  Uiso   1.00
O103   O     0.43988   0.20625   0.25000   0.00000  Uiso   1.00
O104   O     0.56012   0.12709   0.25001   0.00000  Uiso   1.00
O105   O     0.56012   0.20625   0.25001   0.00000  Uiso   1.00
O106   O     0.43988   0.12709   0.25000   0.00000  Uiso   1.00
O107   O     0.49999   0.20627   0.18513   0.00000  Uiso   1.00
O108   O     0.50001   0.12707   0.31487   0.00000  Uiso   1.00
O109   O     0.50001   0.20627   0.31487   0.00000  Uiso   1.00
O110   O     0.49999   0.12707   0.18513   0.00000  Uiso   1.00
I111   I     0.42569   0.09489   0.37184   0.00000  Uiso   1.00
I112   I     0.57360   0.23866   0.12749   0.00000  Uiso   1.00
I113   I     0.37639   0.05755   0.23351   0.00000  Uiso   1.00
I114   I     0.62186   0.27865   0.24477   0.00000  Uiso   1.00
I115   I     0.61890   0.06726   0.29888   0.00000  Uiso   1.00
I116   I     0.38445   0.26732   0.29772   0.00000  Uiso   1.00
C117   C     0.75401   0.16645   0.25193   0.00000  Uiso   1.00
C118   C     0.91267   0.16703   0.25255   0.00000  Uiso   1.00
C119   C     0.78101   0.10634   0.02555   0.00000  Uiso   1.00
C120   C     0.88485   0.22711   0.47425   0.00000  Uiso   1.00
C121   C     0.68654   0.12402   0.25442   0.00000  Uiso   1.00
C122   C     0.98007   0.21049   0.25785   0.00000  Uiso   1.00
C123   C     0.97827   0.12544   0.26352   0.00000  Uiso   1.00
C124   C     0.68886   0.20859   0.26524   0.00000  Uiso   1.00
C125   C     0.95732   0.16794   0.25767   0.00000  Uiso   1.00
C126   C     0.70946   0.16621   0.25671   0.00000  Uiso   1.00
C127   C     0.81789   0.02485   0.21477   0.00000  Uiso   1.00
C128   C     0.84861   0.30846   0.28530   0.00000  Uiso   1.00
C129   C     0.84827   0.02464   0.28545   0.00000  Uiso   1.00
C130   C     0.81770   0.30864   0.21487   0.00000  Uiso   1.00
C131   C     0.83459   0.16685   0.16441   0.00000  Uiso   1.00
C132   C     0.83185   0.16647   0.33554   0.00000  Uiso   1.00
C133   C     0.85689   0.19645   0.40616   0.00000  Uiso   1.00
C134   C     0.80919   0.13686   0.09373   0.00000  Uiso   1.00
C135   C     0.83045   0.16610   0.38377   0.00000  Uiso   1.00
C136   C     0.83570   0.16722   0.11610   0.00000  Uiso   1.00
C137   C     0.80352   0.13616   0.40730   0.00000  Uiso   1.00
C138   C     0.86244   0.19726   0.09242   0.00000  Uiso   1.00
C139   C     0.80473   0.13592   0.45415   0.00000  Uiso   1.00
C140   C     0.86112   0.19753   0.04560   0.00000  Uiso   1.00
C141   C     0.83215   0.16651   0.47652   0.00000  Uiso   1.00
C142   C     0.83370   0.16692   0.02328   0.00000  Uiso   1.00
C143   C     0.85798   0.19686   0.45222   0.00000  Uiso   1.00
C144   C     0.80793   0.13653   0.04761   0.00000  Uiso   1.00
C145   C     0.77936   0.10601   0.47938   0.00000  Uiso   1.00
C146   C     0.88644   0.22749   0.02037   0.00000  Uiso   1.00
Cu147  Cu    0.83333   0.21355   0.25000   0.00000  Uiso   1.00
Cu148  Cu    0.83333   0.11978   0.25000   0.00000  Uiso   1.00
H149   H     0.87721   0.21938   0.38745   0.00000  Uiso   1.00
H150   H     0.78898   0.11386   0.11249   0.00000  Uiso   1.00
H151   H     0.75817   0.08183   0.46407   0.00000  Uiso   1.00
H152   H     0.90760   0.25175   0.03562   0.00000  Uiso   1.00
H153   H     0.76111   0.08285   0.04407   0.00000  Uiso   1.00
H154   H     0.90476   0.25059   0.45573   0.00000  Uiso   1.00
H155   H     0.80522   0.04340   0.18659   0.00000  Uiso   1.00
H156   H     0.86125   0.28992   0.31350   0.00000  Uiso   1.00
H157   H     0.86015   0.04302   0.31401   0.00000  Uiso   1.00
H158   H     0.80489   0.29019   0.18679   0.00000  Uiso   1.00
N159   N     0.83333   0.28402   0.25000   0.00000  Uiso   1.00
N160   N     0.83333   0.04931   0.25000   0.00000  Uiso   1.00
O161   O     0.77321   0.20625   0.25000   0.00000  Uiso   1.00
O162   O     0.89345   0.12709   0.25001   0.00000  Uiso   1.00
O163   O     0.89345   0.20625   0.25001   0.00000  Uiso   1.00
O164   O     0.77321   0.12709   0.25000   0.00000  Uiso   1.00
O165   O     0.83332   0.20627   0.18513   0.00000  Uiso   1.00
O166   O     0.83334   0.12707   0.31487   0.00000  Uiso   1.00
O167   O     0.83334   0.20627   0.31487   0.00000  Uiso   1.00
O168   O     0.83332   0.12707   0.18513   0.00000  Uiso   1.00
I169   I     0.75903   0.09489   0.37184   0.00000  Uiso   1.00
I170   I     0.90693   0.23866   0.12749   0.00000  Uiso   1.00
I171   I     0.70972   0.05755   0.23351   0.00000  Uiso   1.00
I172   I     0.95519   0.27865   0.24477   0.00000  Uiso   1.00
I173   I     0.95223   0.06726   0.29888   0.00000  Uiso   1.00
I174   I     0.71779   0.26732   0.29772   0.00000  Uiso   1.00
C175   C     0.08734   0.49978   0.25193   0.00000  Uiso   1.00
C176   C     0.24600   0.50036   0.25255   0.00000  Uiso   1.00
C177   C     0.11434   0.43967   0.02555   0.00000  Uiso   1.00
C178   C     0.21818   0.56044   0.47425   0.00000  Uiso   1.00
C179   C     0.01988   0.45735   0.25442   0.00000  Uiso   1.00
C180   C     0.31340   0.54383   0.25785   0.00000  Uiso   1.00
C181   C     0.31161   0.45878   0.26352   0.00000  Uiso   1.00
C182   C     0.02219   0.54192   0.26524   0.00000  Uiso   1.00
C183   C     0.29066   0.50127   0.25767   0.00000  Uiso   1.00
C184   C     0.04279   0.49954   0.25671   0.00000  Uiso   1.00
C185   C     0.15122   0.35818   0.21477   0.00000  Uiso   1.00
C186   C     0.18195   0.64179   0.28530   0.00000  Uiso   1.00
C187   C     0.18160   0.35797   0.28545   0.00000  Uiso   1.00
C188   C     0.15103   0.64197   0.21487   0.00000  Uiso   1.00
C189   C     0.16792   0.50018   0.16441   0.00000  Uiso   1.00
C190   C     0.16519   0.49981   0.33554   0.00000  Uiso   1.00
C191   C     0.19022   0.52978   0.40616   0.00000  Uiso   1.00
C192   C     0.14253   0.47019   0.09373   0.00000  Uiso   1.00
C193   C     0.16379   0.49944   0.38377   0.00000  Uiso   1.00
C194   C     0.16903   0.50055   0.11610   0.00000  Uiso   1.00
C195   C     0.13685   0.46949   0.40730   0.00000  Uiso   1.00
C196   C     0.19577   0.53060   0.09242   0.00000  Uiso   1.00
C197   C     0.13806   0.46925   0.45415   0.00000  Uiso   1.00
C198   C     0.19445   0.53087   0.04560   0.00000  Uiso   1.00
C199   C     0.16548   0.49984   0.47652   0.00000  Uiso   1.00
C200   C     0.16704   0.50026   0.02328   0.00000  Uiso   1.00
C201   C     0.19131   0.53020   0.45222   0.00000  Uiso   1.00
C202   C     0.14127   0.46986   0.04761   0.00000  Uiso   1.00
C203   C     0.11269   0.43935   0.47938   0.00000  Uiso   1.00
C204   C     0.21978   0.56083   0.02037   0.00000  Uiso   1.00
Cu205  Cu    0.16667   0.54689   0.25000   0.00000  Uiso   1.00
Cu206  Cu    0.16667   0.45311   0.25000   0.00000  Uiso   1.00
H207   H     0.21054   0.55271   0.38745   0.00000  Uiso   1.00
H208   H     0.12231   0.44719   0.11249   0.00000  Uiso   1.00
H209   H     0.09151   0.41516   0.46407   0.00000  Uiso   1.00
H210   H     0.24093   0.58508   0.03562   0.00000  Uiso   1.00
H211   H     0.09444   0.41619   0.04407   0.00000  Uiso   1.00
H212   H     0.23809   0.58392   0.45573   0.00000  Uiso   1.00
H213   H     0.13856   0.37674   0.18659   0.00000  Uiso   1.00
H214   H     0.19458   0.62325   0.31350   0.00000  Uiso   1.00
H215   H     0.19348   0.37635   0.31401   0.00000  Uiso   1.00
H216   H     0.13822   0.62352   0.18679   0.00000  Uiso   1.00
N217   N     0.16667   0.61736   0.25000   0.00000  Uiso   1.00
N218   N     0.16667   0.38264   0.25000   0.00000  Uiso   1.00
O219   O     0.10655   0.53958   0.25000   0.00000  Uiso   1.00
O220   O     0.22679   0.46042   0.25001   0.00000  Uiso   1.00
O221   O     0.22679   0.53958   0.25001   0.00000  Uiso   1.00
O222   O     0.10655   0.46042   0.25000   0.00000  Uiso   1.00
O223   O     0.16666   0.53960   0.18513   0.00000  Uiso   1.00
O224   O     0.16668   0.46040   0.31487   0.00000  Uiso   1.00
O225   O     0.16668   0.53960   0.31487   0.00000  Uiso   1.00
O226   O     0.16666   0.46040   0.18513   0.00000  Uiso   1.00
I227   I     0.09236   0.42822   0.37184   0.00000  Uiso   1.00
I228   I     0.24026   0.57200   0.12749   0.00000  Uiso   1.00
I229   I     0.04306   0.39089   0.23351   0.00000  Uiso   1.00
I230   I     0.28853   0.61198   0.24477   0.00000  Uiso   1.00
I231   I     0.28556   0.40060   0.29888   0.00000  Uiso   1.00
I232   I     0.05112   0.60065   0.29772   0.00000  Uiso   1.00
C233   C     0.42068   0.49978   0.25193   0.00000  Uiso   1.00
C234   C     0.57933   0.50036   0.25255   0.00000  Uiso   1.00
C235   C     0.44767   0.43967   0.02555   0.00000  Uiso   1.00
C236   C     0.55151   0.56044   0.47425   0.00000  Uiso   1.00
C237   C     0.35321   0.45735   0.25442   0.00000  Uiso   1.00
C238   C     0.64674   0.54383   0.25785   0.00000  Uiso   1.00
C239   C     0.64494   0.45878   0.26352   0.00000  Uiso   1.00
C240   C     0.35552   0.54192   0.26524   0.00000  Uiso   1.00
C241   C     0.62399   0.50127   0.25767   0.00000  Uiso   1.00
C242   C     0.37613   0.49954   0.25671   0.00000  Uiso   1.00
C243   C     0.48456   0.35818   0.21477   0.00000  Uiso   1.00
C244   C     0.51528   0.64179   0.28530   0.00000  Uiso   1.00
C245   C     0.51494   0.35797   0.28545   0.00000  Uiso   1.00
C246   C     0.48436   0.64197   0.21487   0.00000  Uiso   1.00
C247   C     0.50125   0.50018   0.16441   0.00000  Uiso   1.00
C248   C     0.49852   0.49981   0.33554   0.00000  Uiso   1.00
C249   C     0.52356   0.52978   0.40616   0.00000  Uiso   1.00
C250   C     0.47586   0.47019   0.09373   0.00000  Uiso   1.00
C251   C     0.49712   0.49944   0.38377   0.00000  Uiso   1.00
C252   C     0.50236   0.50055   0.11610   0.00000  Uiso   1.00
C253   C     0.47018   0.46949   0.40730   0.00000  Uiso   1.00
C254   C     0.52910   0.53060   0.09242   0.00000  Uiso   1.00
C255   C     0.47140   0.46925   0.45415   0.00000  Uiso   1.00
C256   C     0.52778   0.53087   0.04560   0.00000  Uiso   1.00
C257   C     0.49882   0.49984   0.47652   0.00000  Uiso   1.00
C258   C     0.50037   0.50026   0.02328   0.00000  Uiso   1.00
C259   C     0.52465   0.53020   0.45222   0.00000  Uiso   1.00
C260   C     0.47460   0.46986   0.04761   0.00000  Uiso   1.00
C261   C     0.44602   0.43935   0.47938   0.00000  Uiso   1.00
C262   C     0.55311   0.56083   0.02037   0.00000  Uiso   1.00
Cu263  Cu    0.50000   0.54689   0.25000   0.00000  Uiso   1.00
Cu264  Cu    0.50000   0.45311   0.25000   0.00000  Uiso   1.00
H265   H     0.54388   0.55271   0.38745   0.00000  Uiso   1.00
H266   H     0.45565   0.44719   0.11249   0.00000  Uiso   1.00
H267   H     0.42484   0.41516   0.46407   0.00000  Uiso   1.00
H268   H     0.57427   0.58508   0.03562   0.00000  Uiso   1.00
H269   H     0.42777   0.41619   0.04407   0.00000  Uiso   1.00
H270   H     0.57142   0.58392   0.45573   0.00000  Uiso   1.00
H271   H     0.47189   0.37674   0.18659   0.00000  Uiso   1.00
H272   H     0.52792   0.62325   0.31350   0.00000  Uiso   1.00
H273   H     0.52682   0.37635   0.31401   0.00000  Uiso   1.00
H274   H     0.47155   0.62352   0.18679   0.00000  Uiso   1.00
N275   N     0.50000   0.61736   0.25000   0.00000  Uiso   1.00
N276   N     0.50000   0.38264   0.25000   0.00000  Uiso   1.00
O277   O     0.43988   0.53958   0.25000   0.00000  Uiso   1.00
O278   O     0.56012   0.46042   0.25001   0.00000  Uiso   1.00
O279   O     0.56012   0.53958   0.25001   0.00000  Uiso   1.00
O280   O     0.43988   0.46042   0.25000   0.00000  Uiso   1.00
O281   O     0.49999   0.53960   0.18513   0.00000  Uiso   1.00
O282   O     0.50001   0.46040   0.31487   0.00000  Uiso   1.00
O283   O     0.50001   0.53960   0.31487   0.00000  Uiso   1.00
O284   O     0.49999   0.46040   0.18513   0.00000  Uiso   1.00
I285   I     0.42569   0.42822   0.37184   0.00000  Uiso   1.00
I286   I     0.57360   0.57200   0.12749   0.00000  Uiso   1.00
I287   I     0.37639   0.39089   0.23351   0.00000  Uiso   1.00
I288   I     0.62186   0.61198   0.24477   0.00000  Uiso   1.00
I289   I     0.61890   0.40060   0.29888   0.00000  Uiso   1.00
I290   I     0.38445   0.60065   0.29772   0.00000  Uiso   1.00
C291   C     0.75401   0.49978   0.25193   0.00000  Uiso   1.00
C292   C     0.91267   0.50036   0.25255   0.00000  Uiso   1.00
C293   C     0.78101   0.43967   0.02555   0.00000  Uiso   1.00
C294   C     0.88485   0.56044   0.47425   0.00000  Uiso   1.00
C295   C     0.68654   0.45735   0.25442   0.00000  Uiso   1.00
C296   C     0.98007   0.54383   0.25785   0.00000  Uiso   1.00
C297   C     0.97827   0.45878   0.26352   0.00000  Uiso   1.00
C298   C     0.68886   0.54192   0.26524   0.00000  Uiso   1.00
C299   C     0.95732   0.50127   0.25767   0.00000  Uiso   1.00
C300   C     0.70946   0.49954   0.25671   0.00000  Uiso   1.00
C301   C     0.81789   0.35818   0.21477   0.00000  Uiso   1.00
C302   C     0.84861   0.64179   0.28530   0.00000  Uiso   1.00
C303   C     0.84827   0.35797   0.28545   0.00000  Uiso   1.00
C304   C     0.81770   0.64197   0.21487   0.00000  Uiso   1.00
C305   C     0.83459   0.50018   0.16441   0.00000  Uiso   1.00
C306   C     0.83185   0.49981   0.33554   0.00000  Uiso   1.00
C307   C     0.85689   0.52978   0.40616   0.00000  Uiso   1.00
C308   C     0.80919   0.47019   0.09373   0.00000  Uiso   1.00
C309   C     0.83045   0.49944   0.38377   0.00000  Uiso   1.00
C310   C     0.83570   0.50055   0.11610   0.00000  Uiso   1.00
C311   C     0.80352   0.46949   0.40730   0.00000  Uiso   1.00
C312   C     0.86244   0.53060   0.09242   0.00000  Uiso   1.00
C313   C     0.80473   0.46925   0.45415   0.00000  Uiso   1.00
C314   C     0.86112   0.53087   0.04560   0.00000  Uiso   1.00
C315   C     0.83215   0.49984   0.47652   0.00000  Uiso   1.00
C316   C     0.83370   0.50026   0.02328   0.00000  Uiso   1.00
C317   C     0.85798   0.53020   0.45222   0.00000  Uiso   1.00
C318   C     0.80793   0.46986   0.04761   0.00000  Uiso   1.00
C319   C     0.77936   0.43935   0.47938   0.00000  Uiso   1.00
C320   C     0.88644   0.56083   0.02037   0.00000  Uiso   1.00
Cu321  Cu    0.83333   0.54689   0.25000   0.00000  Uiso   1.00
Cu322  Cu    0.83333   0.45311   0.25000   0.00000  Uiso   1.00
H323   H     0.87721   0.55271   0.38745   0.00000  Uiso   1.00
H324   H     0.78898   0.44719   0.11249   0.00000  Uiso   1.00
H325   H     0.75817   0.41516   0.46407   0.00000  Uiso   1.00
H326   H     0.90760   0.58508   0.03562   0.00000  Uiso   1.00
H327   H     0.76111   0.41619   0.04407   0.00000  Uiso   1.00
H328   H     0.90476   0.58392   0.45573   0.00000  Uiso   1.00
H329   H     0.80522   0.37674   0.18659   0.00000  Uiso   1.00
H330   H     0.86125   0.62325   0.31350   0.00000  Uiso   1.00
H331   H     0.86015   0.37635   0.31401   0.00000  Uiso   1.00
H332   H     0.80489   0.62352   0.18679   0.00000  Uiso   1.00
N333   N     0.83333   0.61736   0.25000   0.00000  Uiso   1.00
N334   N     0.83333   0.38264   0.25000   0.00000  Uiso   1.00
O335   O     0.77321   0.53958   0.25000   0.00000  Uiso   1.00
O336   O     0.89345   0.46042   0.25001   0.00000  Uiso   1.00
O337   O     0.89345   0.53958   0.25001   0.00000  Uiso   1.00
O338   O     0.77321   0.46042   0.25000   0.00000  Uiso   1.00
O339   O     0.83332   0.53960   0.18513   0.00000  Uiso   1.00
O340   O     0.83334   0.46040   0.31487   0.00000  Uiso   1.00
O341   O     0.83334   0.53960   0.31487   0.00000  Uiso   1.00
O342   O     0.83332   0.46040   0.18513   0.00000  Uiso   1.00
I343   I     0.75903   0.42822   0.37184   0.00000  Uiso   1.00
I344   I     0.90693   0.57200   0.12749   0.00000  Uiso   1.00
I345   I     0.70972   0.39089   0.23351   0.00000  Uiso   1.00
I346   I     0.95519   0.61198   0.24477   0.00000  Uiso   1.00
I347   I     0.95223   0.40060   0.29888   0.00000  Uiso   1.00
I348   I     0.71779   0.60065   0.29772   0.00000  Uiso   1.00
C349   C     0.08734   0.83312   0.25193   0.00000  Uiso   1.00
C350   C     0.24600   0.83370   0.25255   0.00000  Uiso   1.00
C351   C     0.11434   0.77301   0.02555   0.00000  Uiso   1.00
C352   C     0.21818   0.89378   0.47425   0.00000  Uiso   1.00
C353   C     0.01988   0.79068   0.25442   0.00000  Uiso   1.00
C354   C     0.31340   0.87716   0.25785   0.00000  Uiso   1.00
C355   C     0.31161   0.79211   0.26352   0.00000  Uiso   1.00
C356   C     0.02219   0.87526   0.26524   0.00000  Uiso   1.00
C357   C     0.29066   0.83460   0.25767   0.00000  Uiso   1.00
C358   C     0.04279   0.83287   0.25671   0.00000  Uiso   1.00
C359   C     0.15122   0.69152   0.21477   0.00000  Uiso   1.00
C360   C     0.18195   0.97513   0.28530   0.00000  Uiso   1.00
C361   C     0.18160   0.69131   0.28545   0.00000  Uiso   1.00
C362   C     0.15103   0.97530   0.21487   0.00000  Uiso   1.00
C363   C     0.16792   0.83352   0.16441   0.00000  Uiso   1.00
C364   C     0.16519   0.83314   0.33554   0.00000  Uiso   1.00
C365   C     0.19022   0.86311   0.40616   0.00000  Uiso   1.00
C366   C     0.14253   0.80352   0.09373   0.00000  Uiso   1.00
C367   C     0.16379   0.83277   0.38377   0.00000  Uiso   1.00
C368   C     0.16903   0.83388   0.11610   0.00000  Uiso   1.00
C369   C     0.13685   0.80282   0.40730   0.00000  Uiso   1.00
C370   C     0.19577   0.86393   0.09242   0.00000  Uiso   1.00
C371   C     0.13806   0.80259   0.45415   0.00000  Uiso   1.00
C372   C     0.19445   0.86420   0.04560   0.00000  Uiso   1.00
C373   C     0.16548   0.83317   0.47652   0.00000  Uiso   1.00
C374   C     0.16704   0.83359   0.02328   0.00000  Uiso   1.00
C375   C     0.19131   0.86353   0.45222   0.00000  Uiso   1.00
C376   C     0.14127   0.80320   0.04761   0.00000  Uiso   1.00
C377   C     0.11269   0.77268   0.47938   0.00000  Uiso   1.00
C378   C     0.21978   0.89416   0.02037   0.00000  Uiso   1.00
Cu379  Cu    0.16667   0.88022   0.25000   0.00000  Uiso   1.00
Cu380  Cu    0.16667   0.78645   0.25000   0.00000  Uiso   1.00
H381   H     0.21054   0.88604   0.38745   0.00000  Uiso   1.00
H382   H     0.12231   0.78052   0.11249   0.00000  Uiso   1.00
H383   H     0.09151   0.74850   0.46407   0.00000  Uiso   1.00
H384   H     0.24093   0.91841   0.03562   0.00000  Uiso   1.00
H385   H     0.09444   0.74952   0.04407   0.00000  Uiso   1.00
H386   H     0.23809   0.91726   0.45573   0.00000  Uiso   1.00
H387   H     0.13856   0.71007   0.18659   0.00000  Uiso   1.00
H388   H     0.19458   0.95658   0.31350   0.00000  Uiso   1.00
H389   H     0.19348   0.70968   0.31401   0.00000  Uiso   1.00
H390   H     0.13822   0.95685   0.18679   0.00000  Uiso   1.00
N391   N     0.16667   0.95069   0.25000   0.00000  Uiso   1.00
N392   N     0.16667   0.71598   0.25000   0.00000  Uiso   1.00
O393   O     0.10655   0.87291   0.25000   0.00000  Uiso   1.00
O394   O     0.22679   0.79375   0.25001   0.00000  Uiso   1.00
O395   O     0.22679   0.87291   0.25001   0.00000  Uiso   1.00
O396   O     0.10655   0.79375   0.25000   0.00000  Uiso   1.00
O397   O     0.16666   0.87293   0.18513   0.00000  Uiso   1.00
O398   O     0.16668   0.79373   0.31487   0.00000  Uiso   1.00
O399   O     0.16668   0.87293   0.31487   0.00000  Uiso   1.00
O400   O     0.16666   0.79373   0.18513   0.00000  Uiso   1.00
I401   I     0.09236   0.76156   0.37184   0.00000  Uiso   1.00
I402   I     0.24026   0.90533   0.12749   0.00000  Uiso   1.00
I403   I     0.04306   0.72422   0.23351   0.00000  Uiso   1.00
I404   I     0.28853   0.94532   0.24477   0.00000  Uiso   1.00
I405   I     0.28556   0.73393   0.29888   0.00000  Uiso   1.00
I406   I     0.05112   0.93399   0.29772   0.00000  Uiso   1.00
C407   C     0.42068   0.83312   0.25193   0.00000  Uiso   1.00
C408   C     0.57933   0.83370   0.25255   0.00000  Uiso   1.00
C409   C     0.44767   0.77301   0.02555   0.00000  Uiso   1.00
C410   C     0.55151   0.89378   0.47425   0.00000  Uiso   1.00
C411   C     0.35321   0.79068   0.25442   0.00000  Uiso   1.00
C412   C     0.64674   0.87716   0.25785   0.00000  Uiso   1.00
C413   C     0.64494   0.79211   0.26352   0.00000  Uiso   1.00
C414   C     0.35552   0.87526   0.26524   0.00000  Uiso   1.00
C415   C     0.62399   0.83460   0.25767   0.00000  Uiso   1.00
C416   C     0.37613   0.83287   0.25671   0.00000  Uiso   1.00
C417   C     0.48456   0.69152   0.21477   0.00000  Uiso   1.00
C418   C     0.51528   0.97513   0.28530   0.00000  Uiso   1.00
C419   C     0.51494   0.69131   0.28545   0.00000  Uiso   1.00
C420   C     0.48436   0.97530   0.21487   0.00000  Uiso   1.00
C421   C     0.50125   0.83352   0.16441   0.00000  Uiso   1.00
C422   C     0.49852   0.83314   0.33554   0.00000  Uiso   1.00
C423   C     0.52356   0.86311   0.40616   0.00000  Uiso   1.00
C424   C     0.47586   0.80352   0.09373   0.00000  Uiso   1.00
C425   C     0.49712   0.83277   0.38377   0.00000  Uiso   1.00
C426   C     0.50236   0.83388   0.11610   0.00000  Uiso   1.00
C427   C     0.47018   0.80282   0.40730   0.00000  Uiso   1.00
C428   C     0.52910   0.86393   0.09242   0.00000  Uiso   1.00
C429   C     0.47140   0.80259   0.45415   0.00000  Uiso   1.00
C430   C     0.52778   0.86420   0.04560   0.00000  Uiso   1.00
C431   C     0.49882   0.83317   0.47652   0.00000  Uiso   1.00
C432   C     0.50037   0.83359   0.02328   0.00000  Uiso   1.00
C433   C     0.52465   0.86353   0.45222   0.00000  Uiso   1.00
C434   C     0.47460   0.80320   0.04761   0.00000  Uiso   1.00
C435   C     0.44602   0.77268   0.47938   0.00000  Uiso   1.00
C436   C     0.55311   0.89416   0.02037   0.00000  Uiso   1.00
Cu437  Cu    0.50000   0.88022   0.25000   0.00000  Uiso   1.00
Cu438  Cu    0.50000   0.78645   0.25000   0.00000  Uiso   1.00
H439   H     0.54388   0.88604   0.38745   0.00000  Uiso   1.00
H440   H     0.45565   0.78052   0.11249   0.00000  Uiso   1.00
H441   H     0.42484   0.74850   0.46407   0.00000  Uiso   1.00
H442   H     0.57427   0.91841   0.03562   0.00000  Uiso   1.00
H443   H     0.42777   0.74952   0.04407   0.00000  Uiso   1.00
H444   H     0.57142   0.91726   0.45573   0.00000  Uiso   1.00
H445   H     0.47189   0.71007   0.18659   0.00000  Uiso   1.00
H446   H     0.52792   0.95658   0.31350   0.00000  Uiso   1.00
H447   H     0.52682   0.70968   0.31401   0.00000  Uiso   1.00
H448   H     0.47155   0.95685   0.18679   0.00000  Uiso   1.00
N449   N     0.50000   0.95069   0.25000   0.00000  Uiso   1.00
N450   N     0.50000   0.71598   0.25000   0.00000  Uiso   1.00
O451   O     0.43988   0.87291   0.25000   0.00000  Uiso   1.00
O452   O     0.56012   0.79375   0.25001   0.00000  Uiso   1.00
O453   O     0.56012   0.87291   0.25001   0.00000  Uiso   1.00
O454   O     0.43988   0.79375   0.25000   0.00000  Uiso   1.00
O455   O     0.49999   0.87293   0.18513   0.00000  Uiso   1.00
O456   O     0.50001   0.79373   0.31487   0.00000  Uiso   1.00
O457   O     0.50001   0.87293   0.31487   0.00000  Uiso   1.00
O458   O     0.49999   0.79373   0.18513   0.00000  Uiso   1.00
I459   I     0.42569   0.76156   0.37184   0.00000  Uiso   1.00
I460   I     0.57360   0.90533   0.12749   0.00000  Uiso   1.00
I461   I     0.37639   0.72422   0.23351   0.00000  Uiso   1.00
I462   I     0.62186   0.94532   0.24477   0.00000  Uiso   1.00
I463   I     0.61890   0.73393   0.29888   0.00000  Uiso   1.00
I464   I     0.38445   0.93399   0.29772   0.00000  Uiso   1.00
C465   C     0.75401   0.83312   0.25193   0.00000  Uiso   1.00
C466   C     0.91267   0.83370   0.25255   0.00000  Uiso   1.00
C467   C     0.78101   0.77301   0.02555   0.00000  Uiso   1.00
C468   C     0.88485   0.89378   0.47425   0.00000  Uiso   1.00
C469   C     0.68654   0.79068   0.25442   0.00000  Uiso   1.00
C470   C     0.98007   0.87716   0.25785   0.00000  Uiso   1.00
C471   C     0.97827   0.79211   0.26352   0.00000  Uiso   1.00
C472   C     0.68886   0.87526   0.26524   0.00000  Uiso   1.00
C473   C     0.95732   0.83460   0.25767   0.00000  Uiso   1.00
C474   C     0.70946   0.83287   0.25671   0.00000  Uiso   1.00
C475   C     0.81789   0.69152   0.21477   0.00000  Uiso   1.00
C476   C     0.84861   0.97513   0.28530   0.00000  Uiso   1.00
C477   C     0.84827   0.69131   0.28545   0.00000  Uiso   1.00
C478   C     0.81770   0.97530   0.21487   0.00000  Uiso   1.00
C479   C     0.83459   0.83352   0.16441   0.00000  Uiso   1.00
C480   C     0.83185   0.83314   0.33554   0.00000  Uiso   1.00
C481   C     0.85689   0.86311   0.40616   0.00000  Uiso   1.00
C482   C     0.80919   0.80352   0.09373   0.00000  Uiso   1.00
C483   C     0.83045   0.83277   0.38377   0.00000  Uiso   1.00
C484   C     0.83570   0.83388   0.11610   0.00000  Uiso   1.00
C485   C     0.80352   0.80282   0.40730   0.00000  Uiso   1.00
C486   C     0.86244   0.86393   0.09242   0.00000  Uiso   1.00
C487   C     0.80473   0.80259   0.45415   0.00000  Uiso   1.00
C488   C     0.86112   0.86420   0.04560   0.00000  Uiso   1.00
C489   C     0.83215   0.83317   0.47652   0.00000  Uiso   1.00
C490   C     0.83370   0.83359   0.02328   0.00000  Uiso   1.00
C491   C     0.85798   0.86353   0.45222   0.00000  Uiso   1.00
C492   C     0.80793   0.80320   0.04761   0.00000  Uiso   1.00
C493   C     0.77936   0.77268   0.47938   0.00000  Uiso   1.00
C494   C     0.88644   0.89416   0.02037   0.00000  Uiso   1.00
Cu495  Cu    0.83333   0.88022   0.25000   0.00000  Uiso   1.00
Cu496  Cu    0.83333   0.78645   0.25000   0.00000  Uiso   1.00
H497   H     0.87721   0.88604   0.38745   0.00000  Uiso   1.00
H498   H     0.78898   0.78052   0.11249   0.00000  Uiso   1.00
H499   H     0.75817   0.74850   0.46407   0.00000  Uiso   1.00
H500   H     0.90760   0.91841   0.03562   0.00000  Uiso   1.00
H501   H     0.76111   0.74952   0.04407   0.00000  Uiso   1.00
H502   H     0.90476   0.91726   0.45573   0.00000  Uiso   1.00
H503   H     0.80522   0.71007   0.18659   0.00000  Uiso   1.00
H504   H     0.86125   0.95658   0.31350   0.00000  Uiso   1.00
H505   H     0.86015   0.70968   0.31401   0.00000  Uiso   1.00
H506   H     0.80489   0.95685   0.18679   0.00000  Uiso   1.00
N507   N     0.83333   0.95069   0.25000   0.00000  Uiso   1.00
N508   N     0.83333   0.71598   0.25000   0.00000  Uiso   1.00
O509   O     0.77321   0.87291   0.25000   0.00000  Uiso   1.00
O510   O     0.89345   0.79375   0.25001   0.00000  Uiso   1.00
O511   O     0.89345   0.87291   0.25001   0.00000  Uiso   1.00
O512   O     0.77321   0.79375   0.25000   0.00000  Uiso   1.00
O513   O     0.83332   0.87293   0.18513   0.00000  Uiso   1.00
O514   O     0.83334   0.79373   0.31487   0.00000  Uiso   1.00
O515   O     0.83334   0.87293   0.31487   0.00000  Uiso   1.00
O516   O     0.83332   0.79373   0.18513   0.00000  Uiso   1.00
I517   I     0.75903   0.76156   0.37184   0.00000  Uiso   1.00
I518   I     0.90693   0.90533   0.12749   0.00000  Uiso   1.00
I519   I     0.70972   0.72422   0.23351   0.00000  Uiso   1.00
I520   I     0.95519   0.94532   0.24477   0.00000  Uiso   1.00
I521   I     0.95223   0.73393   0.29888   0.00000  Uiso   1.00
I522   I     0.71779   0.93399   0.29772   0.00000  Uiso   1.00
C523   C     0.08734   0.16645   0.75193   0.00000  Uiso   1.00
C524   C     0.24600   0.16703   0.75255   0.00000  Uiso   1.00
C525   C     0.11434   0.10634   0.52555   0.00000  Uiso   1.00
C526   C     0.21818   0.22711   0.97425   0.00000  Uiso   1.00
C527   C     0.01988   0.12402   0.75442   0.00000  Uiso   1.00
C528   C     0.31340   0.21049   0.75785   0.00000  Uiso   1.00
C529   C     0.31161   0.12544   0.76352   0.00000  Uiso   1.00
C530   C     0.02219   0.20859   0.76524   0.00000  Uiso   1.00
C531   C     0.29066   0.16794   0.75767   0.00000  Uiso   1.00
C532   C     0.04279   0.16621   0.75671   0.00000  Uiso   1.00
C533   C     0.15122   0.02485   0.71477   0.00000  Uiso   1.00
C534   C     0.18195   0.30846   0.78530   0.00000  Uiso   1.00
C535   C     0.18160   0.02464   0.78545   0.00000  Uiso   1.00
C536   C     0.15103   0.30864   0.71487   0.00000  Uiso   1.00
C537   C     0.16792   0.16685   0.66441   0.00000  Uiso   1.00
C538   C     0.16519   0.16647   0.83554   0.00000  Uiso   1.00
C539   C     0.19022   0.19645   0.90616   0.00000  Uiso   1.00
C540   C     0.14253   0.13686   0.59373   0.00000  Uiso   1.00
C541   C     0.16379   0.16610   0.88377   0.00000  Uiso   1.00
C542   C     0.16903   0.16722   0.61610   0.00000  Uiso   1.00
C543   C     0.13685   0.13616   0.90730   0.00000  Uiso   1.00
C544   C     0.19577   0.19726   0.59242   0.00000  Uiso   1.00
C545   C     0.13806   0.13592   0.95415   0.00000  Uiso   1.00
C546   C     0.19445   0.19753   0.54560   0.00000  Uiso   1.00
C547   C     0.16548   0.16651   0.97652   0.00000  Uiso   1.00
C548   C     0.16704   0.16692   0.52328   0.00000  Uiso   1.00
C549   C     0.19131   0.19686   0.95222   0.00000  Uiso   1.00
C550   C     0.14127   0.13653   0.54761   0.00000  Uiso   1.00
C551   C     0.11269   0.10601   0.97938   0.00000  Uiso   1.00
C552   C     0.21978   0.22749   0.52037   0.00000  Uiso   1.00
Cu553  Cu    0.16667   0.21355   0.75000   0.00000  Uiso   1.00
Cu554  Cu    0.16667   0.11978   0.75000   0.00000  Uiso   1.00
H555   H     0.21054   0.21938   0.88745   0.00000  Uiso   1.00
H556   H     0.12231   0.11386   0.61249   0.00000  Uiso   1.00
H557   H     0.09151   0.08183   0.96407   0.00000  Uiso   1.00
H558   H     0.24093   0.25175   0.53562   0.00000  Uiso   1.00
H559   H     0.09444   0.08285   0.54407   0.00000  Uiso   1.00
H560   H     0.23809   0.25059   0.95573   0.00000  Uiso   1.00
H561   H     0.13856   0.04340   0.68659   0.00000  Uiso   1.00
H562   H     0.19458   0.28992   0.81350   0.00000  Uiso   1.00
H563   H     0.19348   0.04302   0.81401   0.00000  Uiso   1.00
H564   H     0.13822   0.29019   0.68679   0.00000  Uiso   1.00
N565   N     0.16667   0.28402   0.75000   0.00000  Uiso   1.00
N566   N     0.16667   0.04931   0.75000   0.00000  Uiso   1.00
O567   O     0.10655   0.20625   0.75000   0.00000  Uiso   1.00
O568   O     0.22679   0.12709   0.75001   0.00000  Uiso   1.00
O569   O     0.22679   0.20625   0.75001   0.00000  Uiso   1.00
O570   O     0.10655   0.12709   0.75000   0.00000  Uiso   1.00
O571   O     0.16666   0.20627   0.68513   0.00000  Uiso   1.00
O572   O     0.16668   0.12707   0.81487   0.00000  Uiso   1.00
O573   O     0.16668   0.20627   0.81487   0.00000  Uiso   1.00
O574   O     0.16666   0.12707   0.68513   0.00000  Uiso   1.00
I575   I     0.09236   0.09489   0.87184   0.00000  Uiso   1.00
I576   I     0.24026   0.23866   0.62749   0.00000  Uiso   1.00
I577   I     0.04306   0.05755   0.73351   0.00000  Uiso   1.00
I578   I     0.28853   0.27865   0.74477   0.00000  Uiso   1.00
I579   I     0.28556   0.06726   0.79888   0.00000  Uiso   1.00
I580   I     0.05112   0.26732   0.79772   0.00000  Uiso   1.00
C581   C     0.42068   0.16645   0.75193   0.00000  Uiso   1.00
C582   C     0.57933   0.16703   0.75255   0.00000  Uiso   1.00
C583   C     0.44767   0.10634   0.52555   0.00000  Uiso   1.00
C584   C     0.55151   0.22711   0.97425   0.00000  Uiso   1.00
C585   C     0.35321   0.12402   0.75442   0.00000  Uiso   1.00
C586   C     0.64674   0.21049   0.75785   0.00000  Uiso   1.00
C587   C     0.64494   0.12544   0.76352   0.00000  Uiso   1.00
C588   C     0.35552   0.20859   0.76524   0.00000  Uiso   1.00
C589   C     0.62399   0.16794   0.75767   0.00000  Uiso   1.00
C590   C     0.37613   0.16621   0.75671   0.00000  Uiso   1.00
C591   C     0.48456   0.02485   0.71477   0.00000  Uiso   1.00
C592   C     0.51528   0.30846   0.78530   0.00000  Uiso   1.00
C593   C     0.51494   0.02464   0.78545   0.00000  Uiso   1.00
C594   C     0.48436   0.30864   0.71487   0.00000  Uiso   1.00
C595   C     0.50125   0.16685   0.66441   0.00000  Uiso   1.00
C596   C     0.49852   0.16647   0.83554   0.00000  Uiso   1.00
C597   C     0.52356   0.19645   0.90616   0.00000  Uiso   1.00
C598   C     0.47586   0.13686   0.59373   0.00000  Uiso   1.00
C599   C     0.49712   0.16610   0.88377   0.00000  Uiso   1.00
C600   C     0.50236   0.16722   0.61610   0.00000  Uiso   1.00
C601   C     0.47018   0.13616   0.90730   0.00000  Uiso   1.00
C602   C     0.52910   0.19726   0.59242   0.00000  Uiso   1.00
C603   C     0.47140   0.13592   0.95415   0.00000  Uiso   1.00
C604   C     0.52778   0.19753   0.54560   0.00000  Uiso   1.00
C605   C     0.49882   0.16651   0.97652   0.00000  Uiso   1.00
C606   C     0.50037   0.16692   0.52328   0.00000  Uiso   1.00
C607   C     0.52465   0.19686   0.95222   0.00000  Uiso   1.00
C608   C     0.47460   0.13653   0.54761   0.00000  Uiso   1.00
C609   C     0.44602   0.10601   0.97938   0.00000  Uiso   1.00
C610   C     0.55311   0.22749   0.52037   0.00000  Uiso   1.00
Cu611  Cu    0.50000   0.21355   0.75000   0.00000  Uiso   1.00
Cu612  Cu    0.50000   0.11978   0.75000   0.00000  Uiso   1.00
H613   H     0.54388   0.21938   0.88745   0.00000  Uiso   1.00
H614   H     0.45565   0.11386   0.61249   0.00000  Uiso   1.00
H615   H     0.42484   0.08183   0.96407   0.00000  Uiso   1.00
H616   H     0.57427   0.25175   0.53562   0.00000  Uiso   1.00
H617   H     0.42777   0.08285   0.54407   0.00000  Uiso   1.00
H618   H     0.57142   0.25059   0.95573   0.00000  Uiso   1.00
H619   H     0.47189   0.04340   0.68659   0.00000  Uiso   1.00
H620   H     0.52792   0.28992   0.81350   0.00000  Uiso   1.00
H621   H     0.52682   0.04302   0.81401   0.00000  Uiso   1.00
H622   H     0.47155   0.29019   0.68679   0.00000  Uiso   1.00
N623   N     0.50000   0.28402   0.75000   0.00000  Uiso   1.00
N624   N     0.50000   0.04931   0.75000   0.00000  Uiso   1.00
O625   O     0.43988   0.20625   0.75000   0.00000  Uiso   1.00
O626   O     0.56012   0.12709   0.75001   0.00000  Uiso   1.00
O627   O     0.56012   0.20625   0.75001   0.00000  Uiso   1.00
O628   O     0.43988   0.12709   0.75000   0.00000  Uiso   1.00
O629   O     0.49999   0.20627   0.68513   0.00000  Uiso   1.00
O630   O     0.50001   0.12707   0.81487   0.00000  Uiso   1.00
O631   O     0.50001   0.20627   0.81487   0.00000  Uiso   1.00
O632   O     0.49999   0.12707   0.68513   0.00000  Uiso   1.00
I633   I     0.42569   0.09489   0.87184   0.00000  Uiso   1.00
I634   I     0.57360   0.23866   0.62749   0.00000  Uiso   1.00
I635   I     0.37639   0.05755   0.73351   0.00000  Uiso   1.00
I636   I     0.62186   0.27865   0.74477   0.00000  Uiso   1.00
I637   I     0.61890   0.06726   0.79888   0.00000  Uiso   1.00
I638   I     0.38445   0.26732   0.79772   0.00000  Uiso   1.00
C639   C     0.75401   0.16645   0.75193   0.00000  Uiso   1.00
C640   C     0.91267   0.16703   0.75255   0.00000  Uiso   1.00
C641   C     0.78101   0.10634   0.52555   0.00000  Uiso   1.00
C642   C     0.88485   0.22711   0.97425   0.00000  Uiso   1.00
C643   C     0.68654   0.12402   0.75442   0.00000  Uiso   1.00
C644   C     0.98007   0.21049   0.75785   0.00000  Uiso   1.00
C645   C     0.97827   0.12544   0.76352   0.00000  Uiso   1.00
C646   C     0.68886   0.20859   0.76524   0.00000  Uiso   1.00
C647   C     0.95732   0.16794   0.75767   0.00000  Uiso   1.00
C648   C     0.70946   0.16621   0.75671   0.00000  Uiso   1.00
C649   C     0.81789   0.02485   0.71477   0.00000  Uiso   1.00
C650   C     0.84861   0.30846   0.78530   0.00000  Uiso   1.00
C651   C     0.84827   0.02464   0.78545   0.00000  Uiso   1.00
C652   C     0.81770   0.30864   0.71487   0.00000  Uiso   1.00
C653   C     0.83459   0.16685   0.66441   0.00000  Uiso   1.00
C654   C     0.83185   0.16647   0.83554   0.00000  Uiso   1.00
C655   C     0.85689   0.19645   0.90616   0.00000  Uiso   1.00
C656   C     0.80919   0.13686   0.59373   0.00000  Uiso   1.00
C657   C     0.83045   0.16610   0.88377   0.00000  Uiso   1.00
C658   C     0.83570   0.16722   0.61610   0.00000  Uiso   1.00
C659   C     0.80352   0.13616   0.90730   0.00000  Uiso   1.00
C660   C     0.86244   0.19726   0.59242   0.00000  Uiso   1.00
C661   C     0.80473   0.13592   0.95415   0.00000  Uiso   1.00
C662   C     0.86112   0.19753   0.54560   0.00000  Uiso   1.00
C663   C     0.83215   0.16651   0.97652   0.00000  Uiso   1.00
C664   C     0.83370   0.16692   0.52328   0.00000  Uiso   1.00
C665   C     0.85798   0.19686   0.95222   0.00000  Uiso   1.00
C666   C     0.80793   0.13653   0.54761   0.00000  Uiso   1.00
C667   C     0.77936   0.10601   0.97938   0.00000  Uiso   1.00
C668   C     0.88644   0.22749   0.52037   0.00000  Uiso   1.00
Cu669  Cu    0.83333   0.21355   0.75000   0.00000  Uiso   1.00
Cu670  Cu    0.83333   0.11978   0.75000   0.00000  Uiso   1.00
H671   H     0.87721   0.21938   0.88745   0.00000  Uiso   1.00
H672   H     0.78898   0.11386   0.61249   0.00000  Uiso   1.00
H673   H     0.75817   0.08183   0.96407   0.00000  Uiso   1.00
H674   H     0.90760   0.25175   0.53562   0.00000  Uiso   1.00
H675   H     0.76111   0.08285   0.54407   0.00000  Uiso   1.00
H676   H     0.90476   0.25059   0.95573   0.00000  Uiso   1.00
H677   H     0.80522   0.04340   0.68659   0.00000  Uiso   1.00
H678   H     0.86125   0.28992   0.81350   0.00000  Uiso   1.00
H679   H     0.86015   0.04302   0.81401   0.00000  Uiso   1.00
H680   H     0.80489   0.29019   0.68679   0.00000  Uiso   1.00
N681   N     0.83333   0.28402   0.75000   0.00000  Uiso   1.00
N682   N     0.83333   0.04931   0.75000   0.00000  Uiso   1.00
O683   O     0.77321   0.20625   0.75000   0.00000  Uiso   1.00
O684   O     0.89345   0.12709   0.75001   0.00000  Uiso   1.00
O685   O     0.89345   0.20625   0.75001   0.00000  Uiso   1.00
O686   O     0.77321   0.12709   0.75000   0.00000  Uiso   1.00
O687   O     0.83332   0.20627   0.68513   0.00000  Uiso   1.00
O688   O     0.83334   0.12707   0.81487   0.00000  Uiso   1.00
O689   O     0.83334   0.20627   0.81487   0.00000  Uiso   1.00
O690   O     0.83332   0.12707   0.68513   0.00000  Uiso   1.00
I691   I     0.75903   0.09489   0.87184   0.00000  Uiso   1.00
I692   I     0.90693   0.23866   0.62749   0.00000  Uiso   1.00
I693   I     0.70972   0.05755   0.73351   0.00000  Uiso   1.00
I694   I     0.95519   0.27865   0.74477   0.00000  Uiso   1.00
I695   I     0.95223   0.06726   0.79888   0.00000  Uiso   1.00
I696   I     0.71779   0.26732   0.79772   0.00000  Uiso   1.00
C697   C     0.08734   0.49978   0.75193   0.00000  Uiso   1.00
C698   C     0.24600   0.50036   0.75255   0.00000  Uiso   1.00
C699   C     0.11434   0.43967   0.52555   0.00000  Uiso   1.00
C700   C     0.21818   0.56044   0.97425   0.00000  Uiso   1.00
C701   C     0.01988   0.45735   0.75442   0.00000  Uiso   1.00
C702   C     0.31340   0.54383   0.75785   0.00000  Uiso   1.00
C703   C     0.31161   0.45878   0.76352   0.00000  Uiso   1.00
C704   C     0.02219   0.54192   0.76524   0.00000  Uiso   1.00
C705   C     0.29066   0.50127   0.75767   0.00000  Uiso   1.00
C706   C     0.04279   0.49954   0.75671   0.00000  Uiso   1.00
C707   C     0.15122   0.35818   0.71477   0.00000  Uiso   1.00
C708   C     0.18195   0.64179   0.78530   0.00000  Uiso   1.00
C709   C     0.18160   0.35797   0.78545   0.00000  Uiso   1.00
C710   C     0.15103   0.64197   0.71487   0.00000  Uiso   1.00
C711   C     0.16792   0.50018   0.66441   0.00000  Uiso   1.00
C712   C     0.16519   0.49981   0.83554   0.00000  Uiso   1.00
C713   C     0.19022   0.52978   0.90616   0.00000  Uiso   1.00
C714   C     0.14253   0.47019   0.59373   0.00000  Uiso   1.00
C715   C     0.16379   0.49944   0.88377   0.00000  Uiso   1.00
C716   C     0.16903   0.50055   0.61610   0.00000  Uiso   1.00
C717   C     0.13685   0.46949   0.90730   0.00000  Uiso   1.00
C718   C     0.19577   0.53060   0.59242   0.00000  Uiso   1.00
C719   C     0.13806   0.46925   0.95415   0.00000  Uiso   1.00
C720   C     0.19445   0.53087   0.54560   0.00000  Uiso   1.00
C721   C     0.16548   0.49984   0.97652   0.00000  Uiso   1.00
C722   C     0.16704   0.50026   0.52328   0.00000  Uiso   1.00
C723   C     0.19131   0.53020   0.95222   0.00000  Uiso   1.00
C724   C     0.14127   0.46986   0.54761   0.00000  Uiso   1.00
C725   C     0.11269   0.43935   0.97938   0.00000  Uiso   1.00
C726   C     0.21978   0.56083   0.52037   0.00000  Uiso   1.00
Cu727  Cu    0.16667   0.54689   0.75000   0.00000  Uiso   1.00
Cu728  Cu    0.16667   0.45311   0.75000   0.00000  Uiso   1.00
H729   H     0.21054   0.55271   0.88745   0.00000  Uiso   1.00
H730   H     0.12231   0.44719   0.61249   0.00000  Uiso   1.00
H731   H     0.09151   0.41516   0.96407   0.00000  Uiso   1.00
H732   H     0.24093   0.58508   0.53562   0.00000  Uiso   1.00
H733   H     0.09444   0.41619   0.54407   0.00000  Uiso   1.00
H734   H     0.23809   0.58392   0.95573   0.00000  Uiso   1.00
H735   H     0.13856   0.37674   0.68659   0.00000  Uiso   1.00
H736   H     0.19458   0.62325   0.81350   0.00000  Uiso   1.00
H737   H     0.19348   0.37635   0.81401   0.00000  Uiso   1.00
H738   H     0.13822   0.62352   0.68679   0.00000  Uiso   1.00
N739   N     0.16667   0.61736   0.75000   0.00000  Uiso   1.00
N740   N     0.16667   0.38264   0.75000   0.00000  Uiso   1.00
O741   O     0.10655   0.53958   0.75000   0.00000  Uiso   1.00
O742   O     0.22679   0.46042   0.75001   0.00000  Uiso   1.00
O743   O     0.22679   0.53958   0.75001   0.00000  Uiso   1.00
O744   O     0.10655   0.46042   0.75000   0.00000  Uiso   1.00
O745   O     0.16666   0.53960   0.68513   0.00000  Uiso   1.00
O746   O     0.16668   0.46040   0.81487   0.00000  Uiso   1.00
O747   O     0.16668   0.53960   0.81487   0.00000  Uiso   1.00
O748   O     0.16666   0.46040   0.68513   0.00000  Uiso   1.00
I749   I     0.09236   0.42822   0.87184   0.00000  Uiso   1.00
I750   I     0.24026   0.57200   0.62749   0.00000  Uiso   1.00
I751   I     0.04306   0.39089   0.73351   0.00000  Uiso   1.00
I752   I     0.28853   0.61198   0.74477   0.00000  Uiso   1.00
I753   I     0.28556   0.40060   0.79888   0.00000  Uiso   1.00
I754   I     0.05112   0.60065   0.79772   0.00000  Uiso   1.00
C755   C     0.42068   0.49978   0.75193   0.00000  Uiso   1.00
C756   C     0.57933   0.50036   0.75255   0.00000  Uiso   1.00
C757   C     0.44767   0.43967   0.52555   0.00000  Uiso   1.00
C758   C     0.55151   0.56044   0.97425   0.00000  Uiso   1.00
C759   C     0.35321   0.45735   0.75442   0.00000  Uiso   1.00
C760   C     0.64674   0.54383   0.75785   0.00000  Uiso   1.00
C761   C     0.64494   0.45878   0.76352   0.00000  Uiso   1.00
C762   C     0.35552   0.54192   0.76524   0.00000  Uiso   1.00
C763   C     0.62399   0.50127   0.75767   0.00000  Uiso   1.00
C764   C     0.37613   0.49954   0.75671   0.00000  Uiso   1.00
C765   C     0.48456   0.35818   0.71477   0.00000  Uiso   1.00
C766   C     0.51528   0.64179   0.78530   0.00000  Uiso   1.00
C767   C     0.51494   0.35797   0.78545   0.00000  Uiso   1.00
C768   C     0.48436   0.64197   0.71487   0.00000  Uiso   1.00
C769   C     0.50125   0.50018   0.66441   0.00000  Uiso   1.00
C770   C     0.49852   0.49981   0.83554   0.00000  Uiso   1.00
C771   C     0.52356   0.52978   0.90616   0.00000  Uiso   1.00
C772   C     0.47586   0.47019   0.59373   0.00000  Uiso   1.00
C773   C     0.49712   0.49944   0.88377   0.00000  Uiso   1.00
C774   C     0.50236   0.50055   0.61610   0.00000  Uiso   1.00
C775   C     0.47018   0.46949   0.90730   0.00000  Uiso   1.00
C776   C     0.52910   0.53060   0.59242   0.00000  Uiso   1.00
C777   C     0.47140   0.46925   0.95415   0.00000  Uiso   1.00
C778   C     0.52778   0.53087   0.54560   0.00000  Uiso   1.00
C779   C     0.49882   0.49984   0.97652   0.00000  Uiso   1.00
C780   C     0.50037   0.50026   0.52328   0.00000  Uiso   1.00
C781   C     0.52465   0.53020   0.95222   0.00000  Uiso   1.00
C782   C     0.47460   0.46986   0.54761   0.00000  Uiso   1.00
C783   C     0.44602   0.43935   0.97938   0.00000  Uiso   1.00
C784   C     0.55311   0.56083   0.52037   0.00000  Uiso   1.00
Cu785  Cu    0.50000   0.54689   0.75000   0.00000  Uiso   1.00
Cu786  Cu    0.50000   0.45311   0.75000   0.00000  Uiso   1.00
H787   H     0.54388   0.55271   0.88745   0.00000  Uiso   1.00
H788   H     0.45565   0.44719   0.61249   0.00000  Uiso   1.00
H789   H     0.42484   0.41516   0.96407   0.00000  Uiso   1.00
H790   H     0.57427   0.58508   0.53562   0.00000  Uiso   1.00
H791   H     0.42777   0.41619   0.54407   0.00000  Uiso   1.00
H792   H     0.57142   0.58392   0.95573   0.00000  Uiso   1.00
H793   H     0.47189   0.37674   0.68659   0.00000  Uiso   1.00
H794   H     0.52792   0.62325   0.81350   0.00000  Uiso   1.00
H795   H     0.52682   0.37635   0.81401   0.00000  Uiso   1.00
H796   H     0.47155   0.62352   0.68679   0.00000  Uiso   1.00
N797   N     0.50000   0.61736   0.75000   0.00000  Uiso   1.00
N798   N     0.50000   0.38264   0.75000   0.00000  Uiso   1.00
O799   O     0.43988   0.53958   0.75000   0.00000  Uiso   1.00
O800   O     0.56012   0.46042   0.75001   0.00000  Uiso   1.00
O801   O     0.56012   0.53958   0.75001   0.00000  Uiso   1.00
O802   O     0.43988   0.46042   0.75000   0.00000  Uiso   1.00
O803   O     0.49999   0.53960   0.68513   0.00000  Uiso   1.00
O804   O     0.50001   0.46040   0.81487   0.00000  Uiso   1.00
O805   O     0.50001   0.53960   0.81487   0.00000  Uiso   1.00
O806   O     0.49999   0.46040   0.68513   0.00000  Uiso   1.00
I807   I     0.42569   0.42822   0.87184   0.00000  Uiso   1.00
I808   I     0.57360   0.57200   0.62749   0.00000  Uiso   1.00
I809   I     0.37639   0.39089   0.73351   0.00000  Uiso   1.00
I810   I     0.62186   0.61198   0.74477   0.00000  Uiso   1.00
I811   I     0.61890   0.40060   0.79888   0.00000  Uiso   1.00
I812   I     0.38445   0.60065   0.79772   0.00000  Uiso   1.00
C813   C     0.75401   0.49978   0.75193   0.00000  Uiso   1.00
C814   C     0.91267   0.50036   0.75255   0.00000  Uiso   1.00
C815   C     0.78101   0.43967   0.52555   0.00000  Uiso   1.00
C816   C     0.88485   0.56044   0.97425   0.00000  Uiso   1.00
C817   C     0.68654   0.45735   0.75442   0.00000  Uiso   1.00
C818   C     0.98007   0.54383   0.75785   0.00000  Uiso   1.00
C819   C     0.97827   0.45878   0.76352   0.00000  Uiso   1.00
C820   C     0.68886   0.54192   0.76524   0.00000  Uiso   1.00
C821   C     0.95732   0.50127   0.75767   0.00000  Uiso   1.00
C822   C     0.70946   0.49954   0.75671   0.00000  Uiso   1.00
C823   C     0.81789   0.35818   0.71477   0.00000  Uiso   1.00
C824   C     0.84861   0.64179   0.78530   0.00000  Uiso   1.00
C825   C     0.84827   0.35797   0.78545   0.00000  Uiso   1.00
C826   C     0.81770   0.64197   0.71487   0.00000  Uiso   1.00
C827   C     0.83459   0.50018   0.66441   0.00000  Uiso   1.00
C828   C     0.83185   0.49981   0.83554   0.00000  Uiso   1.00
C829   C     0.85689   0.52978   0.90616   0.00000  Uiso   1.00
C830   C     0.80919   0.47019   0.59373   0.00000  Uiso   1.00
C831   C     0.83045   0.49944   0.88377   0.00000  Uiso   1.00
C832   C     0.83570   0.50055   0.61610   0.00000  Uiso   1.00
C833   C     0.80352   0.46949   0.90730   0.00000  Uiso   1.00
C834   C     0.86244   0.53060   0.59242   0.00000  Uiso   1.00
C835   C     0.80473   0.46925   0.95415   0.00000  Uiso   1.00
C836   C     0.86112   0.53087   0.54560   0.00000  Uiso   1.00
C837   C     0.83215   0.49984   0.97652   0.00000  Uiso   1.00
C838   C     0.83370   0.50026   0.52328   0.00000  Uiso   1.00
C839   C     0.85798   0.53020   0.95222   0.00000  Uiso   1.00
C840   C     0.80793   0.46986   0.54761   0.00000  Uiso   1.00
C841   C     0.77936   0.43935   0.97938   0.00000  Uiso   1.00
C842   C     0.88644   0.56083   0.52037   0.00000  Uiso   1.00
Cu843  Cu    0.83333   0.54689   0.75000   0.00000  Uiso   1.00
Cu844  Cu    0.83333   0.45311   0.75000   0.00000  Uiso   1.00
H845   H     0.87721   0.55271   0.88745   0.00000  Uiso   1.00
H846   H     0.78898   0.44719   0.61249   0.00000  Uiso   1.00
H847   H     0.75817   0.41516   0.96407   0.00000  Uiso   1.00
H848   H     0.90760   0.58508   0.53562   0.00000  Uiso   1.00
H849   H     0.76111   0.41619   0.54407   0.00000  Uiso   1.00
H850   H     0.90476   0.58392   0.95573   0.00000  Uiso   1.00
H851   H     0.80522   0.37674   0.68659   0.00000  Uiso   1.00
H852   H     0.86125   0.62325   0.81350   0.00000  Uiso   1.00
H853   H     0.86015   0.37635   0.81401   0.00000  Uiso   1.00
H854   H     0.80489   0.62352   0.68679   0.00000  Uiso   1.00
N855   N     0.83333   0.61736   0.75000   0.00000  Uiso   1.00
N856   N     0.83333   0.38264   0.75000   0.00000  Uiso   1.00
O857   O     0.77321   0.53958   0.75000   0.00000  Uiso   1.00
O858   O     0.89345   0.46042   0.75001   0.00000  Uiso   1.00
O859   O     0.89345   0.53958   0.75001   0.00000  Uiso   1.00
O860   O     0.77321   0.46042   0.75000   0.00000  Uiso   1.00
O861   O     0.83332   0.53960   0.68513   0.00000  Uiso   1.00
O862   O     0.83334   0.46040   0.81487   0.00000  Uiso   1.00
O863   O     0.83334   0.53960   0.81487   0.00000  Uiso   1.00
O864   O     0.83332   0.46040   0.68513   0.00000  Uiso   1.00
I865   I     0.75903   0.42822   0.87184   0.00000  Uiso   1.00
I866   I     0.90693   0.57200   0.62749   0.00000  Uiso   1.00
I867   I     0.70972   0.39089   0.73351   0.00000  Uiso   1.00
I868   I     0.95519   0.61198   0.74477   0.00000  Uiso   1.00
I869   I     0.95223   0.40060   0.79888   0.00000  Uiso   1.00
I870   I     0.71779   0.60065   0.79772   0.00000  Uiso   1.00
C871   C     0.08734   0.83312   0.75193   0.00000  Uiso   1.00
C872   C     0.24600   0.83370   0.75255   0.00000  Uiso   1.00
C873   C     0.11434   0.77301   0.52555   0.00000  Uiso   1.00
C874   C     0.21818   0.89378   0.97425   0.00000  Uiso   1.00
C875   C     0.01988   0.79068   0.75442   0.00000  Uiso   1.00
C876   C     0.31340   0.87716   0.75785   0.00000  Uiso   1.00
C877   C     0.31161   0.79211   0.76352   0.00000  Uiso   1.00
C878   C     0.02219   0.87526   0.76524   0.00000  Uiso   1.00
C879   C     0.29066   0.83460   0.75767   0.00000  Uiso   1.00
C880   C     0.04279   0.83287   0.75671   0.00000  Uiso   1.00
C881   C     0.15122   0.69152   0.71477   0.00000  Uiso   1.00
C882   C     0.18195   0.97513   0.78530   0.00000  Uiso   1.00
C883   C     0.18160   0.69131   0.78545   0.00000  Uiso   1.00
C884   C     0.15103   0.97530   0.71487   0.00000  Uiso   1.00
C885   C     0.16792   0.83352   0.66441   0.00000  Uiso   1.00
C886   C     0.16519   0.83314   0.83554   0.00000  Uiso   1.00
C887   C     0.19022   0.86311   0.90616   0.00000  Uiso   1.00
C888   C     0.14253   0.80352   0.59373   0.00000  Uiso   1.00
C889   C     0.16379   0.83277   0.88377   0.00000  Uiso   1.00
C890   C     0.16903   0.83388   0.61610   0.00000  Uiso   1.00
C891   C     0.13685   0.80282   0.90730   0.00000  Uiso   1.00
C892   C     0.19577   0.86393   0.59242   0.00000  Uiso   1.00
C893   C     0.13806   0.80259   0.95415   0.00000  Uiso   1.00
C894   C     0.19445   0.86420   0.54560   0.00000  Uiso   1.00
C895   C     0.16548   0.83317   0.97652   0.00000  Uiso   1.00
C896   C     0.16704   0.83359   0.52328   0.00000  Uiso   1.00
C897   C     0.19131   0.86353   0.95222   0.00000  Uiso   1.00
C898   C     0.14127   0.80320   0.54761   0.00000  Uiso   1.00
C899   C     0.11269   0.77268   0.97938   0.00000  Uiso   1.00
C900   C     0.21978   0.89416   0.52037   0.00000  Uiso   1.00
Cu901  Cu    0.16667   0.88022   0.75000   0.00000  Uiso   1.00
Cu902  Cu    0.16667   0.78645   0.75000   0.00000  Uiso   1.00
H903   H     0.21054   0.88604   0.88745   0.00000  Uiso   1.00
H904   H     0.12231   0.78052   0.61249   0.00000  Uiso   1.00
H905   H     0.09151   0.74850   0.96407   0.00000  Uiso   1.00
H906   H     0.24093   0.91841   0.53562   0.00000  Uiso   1.00
H907   H     0.09444   0.74952   0.54407   0.00000  Uiso   1.00
H908   H     0.23809   0.91726   0.95573   0.00000  Uiso   1.00
H909   H     0.13856   0.71007   0.68659   0.00000  Uiso   1.00
H910   H     0.19458   0.95658   0.81350   0.00000  Uiso   1.00
H911   H     0.19348   0.70968   0.81401   0.00000  Uiso   1.00
H912   H     0.13822   0.95685   0.68679   0.00000  Uiso   1.00
N913   N     0.16667   0.95069   0.75000   0.00000  Uiso   1.00
N914   N     0.16667   0.71598   0.75000   0.00000  Uiso   1.00
O915   O     0.10655   0.87291   0.75000   0.00000  Uiso   1.00
O916   O     0.22679   0.79375   0.75001   0.00000  Uiso   1.00
O917   O     0.22679   0.87291   0.75001   0.00000  Uiso   1.00
O918   O     0.10655   0.79375   0.75000   0.00000  Uiso   1.00
O919   O     0.16666   0.87293   0.68513   0.00000  Uiso   1.00
O920   O     0.16668   0.79373   0.81487   0.00000  Uiso   1.00
O921   O     0.16668   0.87293   0.81487   0.00000  Uiso   1.00
O922   O     0.16666   0.79373   0.68513   0.00000  Uiso   1.00
I923   I     0.09236   0.76156   0.87184   0.00000  Uiso   1.00
I924   I     0.24026   0.90533   0.62749   0.00000  Uiso   1.00
I925   I     0.04306   0.72422   0.73351   0.00000  Uiso   1.00
I926   I     0.28853   0.94532   0.74477   0.00000  Uiso   1.00
I927   I     0.28556   0.73393   0.79888   0.00000  Uiso   1.00
I928   I     0.05112   0.93399   0.79772   0.00000  Uiso   1.00
C929   C     0.42068   0.83312   0.75193   0.00000  Uiso   1.00
C930   C     0.57933   0.83370   0.75255   0.00000  Uiso   1.00
C931   C     0.44767   0.77301   0.52555   0.00000  Uiso   1.00
C932   C     0.55151   0.89378   0.97425   0.00000  Uiso   1.00
C933   C     0.35321   0.79068   0.75442   0.00000  Uiso   1.00
C934   C     0.64674   0.87716   0.75785   0.00000  Uiso   1.00
C935   C     0.64494   0.79211   0.76352   0.00000  Uiso   1.00
C936   C     0.35552   0.87526   0.76524   0.00000  Uiso   1.00
C937   C     0.62399   0.83460   0.75767   0.00000  Uiso   1.00
C938   C     0.37613   0.83287   0.75671   0.00000  Uiso   1.00
C939   C     0.48456   0.69152   0.71477   0.00000  Uiso   1.00
C940   C     0.51528   0.97513   0.78530   0.00000  Uiso   1.00
C941   C     0.51494   0.69131   0.78545   0.00000  Uiso   1.00
C942   C     0.48436   0.97530   0.71487   0.00000  Uiso   1.00
C943   C     0.50125   0.83352   0.66441   0.00000  Uiso   1.00
C944   C     0.49852   0.83314   0.83554   0.00000  Uiso   1.00
C945   C     0.52356   0.86311   0.90616   0.00000  Uiso   1.00
C946   C     0.47586   0.80352   0.59373   0.00000  Uiso   1.00
C947   C     0.49712   0.83277   0.88377   0.00000  Uiso   1.00
C948   C     0.50236   0.83388   0.61610   0.00000  Uiso   1.00
C949   C     0.47018   0.80282   0.90730   0.00000  Uiso   1.00
C950   C     0.52910   0.86393   0.59242   0.00000  Uiso   1.00
C951   C     0.47140   0.80259   0.95415   0.00000  Uiso   1.00
C952   C     0.52778   0.86420   0.54560   0.00000  Uiso   1.00
C953   C     0.49882   0.83317   0.97652   0.00000  Uiso   1.00
C954   C     0.50037   0.83359   0.52328   0.00000  Uiso   1.00
C955   C     0.52465   0.86353   0.95222   0.00000  Uiso   1.00
C956   C     0.47460   0.80320   0.54761   0.00000  Uiso   1.00
C957   C     0.44602   0.77268   0.97938   0.00000  Uiso   1.00
C958   C     0.55311   0.89416   0.52037   0.00000  Uiso   1.00
Cu959  Cu    0.50000   0.88022   0.75000   0.00000  Uiso   1.00
Cu960  Cu    0.50000   0.78645   0.75000   0.00000  Uiso   1.00
H961   H     0.54388   0.88604   0.88745   0.00000  Uiso   1.00
H962   H     0.45565   0.78052   0.61249   0.00000  Uiso   1.00
H963   H     0.42484   0.74850   0.96407   0.00000  Uiso   1.00
H964   H     0.57427   0.91841   0.53562   0.00000  Uiso   1.00
H965   H     0.42777   0.74952   0.54407   0.00000  Uiso   1.00
H966   H     0.57142   0.91726   0.95573   0.00000  Uiso   1.00
H967   H     0.47189   0.71007   0.68659   0.00000  Uiso   1.00
H968   H     0.52792   0.95658   0.81350   0.00000  Uiso   1.00
H969   H     0.52682   0.70968   0.81401   0.00000  Uiso   1.00
H970   H     0.47155   0.95685   0.68679   0.00000  Uiso   1.00
N971   N     0.50000   0.95069   0.75000   0.00000  Uiso   1.00
N972   N     0.50000   0.71598   0.75000   0.00000  Uiso   1.00
O973   O     0.43988   0.87291   0.75000   0.00000  Uiso   1.00
O974   O     0.56012   0.79375   0.75001   0.00000  Uiso   1.00
O975   O     0.56012   0.87291   0.75001   0.00000  Uiso   1.00
O976   O     0.43988   0.79375   0.75000   0.00000  Uiso   1.00
O977   O     0.49999   0.87293   0.68513   0.00000  Uiso   1.00
O978   O     0.50001   0.79373   0.81487   0.00000  Uiso   1.00
O979   O     0.50001   0.87293   0.81487   0.00000  Uiso   1.00
O980   O     0.49999   0.79373   0.68513   0.00000  Uiso   1.00
I981   I     0.42569   0.76156   0.87184   0.00000  Uiso   1.00
I982   I     0.57360   0.90533   0.62749   0.00000  Uiso   1.00
I983   I     0.37639   0.72422   0.73351   0.00000  Uiso   1.00
I984   I     0.62186   0.94532   0.74477   0.00000  Uiso   1.00
I985   I     0.61890   0.73393   0.79888   0.00000  Uiso   1.00
I986   I     0.38445   0.93399   0.79772   0.00000  Uiso   1.00
C987   C     0.75401   0.83312   0.75193   0.00000  Uiso   1.00
C988   C     0.91267   0.83370   0.75255   0.00000  Uiso   1.00
C989   C     0.78101   0.77301   0.52555   0.00000  Uiso   1.00
C990   C     0.88485   0.89378   0.97425   0.00000  Uiso   1.00
C991   C     0.68654   0.79068   0.75442   0.00000  Uiso   1.00
C992   C     0.98007   0.87716   0.75785   0.00000  Uiso   1.00
C993   C     0.97827   0.79211   0.76352   0.00000  Uiso   1.00
C994   C     0.68886   0.87526   0.76524   0.00000  Uiso   1.00
C995   C     0.95732   0.83460   0.75767   0.00000  Uiso   1.00
C996   C     0.70946   0.83287   0.75671   0.00000  Uiso   1.00
C997   C     0.81789   0.69152   0.71477   0.00000  Uiso   1.00
C998   C     0.84861   0.97513   0.78530   0.00000  Uiso   1.00
C999   C     0.84827   0.69131   0.78545   0.00000  Uiso   1.00
C1000  C     0.81770   0.97530   0.71487   0.00000  Uiso   1.00
C1001  C     0.83459   0.83352   0.66441   0.00000  Uiso   1.00
C1002  C     0.83185   0.83314   0.83554   0.00000  Uiso   1.00
C1003  C     0.85689   0.86311   0.90616   0.00000  Uiso   1.00
C1004  C     0.80919   0.80352   0.59373   0.00000  Uiso   1.00
C1005  C     0.83045   0.83277   0.88377   0.00000  Uiso   1.00
C1006  C     0.83570   0.83388   0.61610   0.00000  Uiso   1.00
C1007  C     0.80352   0.80282   0.90730   0.00000  Uiso   1.00
C1008  C     0.86244   0.86393   0.59242   0.00000  Uiso   1.00
C1009  C     0.80473   0.80259   0.95415   0.00000  Uiso   1.00
C1010  C     0.86112   0.86420   0.54560   0.00000  Uiso   1.00
C1011  C     0.83215   0.83317   0.97652   0.00000  Uiso   1.00
C1012  C     0.83370   0.83359   0.52328   0.00000  Uiso   1.00
C1013  C     0.85798   0.86353   0.95222   0.00000  Uiso   1.00
C1014  C     0.80793   0.80320   0.54761   0.00000  Uiso   1.00
C1015  C     0.77936   0.77268   0.97938   0.00000  Uiso   1.00
C1016  C     0.88644   0.89416   0.52037   0.00000  Uiso   1.00
Cu1017 Cu    0.83333   0.88022   0.75000   0.00000  Uiso   1.00
Cu1018 Cu    0.83333   0.78645   0.75000   0.00000  Uiso   1.00
H1019  H     0.87721   0.88604   0.88745   0.00000  Uiso   1.00
H1020  H     0.78898   0.78052   0.61249   0.00000  Uiso   1.00
H1021  H     0.75817   0.74850   0.96407   0.00000  Uiso   1.00
H1022  H     0.90760   0.91841   0.53562   0.00000  Uiso   1.00
H1023  H     0.76111   0.74952   0.54407   0.00000  Uiso   1.00
H1024  H     0.90476   0.91726   0.95573   0.00000  Uiso   1.00
H1025  H     0.80522   0.71007   0.68659   0.00000  Uiso   1.00
H1026  H     0.86125   0.95658   0.81350   0.00000  Uiso   1.00
H1027  H     0.86015   0.70968   0.81401   0.00000  Uiso   1.00
H1028  H     0.80489   0.95685   0.68679   0.00000  Uiso   1.00
N1029  N     0.83333   0.95069   0.75000   0.00000  Uiso   1.00
N1030  N     0.83333   0.71598   0.75000   0.00000  Uiso   1.00
O1031  O     0.77321   0.87291   0.75000   0.00000  Uiso   1.00
O1032  O     0.89345   0.79375   0.75001   0.00000  Uiso   1.00
O1033  O     0.89345   0.87291   0.75001   0.00000  Uiso   1.00
O1034  O     0.77321   0.79375   0.75000   0.00000  Uiso   1.00
O1035  O     0.83332   0.87293   0.68513   0.00000  Uiso   1.00
O1036  O     0.83334   0.79373   0.81487   0.00000  Uiso   1.00
O1037  O     0.83334   0.87293   0.81487   0.00000  Uiso   1.00
O1038  O     0.83332   0.79373   0.68513   0.00000  Uiso   1.00
I1039  I     0.75903   0.76156   0.87184   0.00000  Uiso   1.00
I1040  I     0.90693   0.90533   0.62749   0.00000  Uiso   1.00
I1041  I     0.70972   0.72422   0.73351   0.00000  Uiso   1.00
I1042  I     0.95519   0.94532   0.74477   0.00000  Uiso   1.00
I1043  I     0.95223   0.73393   0.79888   0.00000  Uiso   1.00
I1044  I     0.71779   0.93399   0.79772   0.00000  Uiso   1.00
loop_
_geom_bond_atom_site_label_1
_geom_bond_atom_site_label_2
_geom_bond_distance
_geom_bond_site_symmetry_2
_ccdc_geom_bond_type
C1     O48     1.293   .     A
C1     O45     1.296   .     A
C1     C10     1.465   .     S
C2     O47     1.290   .     A
C2     O46     1.301   .     A
C2     C9      1.468   .     S
C3     C28     1.398   .     A
C3     H37     1.084   .     S
C3     C551    1.391   1_554 S
C4     C27     1.397   .     A
C4     H38     1.084   .     S
C4     C552    1.390   .     S
C5     I55     2.148   .     S
C5     C10     1.416   .     A
C5     C123    1.390   1_455 S
C6     C9      1.420   .     A
C6     I56     2.149   .     S
C6     C66     1.396   .     S
C7     C9      1.408   .     A
C7     I57     2.140   .     S
C7     C63     1.390   .     S
C8     I58     2.158   .     S
C8     C10     1.415   .     A
C8     C122    1.396   1_455 S
C11    N44     1.367   .     A
C11    H39     1.081   .     S
C11    C362    1.415   1_545 S
C12    H40     1.081   .     S
C12    N43     1.367   .     A
C12    C187    1.414   .     S
C13    H41     1.080   .     S
C13    N44     1.367   .     A
C13    C360    1.414   1_545 S
C14    H42     1.081   .     S
C14    N43     1.367   .     A
C14    C185    1.415   .     S
C15    O52     1.293   .     A
C15    O49     1.291   .     A
C15    C20     1.455   .     S
C16    O51     1.293   .     A
C16    C19     1.453   .     S
C16    O50     1.291   .     A
C17    H33     1.086   .     S
C17    C27     1.388   .     A
C17    C19     1.395   .     A
C18    H34     1.086   .     S
C18    C20     1.396   .     A
C18    C28     1.389   .     A
C19    C21     1.412   .     A
C20    C22     1.412   .     A
C21    I53     2.152   .     S
C21    C23     1.411   .     A
C22    I54     2.148   .     S
C22    C24     1.410   .     A
C23    C29     1.407   .     A
C23    C25     1.419   .     A
C24    C30     1.407   .     A
C24    C26     1.419   .     A
C25    C27     1.409   .     A
C25    C548    1.409   .     S
C26    C28     1.409   .     A
C26    C547    1.409   1_554 S
C29    H35     1.079   .     S
C29    C525    1.391   .     S
C30    H36     1.079   .     S
C30    C526    1.390   1_554 S
Cu31   Cu32    2.678   .     S
Cu31   O47     1.979   .     S
Cu31   N43     2.012   .     S
Cu31   O49     1.966   .     S
Cu31   O45     1.976   .     S
Cu31   O51     1.963   .     S
Cu32   O48     1.979   .     S
Cu32   O50     1.966   .     S
Cu32   N44     2.012   .     S
Cu32   O52     1.963   .     S
Cu32   O46     1.976   .     S
C59    O106    1.293   .     A
C59    O103    1.296   .     A
C59    C68     1.465   .     S
C60    O105    1.290   .     A
C60    O104    1.301   .     A
C60    C67     1.468   .     S
C61    C86     1.398   .     A
C61    H95     1.084   .     S
C61    C609    1.391   1_554 S
C62    C85     1.397   .     A
C62    H96     1.084   .     S
C62    C610    1.390   .     S
C63    I113    2.148   .     S
C63    C68     1.416   .     A
C64    C67     1.420   .     A
C64    I114    2.149   .     S
C64    C124    1.396   .     S
C65    C67     1.408   .     A
C65    I115    2.140   .     S
C65    C121    1.390   .     S
C66    I116    2.158   .     S
C66    C68     1.415   .     A
C69    N102    1.367   .     A
C69    H97     1.081   .     S
C69    C420    1.415   1_545 S
C70    H98     1.081   .     S
C70    N101    1.367   .     A
C70    C245    1.414   .     S
C71    H99     1.080   .     S
C71    N102    1.367   .     A
C71    C418    1.414   1_545 S
C72    H100    1.081   .     S
C72    N101    1.367   .     A
C72    C243    1.415   .     S
C73    O110    1.293   .     A
C73    O107    1.291   .     A
C73    C78     1.455   .     S
C74    O109    1.293   .     A
C74    C77     1.453   .     S
C74    O108    1.291   .     A
C75    H91     1.086   .     S
C75    C85     1.388   .     A
C75    C77     1.395   .     A
C76    H92     1.086   .     S
C76    C78     1.396   .     A
C76    C86     1.389   .     A
C77    C79     1.412   .     A
C78    C80     1.412   .     A
C79    I111    2.152   .     S
C79    C81     1.411   .     A
C80    I112    2.148   .     S
C80    C82     1.410   .     A
C81    C87     1.407   .     A
C81    C83     1.419   .     A
C82    C88     1.407   .     A
C82    C84     1.419   .     A
C83    C85     1.409   .     A
C83    C606    1.409   .     S
C84    C86     1.409   .     A
C84    C605    1.409   1_554 S
C87    H93     1.079   .     S
C87    C583    1.391   .     S
C88    H94     1.079   .     S
C88    C584    1.390   1_554 S
Cu89   Cu90    2.678   .     S
Cu89   O105    1.979   .     S
Cu89   N101    2.012   .     S
Cu89   O107    1.966   .     S
Cu89   O103    1.976   .     S
Cu89   O109    1.963   .     S
Cu90   O106    1.979   .     S
Cu90   O108    1.966   .     S
Cu90   N102    2.012   .     S
Cu90   O110    1.963   .     S
Cu90   O104    1.976   .     S
C117   O164    1.293   .     A
C117   O161    1.296   .     A
C117   C126    1.465   .     S
C118   O163    1.290   .     A
C118   O162    1.301   .     A
C118   C125    1.468   .     S
C119   C144    1.398   .     A
C119   H153    1.084   .     S
C119   C667    1.391   1_554 S
C120   C143    1.397   .     A
C120   H154    1.084   .     S
C120   C668    1.390   .     S
C121   I171    2.148   .     S
C121   C126    1.416   .     A
C122   C125    1.420   .     A
C122   I172    2.149   .     S
C122   C8      1.396   1_655 S
C123   C125    1.408   .     A
C123   I173    2.140   .     S
C123   C5      1.390   1_655 S
C124   I174    2.158   .     S
C124   C126    1.415   .     A
C127   N160    1.367   .     A
C127   H155    1.081   .     S
C127   C478    1.415   1_545 S
C128   H156    1.081   .     S
C128   N159    1.367   .     A
C128   C303    1.414   .     S
C129   H157    1.080   .     S
C129   N160    1.367   .     A
C129   C476    1.414   1_545 S
C130   H158    1.081   .     S
C130   N159    1.367   .     A
C130   C301    1.415   .     S
C131   O168    1.293   .     A
C131   O165    1.291   .     A
C131   C136    1.455   .     S
C132   O167    1.293   .     A
C132   C135    1.453   .     S
C132   O166    1.291   .     A
C133   H149    1.086   .     S
C133   C143    1.388   .     A
C133   C135    1.395   .     A
C134   H150    1.086   .     S
C134   C136    1.396   .     A
C134   C144    1.389   .     A
C135   C137    1.412   .     A
C136   C138    1.412   .     A
C137   I169    2.152   .     S
C137   C139    1.411   .     A
C138   I170    2.148   .     S
C138   C140    1.410   .     A
C139   C145    1.407   .     A
C139   C141    1.419   .     A
C140   C146    1.407   .     A
C140   C142    1.419   .     A
C141   C143    1.409   .     A
C141   C664    1.409   .     S
C142   C144    1.409   .     A
C142   C663    1.409   1_554 S
C145   H151    1.079   .     S
C145   C641    1.391   .     S
C146   H152    1.079   .     S
C146   C642    1.390   1_554 S
Cu147  Cu148   2.678   .     S
Cu147  O163    1.979   .     S
Cu147  N159    2.012   .     S
Cu147  O165    1.966   .     S
Cu147  O161    1.976   .     S
Cu147  O167    1.963   .     S
Cu148  O164    1.979   .     S
Cu148  O166    1.966   .     S
Cu148  N160    2.012   .     S
Cu148  O168    1.963   .     S
Cu148  O162    1.976   .     S
C175   O222    1.293   .     A
C175   O219    1.296   .     A
C175   C184    1.465   .     S
C176   O221    1.290   .     A
C176   O220    1.301   .     A
C176   C183    1.468   .     S
C177   C202    1.398   .     A
C177   H211    1.084   .     S
C177   C725    1.391   1_554 S
C178   C201    1.397   .     A
C178   H212    1.084   .     S
C178   C726    1.390   .     S
C179   I229    2.148   .     S
C179   C184    1.416   .     A
C179   C297    1.390   1_455 S
C180   C183    1.420   .     A
C180   I230    2.149   .     S
C180   C240    1.396   .     S
C181   C183    1.408   .     A
C181   I231    2.140   .     S
C181   C237    1.390   .     S
C182   I232    2.158   .     S
C182   C184    1.415   .     A
C182   C296    1.396   1_455 S
C185   N218    1.367   .     A
C185   H213    1.081   .     S
C186   H214    1.081   .     S
C186   N217    1.367   .     A
C186   C361    1.414   .     S
C187   H215    1.080   .     S
C187   N218    1.367   .     A
C188   H216    1.081   .     S
C188   N217    1.367   .     A
C188   C359    1.415   .     S
C189   O226    1.293   .     A
C189   O223    1.291   .     A
C189   C194    1.455   .     S
C190   O225    1.293   .     A
C190   C193    1.453   .     S
C190   O224    1.291   .     A
C191   H207    1.086   .     S
C191   C201    1.388   .     A
C191   C193    1.395   .     A
C192   H208    1.086   .     S
C192   C194    1.396   .     A
C192   C202    1.389   .     A
C193   C195    1.412   .     A
C194   C196    1.412   .     A
C195   I227    2.152   .     S
C195   C197    1.411   .     A
C196   I228    2.148   .     S
C196   C198    1.410   .     A
C197   C203    1.407   .     A
C197   C199    1.419   .     A
C198   C204    1.407   .     A
C198   C200    1.419   .     A
C199   C201    1.409   .     A
C199   C722    1.409   .     S
C200   C202    1.409   .     A
C200   C721    1.409   1_554 S
C203   H209    1.079   .     S
C203   C699    1.391   .     S
C204   H210    1.079   .     S
C204   C700    1.390   1_554 S
Cu205  Cu206   2.678   .     S
Cu205  O221    1.979   .     S
Cu205  N217    2.012   .     S
Cu205  O223    1.966   .     S
Cu205  O219    1.976   .     S
Cu205  O225    1.963   .     S
Cu206  O222    1.979   .     S
Cu206  O224    1.966   .     S
Cu206  N218    2.012   .     S
Cu206  O226    1.963   .     S
Cu206  O220    1.976   .     S
C233   O280    1.293   .     A
C233   O277    1.296   .     A
C233   C242    1.465   .     S
C234   O279    1.290   .     A
C234   O278    1.301   .     A
C234   C241    1.468   .     S
C235   C260    1.398   .     A
C235   H269    1.084   .     S
C235   C783    1.391   1_554 S
C236   C259    1.397   .     A
C236   H270    1.084   .     S
C236   C784    1.390   .     S
C237   I287    2.148   .     S
C237   C242    1.416   .     A
C238   C241    1.420   .     A
C238   I288    2.149   .     S
C238   C298    1.396   .     S
C239   C241    1.408   .     A
C239   I289    2.140   .     S
C239   C295    1.390   .     S
C240   I290    2.158   .     S
C240   C242    1.415   .     A
C243   N276    1.367   .     A
C243   H271    1.081   .     S
C244   H272    1.081   .     S
C244   N275    1.367   .     A
C244   C419    1.414   .     S
C245   H273    1.080   .     S
C245   N276    1.367   .     A
C246   H274    1.081   .     S
C246   N275    1.367   .     A
C246   C417    1.415   .     S
C247   O284    1.293   .     A
C247   O281    1.291   .     A
C247   C252    1.455   .     S
C248   O283    1.293   .     A
C248   C251    1.453   .     S
C248   O282    1.291   .     A
C249   H265    1.086   .     S
C249   C259    1.388   .     A
C249   C251    1.395   .     A
C250   H266    1.086   .     S
C250   C252    1.396   .     A
C250   C260    1.389   .     A
C251   C253    1.412   .     A
C252   C254    1.412   .     A
C253   I285    2.152   .     S
C253   C255    1.411   .     A
C254   I286    2.148   .     S
C254   C256    1.410   .     A
C255   C261    1.407   .     A
C255   C257    1.419   .     A
C256   C262    1.407   .     A
C256   C258    1.419   .     A
C257   C259    1.409   .     A
C257   C780    1.409   .     S
C258   C260    1.409   .     A
C258   C779    1.409   1_554 S
C261   H267    1.079   .     S
C261   C757    1.391   .     S
C262   H268    1.079   .     S
C262   C758    1.390   1_554 S
Cu263  Cu264   2.678   .     S
Cu263  O279    1.979   .     S
Cu263  N275    2.012   .     S
Cu263  O281    1.966   .     S
Cu263  O277    1.976   .     S
Cu263  O283    1.963   .     S
Cu264  O280    1.979   .     S
Cu264  O282    1.966   .     S
Cu264  N276    2.012   .     S
Cu264  O284    1.963   .     S
Cu264  O278    1.976   .     S
C291   O338    1.293   .     A
C291   O335    1.296   .     A
C291   C300    1.465   .     S
C292   O337    1.290   .     A
C292   O336    1.301   .     A
C292   C299    1.468   .     S
C293   C318    1.398   .     A
C293   H327    1.084   .     S
C293   C841    1.391   1_554 S
C294   C317    1.397   .     A
C294   H328    1.084   .     S
C294   C842    1.390   .     S
C295   I345    2.148   .     S
C295   C300    1.416   .     A
C296   C299    1.420   .     A
C296   I346    2.149   .     S
C296   C182    1.396   1_655 S
C297   C299    1.408   .     A
C297   I347    2.140   .     S
C297   C179    1.390   1_655 S
C298   I348    2.158   .     S
C298   C300    1.415   .     A
C301   N334    1.367   .     A
C301   H329    1.081   .     S
C302   H330    1.081   .     S
C302   N333    1.367   .     A
C302   C477    1.414   .     S
C303   H331    1.080   .     S
C303   N334    1.367   .     A
C304   H332    1.081   .     S
C304   N333    1.367   .     A
C304   C475    1.415   .     S
C305   O342    1.293   .     A
C305   O339    1.291   .     A
C305   C310    1.455   .     S
C306   O341    1.293   .     A
C306   C309    1.453   .     S
C306   O340    1.291   .     A
C307   H323    1.086   .     S
C307   C317    1.388   .     A
C307   C309    1.395   .     A
C308   H324    1.086   .     S
C308   C310    1.396   .     A
C308   C318    1.389   .     A
C309   C311    1.412   .     A
C310   C312    1.412   .     A
C311   I343    2.152   .     S
C311   C313    1.411   .     A
C312   I344    2.148   .     S
C312   C314    1.410   .     A
C313   C319    1.407   .     A
C313   C315    1.419   .     A
C314   C320    1.407   .     A
C314   C316    1.419   .     A
C315   C317    1.409   .     A
C315   C838    1.409   .     S
C316   C318    1.409   .     A
C316   C837    1.409   1_554 S
C319   H325    1.079   .     S
C319   C815    1.391   .     S
C320   H326    1.079   .     S
C320   C816    1.390   1_554 S
Cu321  Cu322   2.678   .     S
Cu321  O337    1.979   .     S
Cu321  N333    2.012   .     S
Cu321  O339    1.966   .     S
Cu321  O335    1.976   .     S
Cu321  O341    1.963   .     S
Cu322  O338    1.979   .     S
Cu322  O340    1.966   .     S
Cu322  N334    2.012   .     S
Cu322  O342    1.963   .     S
Cu322  O336    1.976   .     S
C349   O396    1.293   .     A
C349   O393    1.296   .     A
C349   C358    1.465   .     S
C350   O395    1.290   .     A
C350   O394    1.301   .     A
C350   C357    1.468   .     S
C351   C376    1.398   .     A
C351   H385    1.084   .     S
C351   C899    1.391   1_554 S
C352   C375    1.397   .     A
C352   H386    1.084   .     S
C352   C900    1.390   .     S
C353   I403    2.148   .     S
C353   C358    1.416   .     A
C353   C471    1.390   1_455 S
C354   C357    1.420   .     A
C354   I404    2.149   .     S
C354   C414    1.396   .     S
C355   C357    1.408   .     A
C355   I405    2.140   .     S
C355   C411    1.390   .     S
C356   I406    2.158   .     S
C356   C358    1.415   .     A
C356   C470    1.396   1_455 S
C359   N392    1.367   .     A
C359   H387    1.081   .     S
C360   H388    1.081   .     S
C360   N391    1.367   .     A
C360   C13     1.414   1_565 S
C361   H389    1.080   .     S
C361   N392    1.367   .     A
C362   H390    1.081   .     S
C362   N391    1.367   .     A
C362   C11     1.415   1_565 S
C363   O400    1.293   .     A
C363   O397    1.291   .     A
C363   C368    1.455   .     S
C364   O399    1.293   .     A
C364   C367    1.453   .     S
C364   O398    1.291   .     A
C365   H381    1.086   .     S
C365   C375    1.388   .     A
C365   C367    1.395   .     A
C366   H382    1.086   .     S
C366   C368    1.396   .     A
C366   C376    1.389   .     A
C367   C369    1.412   .     A
C368   C370    1.412   .     A
C369   I401    2.152   .     S
C369   C371    1.411   .     A
C370   I402    2.148   .     S
C370   C372    1.410   .     A
C371   C377    1.407   .     A
C371   C373    1.419   .     A
C372   C378    1.407   .     A
C372   C374    1.419   .     A
C373   C375    1.409   .     A
C373   C896    1.409   .     S
C374   C376    1.409   .     A
C374   C895    1.409   1_554 S
C377   H383    1.079   .     S
C377   C873    1.391   .     S
C378   H384    1.079   .     S
C378   C874    1.390   1_554 S
Cu379  Cu380   2.678   .     S
Cu379  O395    1.979   .     S
Cu379  N391    2.012   .     S
Cu379  O397    1.966   .     S
Cu379  O393    1.976   .     S
Cu379  O399    1.963   .     S
Cu380  O396    1.979   .     S
Cu380  O398    1.966   .     S
Cu380  N392    2.012   .     S
Cu380  O400    1.963   .     S
Cu380  O394    1.976   .     S
C407   O454    1.293   .     A
C407   O451    1.296   .     A
C407   C416    1.465   .     S
C408   O453    1.290   .     A
C408   O452    1.301   .     A
C408   C415    1.468   .     S
C409   C434    1.398   .     A
C409   H443    1.084   .     S
C409   C957    1.391   1_554 S
C410   C433    1.397   .     A
C410   H444    1.084   .     S
C410   C958    1.390   .     S
C411   I461    2.148   .     S
C411   C416    1.416   .     A
C412   C415    1.420   .     A
C412   I462    2.149   .     S
C412   C472    1.396   .     S
C413   C415    1.408   .     A
C413   I463    2.140   .     S
C413   C469    1.390   .     S
C414   I464    2.158   .     S
C414   C416    1.415   .     A
C417   N450    1.367   .     A
C417   H445    1.081   .     S
C418   H446    1.081   .     S
C418   N449    1.367   .     A
C418   C71     1.414   1_565 S
C419   H447    1.080   .     S
C419   N450    1.367   .     A
C420   H448    1.081   .     S
C420   N449    1.367   .     A
C420   C69     1.415   1_565 S
C421   O458    1.293   .     A
C421   O455    1.291   .     A
C421   C426    1.455   .     S
C422   O457    1.293   .     A
C422   C425    1.453   .     S
C422   O456    1.291   .     A
C423   H439    1.086   .     S
C423   C433    1.388   .     A
C423   C425    1.395   .     A
C424   H440    1.086   .     S
C424   C426    1.396   .     A
C424   C434    1.389   .     A
C425   C427    1.412   .     A
C426   C428    1.412   .     A
C427   I459    2.152   .     S
C427   C429    1.411   .     A
C428   I460    2.148   .     S
C428   C430    1.410   .     A
C429   C435    1.407   .     A
C429   C431    1.419   .     A
C430   C436    1.407   .     A
C430   C432    1.419   .     A
C431   C433    1.409   .     A
C431   C954    1.409   .     S
C432   C434    1.409   .     A
C432   C953    1.409   1_554 S
C435   H441    1.079   .     S
C435   C931    1.391   .     S
C436   H442    1.079   .     S
C436   C932    1.390   1_554 S
Cu437  Cu438   2.678   .     S
Cu437  O453    1.979   .     S
Cu437  N449    2.012   .     S
Cu437  O455    1.966   .     S
Cu437  O451    1.976   .     S
Cu437  O457    1.963   .     S
Cu438  O454    1.979   .     S
Cu438  O456    1.966   .     S
Cu438  N450    2.012   .     S
Cu438  O458    1.963   .     S
Cu438  O452    1.976   .     S
C465   O512    1.293   .     A
C465   O509    1.296   .     A
C465   C474    1.465   .     S
C466   O511    1.290   .     A
C466   O510    1.301   .     A
C466   C473    1.468   .     S
C467   C492    1.398   .     A
C467   H501    1.084   .     S
C467   C1015   1.391   1_554 S
C468   C491    1.397   .     A
C468   H502    1.084   .     S
C468   C1016   1.390   .     S
C469   I519    2.148   .     S
C469   C474    1.416   .     A
C470   C473    1.420   .     A
C470   I520    2.149   .     S
C470   C356    1.396   1_655 S
C471   C473    1.408   .     A
C471   I521    2.140   .     S
C471   C353    1.390   1_655 S
C472   I522    2.158   .     S
C472   C474    1.415   .     A
C475   N508    1.367   .     A
C475   H503    1.081   .     S
C476   H504    1.081   .     S
C476   N507    1.367   .     A
C476   C129    1.414   1_565 S
C477   H505    1.080   .     S
C477   N508    1.367   .     A
C478   H506    1.081   .     S
C478   N507    1.367   .     A
C478   C127    1.415   1_565 S
C479   O516    1.293   .     A
C479   O513    1.291   .     A
C479   C484    1.455   .     S
C480   O515    1.293   .     A
C480   C483    1.453   .     S
C480   O514    1.291   .     A
C481   H497    1.086   .     S
C481   C491    1.388   .     A
C481   C483    1.395   .     A
C482   H498    1.086   .     S
C482   C484    1.396   .     A
C482   C492    1.389   .     A
C483   C485    1.412   .     A
C484   C486    1.412   .     A
C485   I517    2.152   .     S
C485   C487    1.411   .     A
C486   I518    2.148   .     S
C486   C488    1.410   .     A
C487   C493    1.407   .     A
C487   C489    1.419   .     A
C488   C494    1.407   .     A
C488   C490    1.419   .     A
C489   C491    1.409   .     A
C489   C1012   1.409   .     S
C490   C492    1.409   .     A
C490   C1011   1.409   1_554 S
C493   H499    1.079   .     S
C493   C989    1.391   .     S
C494   H500    1.079   .     S
C494   C990    1.390   1_554 S
Cu495  Cu496   2.678   .     S
Cu495  O511    1.979   .     S
Cu495  N507    2.012   .     S
Cu495  O513    1.966   .     S
Cu495  O509    1.976   .     S
Cu495  O515    1.963   .     S
Cu496  O512    1.979   .     S
Cu496  O514    1.966   .     S
Cu496  N508    2.012   .     S
Cu496  O516    1.963   .     S
Cu496  O510    1.976   .     S
C523   O570    1.293   .     A
C523   O567    1.296   .     A
C523   C532    1.465   .     S
C524   O569    1.290   .     A
C524   O568    1.301   .     A
C524   C531    1.468   .     S
C525   C550    1.398   .     A
C525   H559    1.084   .     S
C526   C549    1.397   .     A
C526   H560    1.084   .     S
C526   C30     1.390   1_556 S
C527   I577    2.148   .     S
C527   C532    1.416   .     A
C527   C645    1.390   1_455 S
C528   C531    1.420   .     A
C528   I578    2.149   .     S
C528   C588    1.396   .     S
C529   C531    1.408   .     A
C529   I579    2.140   .     S
C529   C585    1.390   .     S
C530   I580    2.158   .     S
C530   C532    1.415   .     A
C530   C644    1.396   1_455 S
C533   N566    1.367   .     A
C533   H561    1.081   .     S
C533   C884    1.415   1_545 S
C534   H562    1.081   .     S
C534   N565    1.367   .     A
C534   C709    1.414   .     S
C535   H563    1.080   .     S
C535   N566    1.367   .     A
C535   C882    1.414   1_545 S
C536   H564    1.081   .     S
C536   N565    1.367   .     A
C536   C707    1.415   .     S
C537   O574    1.293   .     A
C537   O571    1.291   .     A
C537   C542    1.455   .     S
C538   O573    1.293   .     A
C538   C541    1.453   .     S
C538   O572    1.291   .     A
C539   H555    1.086   .     S
C539   C549    1.388   .     A
C539   C541    1.395   .     A
C540   H556    1.086   .     S
C540   C542    1.396   .     A
C540   C550    1.389   .     A
C541   C543    1.412   .     A
C542   C544    1.412   .     A
C543   I575    2.152   .     S
C543   C545    1.411   .     A
C544   I576    2.148   .     S
C544   C546    1.410   .     A
C545   C551    1.407   .     A
C545   C547    1.419   .     A
C546   C552    1.407   .     A
C546   C548    1.419   .     A
C547   C549    1.409   .     A
C547   C26     1.409   1_556 S
C548   C550    1.409   .     A
C551   H557    1.079   .     S
C551   C3      1.391   1_556 S
C552   H558    1.079   .     S
Cu553  Cu554   2.678   .     S
Cu553  O569    1.979   .     S
Cu553  N565    2.012   .     S
Cu553  O571    1.966   .     S
Cu553  O567    1.976   .     S
Cu553  O573    1.963   .     S
Cu554  O570    1.979   .     S
Cu554  O572    1.966   .     S
Cu554  N566    2.012   .     S
Cu554  O574    1.963   .     S
Cu554  O568    1.976   .     S
C581   O628    1.293   .     A
C581   O625    1.296   .     A
C581   C590    1.465   .     S
C582   O627    1.290   .     A
C582   O626    1.301   .     A
C582   C589    1.468   .     S
C583   C608    1.398   .     A
C583   H617    1.084   .     S
C584   C607    1.397   .     A
C584   H618    1.084   .     S
C584   C88     1.390   1_556 S
C585   I635    2.148   .     S
C585   C590    1.416   .     A
C586   C589    1.420   .     A
C586   I636    2.149   .     S
C586   C646    1.396   .     S
C587   C589    1.408   .     A
C587   I637    2.140   .     S
C587   C643    1.390   .     S
C588   I638    2.158   .     S
C588   C590    1.415   .     A
C591   N624    1.367   .     A
C591   H619    1.081   .     S
C591   C942    1.415   1_545 S
C592   H620    1.081   .     S
C592   N623    1.367   .     A
C592   C767    1.414   .     S
C593   H621    1.080   .     S
C593   N624    1.367   .     A
C593   C940    1.414   1_545 S
C594   H622    1.081   .     S
C594   N623    1.367   .     A
C594   C765    1.415   .     S
C595   O632    1.293   .     A
C595   O629    1.291   .     A
C595   C600    1.455   .     S
C596   O631    1.293   .     A
C596   C599    1.453   .     S
C596   O630    1.291   .     A
C597   H613    1.086   .     S
C597   C607    1.388   .     A
C597   C599    1.395   .     A
C598   H614    1.086   .     S
C598   C600    1.396   .     A
C598   C608    1.389   .     A
C599   C601    1.412   .     A
C600   C602    1.412   .     A
C601   I633    2.152   .     S
C601   C603    1.411   .     A
C602   I634    2.148   .     S
C602   C604    1.410   .     A
C603   C609    1.407   .     A
C603   C605    1.419   .     A
C604   C610    1.407   .     A
C604   C606    1.419   .     A
C605   C607    1.409   .     A
C605   C84     1.409   1_556 S
C606   C608    1.409   .     A
C609   H615    1.079   .     S
C609   C61     1.391   1_556 S
C610   H616    1.079   .     S
Cu611  Cu612   2.678   .     S
Cu611  O627    1.979   .     S
Cu611  N623    2.012   .     S
Cu611  O629    1.966   .     S
Cu611  O625    1.976   .     S
Cu611  O631    1.963   .     S
Cu612  O628    1.979   .     S
Cu612  O630    1.966   .     S
Cu612  N624    2.012   .     S
Cu612  O632    1.963   .     S
Cu612  O626    1.976   .     S
C639   O686    1.293   .     A
C639   O683    1.296   .     A
C639   C648    1.465   .     S
C640   O685    1.290   .     A
C640   O684    1.301   .     A
C640   C647    1.468   .     S
C641   C666    1.398   .     A
C641   H675    1.084   .     S
C642   C665    1.397   .     A
C642   H676    1.084   .     S
C642   C146    1.390   1_556 S
C643   I693    2.148   .     S
C643   C648    1.416   .     A
C644   C647    1.420   .     A
C644   I694    2.149   .     S
C644   C530    1.396   1_655 S
C645   C647    1.408   .     A
C645   I695    2.140   .     S
C645   C527    1.390   1_655 S
C646   I696    2.158   .     S
C646   C648    1.415   .     A
C649   N682    1.367   .     A
C649   H677    1.081   .     S
C649   C1000   1.415   1_545 S
C650   H678    1.081   .     S
C650   N681    1.367   .     A
C650   C825    1.414   .     S
C651   H679    1.080   .     S
C651   N682    1.367   .     A
C651   C998    1.414   1_545 S
C652   H680    1.081   .     S
C652   N681    1.367   .     A
C652   C823    1.415   .     S
C653   O690    1.293   .     A
C653   O687    1.291   .     A
C653   C658    1.455   .     S
C654   O689    1.293   .     A
C654   C657    1.453   .     S
C654   O688    1.291   .     A
C655   H671    1.086   .     S
C655   C665    1.388   .     A
C655   C657    1.395   .     A
C656   H672    1.086   .     S
C656   C658    1.396   .     A
C656   C666    1.389   .     A
C657   C659    1.412   .     A
C658   C660    1.412   .     A
C659   I691    2.152   .     S
C659   C661    1.411   .     A
C660   I692    2.148   .     S
C660   C662    1.410   .     A
C661   C667    1.407   .     A
C661   C663    1.419   .     A
C662   C668    1.407   .     A
C662   C664    1.419   .     A
C663   C665    1.409   .     A
C663   C142    1.409   1_556 S
C664   C666    1.409   .     A
C667   H673    1.079   .     S
C667   C119    1.391   1_556 S
C668   H674    1.079   .     S
Cu669  Cu670   2.678   .     S
Cu669  O685    1.979   .     S
Cu669  N681    2.012   .     S
Cu669  O687    1.966   .     S
Cu669  O683    1.976   .     S
Cu669  O689    1.963   .     S
Cu670  O686    1.979   .     S
Cu670  O688    1.966   .     S
Cu670  N682    2.012   .     S
Cu670  O690    1.963   .     S
Cu670  O684    1.976   .     S
C697   O744    1.293   .     A
C697   O741    1.296   .     A
C697   C706    1.465   .     S
C698   O743    1.290   .     A
C698   O742    1.301   .     A
C698   C705    1.468   .     S
C699   C724    1.398   .     A
C699   H733    1.084   .     S
C700   C723    1.397   .     A
C700   H734    1.084   .     S
C700   C204    1.390   1_556 S
C701   I751    2.148   .     S
C701   C706    1.416   .     A
C701   C819    1.390   1_455 S
C702   C705    1.420   .     A
C702   I752    2.149   .     S
C702   C762    1.396   .     S
C703   C705    1.408   .     A
C703   I753    2.140   .     S
C703   C759    1.390   .     S
C704   I754    2.158   .     S
C704   C706    1.415   .     A
C704   C818    1.396   1_455 S
C707   N740    1.367   .     A
C707   H735    1.081   .     S
C708   H736    1.081   .     S
C708   N739    1.367   .     A
C708   C883    1.414   .     S
C709   H737    1.080   .     S
C709   N740    1.367   .     A
C710   H738    1.081   .     S
C710   N739    1.367   .     A
C710   C881    1.415   .     S
C711   O748    1.293   .     A
C711   O745    1.291   .     A
C711   C716    1.455   .     S
C712   O747    1.293   .     A
C712   C715    1.453   .     S
C712   O746    1.291   .     A
C713   H729    1.086   .     S
C713   C723    1.388   .     A
C713   C715    1.395   .     A
C714   H730    1.086   .     S
C714   C716    1.396   .     A
C714   C724    1.389   .     A
C715   C717    1.412   .     A
C716   C718    1.412   .     A
C717   I749    2.152   .     S
C717   C719    1.411   .     A
C718   I750    2.148   .     S
C718   C720    1.410   .     A
C719   C725    1.407   .     A
C719   C721    1.419   .     A
C720   C726    1.407   .     A
C720   C722    1.419   .     A
C721   C723    1.409   .     A
C721   C200    1.409   1_556 S
C722   C724    1.409   .     A
C725   H731    1.079   .     S
C725   C177    1.391   1_556 S
C726   H732    1.079   .     S
Cu727  Cu728   2.678   .     S
Cu727  O743    1.979   .     S
Cu727  N739    2.012   .     S
Cu727  O745    1.966   .     S
Cu727  O741    1.976   .     S
Cu727  O747    1.963   .     S
Cu728  O744    1.979   .     S
Cu728  O746    1.966   .     S
Cu728  N740    2.012   .     S
Cu728  O748    1.963   .     S
Cu728  O742    1.976   .     S
C755   O802    1.293   .     A
C755   O799    1.296   .     A
C755   C764    1.465   .     S
C756   O801    1.290   .     A
C756   O800    1.301   .     A
C756   C763    1.468   .     S
C757   C782    1.398   .     A
C757   H791    1.084   .     S
C758   C781    1.397   .     A
C758   H792    1.084   .     S
C758   C262    1.390   1_556 S
C759   I809    2.148   .     S
C759   C764    1.416   .     A
C760   C763    1.420   .     A
C760   I810    2.149   .     S
C760   C820    1.396   .     S
C761   C763    1.408   .     A
C761   I811    2.140   .     S
C761   C817    1.390   .     S
C762   I812    2.158   .     S
C762   C764    1.415   .     A
C765   N798    1.367   .     A
C765   H793    1.081   .     S
C766   H794    1.081   .     S
C766   N797    1.367   .     A
C766   C941    1.414   .     S
C767   H795    1.080   .     S
C767   N798    1.367   .     A
C768   H796    1.081   .     S
C768   N797    1.367   .     A
C768   C939    1.415   .     S
C769   O806    1.293   .     A
C769   O803    1.291   .     A
C769   C774    1.455   .     S
C770   O805    1.293   .     A
C770   C773    1.453   .     S
C770   O804    1.291   .     A
C771   H787    1.086   .     S
C771   C781    1.388   .     A
C771   C773    1.395   .     A
C772   H788    1.086   .     S
C772   C774    1.396   .     A
C772   C782    1.389   .     A
C773   C775    1.412   .     A
C774   C776    1.412   .     A
C775   I807    2.152   .     S
C775   C777    1.411   .     A
C776   I808    2.148   .     S
C776   C778    1.410   .     A
C777   C783    1.407   .     A
C777   C779    1.419   .     A
C778   C784    1.407   .     A
C778   C780    1.419   .     A
C779   C781    1.409   .     A
C779   C258    1.409   1_556 S
C780   C782    1.409   .     A
C783   H789    1.079   .     S
C783   C235    1.391   1_556 S
C784   H790    1.079   .     S
Cu785  Cu786   2.678   .     S
Cu785  O801    1.979   .     S
Cu785  N797    2.012   .     S
Cu785  O803    1.966   .     S
Cu785  O799    1.976   .     S
Cu785  O805    1.963   .     S
Cu786  O802    1.979   .     S
Cu786  O804    1.966   .     S
Cu786  N798    2.012   .     S
Cu786  O806    1.963   .     S
Cu786  O800    1.976   .     S
C813   O860    1.293   .     A
C813   O857    1.296   .     A
C813   C822    1.465   .     S
C814   O859    1.290   .     A
C814   O858    1.301   .     A
C814   C821    1.468   .     S
C815   C840    1.398   .     A
C815   H849    1.084   .     S
C816   C839    1.397   .     A
C816   H850    1.084   .     S
C816   C320    1.390   1_556 S
C817   I867    2.148   .     S
C817   C822    1.416   .     A
C818   C821    1.420   .     A
C818   I868    2.149   .     S
C818   C704    1.396   1_655 S
C819   C821    1.408   .     A
C819   I869    2.140   .     S
C819   C701    1.390   1_655 S
C820   I870    2.158   .     S
C820   C822    1.415   .     A
C823   N856    1.367   .     A
C823   H851    1.081   .     S
C824   H852    1.081   .     S
C824   N855    1.367   .     A
C824   C999    1.414   .     S
C825   H853    1.080   .     S
C825   N856    1.367   .     A
C826   H854    1.081   .     S
C826   N855    1.367   .     A
C826   C997    1.415   .     S
C827   O864    1.293   .     A
C827   O861    1.291   .     A
C827   C832    1.455   .     S
C828   O863    1.293   .     A
C828   C831    1.453   .     S
C828   O862    1.291   .     A
C829   H845    1.086   .     S
C829   C839    1.388   .     A
C829   C831    1.395   .     A
C830   H846    1.086   .     S
C830   C832    1.396   .     A
C830   C840    1.389   .     A
C831   C833    1.412   .     A
C832   C834    1.412   .     A
C833   I865    2.152   .     S
C833   C835    1.411   .     A
C834   I866    2.148   .     S
C834   C836    1.410   .     A
C835   C841    1.407   .     A
C835   C837    1.419   .     A
C836   C842    1.407   .     A
C836   C838    1.419   .     A
C837   C839    1.409   .     A
C837   C316    1.409   1_556 S
C838   C840    1.409   .     A
C841   H847    1.079   .     S
C841   C293    1.391   1_556 S
C842   H848    1.079   .     S
Cu843  Cu844   2.678   .     S
Cu843  O859    1.979   .     S
Cu843  N855    2.012   .     S
Cu843  O861    1.966   .     S
Cu843  O857    1.976   .     S
Cu843  O863    1.963   .     S
Cu844  O860    1.979   .     S
Cu844  O862    1.966   .     S
Cu844  N856    2.012   .     S
Cu844  O864    1.963   .     S
Cu844  O858    1.976   .     S
C871   O918    1.293   .     A
C871   O915    1.296   .     A
C871   C880    1.465   .     S
C872   O917    1.290   .     A
C872   O916    1.301   .     A
C872   C879    1.468   .     S
C873   C898    1.398   .     A
C873   H907    1.084   .     S
C874   C897    1.397   .     A
C874   H908    1.084   .     S
C874   C378    1.390   1_556 S
C875   I925    2.148   .     S
C875   C880    1.416   .     A
C875   C993    1.390   1_455 S
C876   C879    1.420   .     A
C876   I926    2.149   .     S
C876   C936    1.396   .     S
C877   C879    1.408   .     A
C877   I927    2.140   .     S
C877   C933    1.390   .     S
C878   I928    2.158   .     S
C878   C880    1.415   .     A
C878   C992    1.396   1_455 S
C881   N914    1.367   .     A
C881   H909    1.081   .     S
C882   H910    1.081   .     S
C882   N913    1.367   .     A
C882   C535    1.414   1_565 S
C883   H911    1.080   .     S
C883   N914    1.367   .     A
C884   H912    1.081   .     S
C884   N913    1.367   .     A
C884   C533    1.415   1_565 S
C885   O922    1.293   .     A
C885   O919    1.291   .     A
C885   C890    1.455   .     S
C886   O921    1.293   .     A
C886   C889    1.453   .     S
C886   O920    1.291   .     A
C887   H903    1.086   .     S
C887   C897    1.388   .     A
C887   C889    1.395   .     A
C888   H904    1.086   .     S
C888   C890    1.396   .     A
C888   C898    1.389   .     A
C889   C891    1.412   .     A
C890   C892    1.412   .     A
C891   I923    2.152   .     S
C891   C893    1.411   .     A
C892   I924    2.148   .     S
C892   C894    1.410   .     A
C893   C899    1.407   .     A
C893   C895    1.419   .     A
C894   C900    1.407   .     A
C894   C896    1.419   .     A
C895   C897    1.409   .     A
C895   C374    1.409   1_556 S
C896   C898    1.409   .     A
C899   H905    1.079   .     S
C899   C351    1.391   1_556 S
C900   H906    1.079   .     S
Cu901  Cu902   2.678   .     S
Cu901  O917    1.979   .     S
Cu901  N913    2.012   .     S
Cu901  O919    1.966   .     S
Cu901  O915    1.976   .     S
Cu901  O921    1.963   .     S
Cu902  O918    1.979   .     S
Cu902  O920    1.966   .     S
Cu902  N914    2.012   .     S
Cu902  O922    1.963   .     S
Cu902  O916    1.976   .     S
C929   O976    1.293   .     A
C929   O973    1.296   .     A
C929   C938    1.465   .     S
C930   O975    1.290   .     A
C930   O974    1.301   .     A
C930   C937    1.468   .     S
C931   C956    1.398   .     A
C931   H965    1.084   .     S
C932   C955    1.397   .     A
C932   H966    1.084   .     S
C932   C436    1.390   1_556 S
C933   I983    2.148   .     S
C933   C938    1.416   .     A
C934   C937    1.420   .     A
C934   I984    2.149   .     S
C934   C994    1.396   .     S
C935   C937    1.408   .     A
C935   I985    2.140   .     S
C935   C991    1.390   .     S
C936   I986    2.158   .     S
C936   C938    1.415   .     A
C939   N972    1.367   .     A
C939   H967    1.081   .     S
C940   H968    1.081   .     S
C940   N971    1.367   .     A
C940   C593    1.414   1_565 S
C941   H969    1.080   .     S
C941   N972    1.367   .     A
C942   H970    1.081   .     S
C942   N971    1.367   .     A
C942   C591    1.415   1_565 S
C943   O980    1.293   .     A
C943   O977    1.291   .     A
C943   C948    1.455   .     S
C944   O979    1.293   .     A
C944   C947    1.453   .     S
C944   O978    1.291   .     A
C945   H961    1.086   .     S
C945   C955    1.388   .     A
C945   C947    1.395   .     A
C946   H962    1.086   .     S
C946   C948    1.396   .     A
C946   C956    1.389   .     A
C947   C949    1.412   .     A
C948   C950    1.412   .     A
C949   I981    2.152   .     S
C949   C951    1.411   .     A
C950   I982    2.148   .     S
C950   C952    1.410   .     A
C951   C957    1.407   .     A
C951   C953    1.419   .     A
C952   C958    1.407   .     A
C952   C954    1.419   .     A
C953   C955    1.409   .     A
C953   C432    1.409   1_556 S
C954   C956    1.409   .     A
C957   H963    1.079   .     S
C957   C409    1.391   1_556 S
C958   H964    1.079   .     S
Cu959  Cu960   2.678   .     S
Cu959  O975    1.979   .     S
Cu959  N971    2.012   .     S
Cu959  O977    1.966   .     S
Cu959  O973    1.976   .     S
Cu959  O979    1.963   .     S
Cu960  O976    1.979   .     S
Cu960  O978    1.966   .     S
Cu960  N972    2.012   .     S
Cu960  O980    1.963   .     S
Cu960  O974    1.976   .     S
C987   O1034   1.293   .     A
C987   O1031   1.296   .     A
C987   C996    1.465   .     S
C988   O1033   1.290   .     A
C988   O1032   1.301   .     A
C988   C995    1.468   .     S
C989   C1014   1.398   .     A
C989   H1023   1.084   .     S
C990   C1013   1.397   .     A
C990   H1024   1.084   .     S
C990   C494    1.390   1_556 S
C991   I1041   2.148   .     S
C991   C996    1.416   .     A
C992   C995    1.420   .     A
C992   I1042   2.149   .     S
C992   C878    1.396   1_655 S
C993   C995    1.408   .     A
C993   I1043   2.140   .     S
C993   C875    1.390   1_655 S
C994   I1044   2.158   .     S
C994   C996    1.415   .     A
C997   N1030   1.367   .     A
C997   H1025   1.081   .     S
C998   H1026   1.081   .     S
C998   N1029   1.367   .     A
C998   C651    1.414   1_565 S
C999   H1027   1.080   .     S
C999   N1030   1.367   .     A
C1000  H1028   1.081   .     S
C1000  N1029   1.367   .     A
C1000  C649    1.415   1_565 S
C1001  O1038   1.293   .     A
C1001  O1035   1.291   .     A
C1001  C1006   1.455   .     S
C1002  O1037   1.293   .     A
C1002  C1005   1.453   .     S
C1002  O1036   1.291   .     A
C1003  H1019   1.086   .     S
C1003  C1013   1.388   .     A
C1003  C1005   1.395   .     A
C1004  H1020   1.086   .     S
C1004  C1006   1.396   .     A
C1004  C1014   1.389   .     A
C1005  C1007   1.412   .     A
C1006  C1008   1.412   .     A
C1007  I1039   2.152   .     S
C1007  C1009   1.411   .     A
C1008  I1040   2.148   .     S
C1008  C1010   1.410   .     A
C1009  C1015   1.407   .     A
C1009  C1011   1.419   .     A
C1010  C1016   1.407   .     A
C1010  C1012   1.419   .     A
C1011  C1013   1.409   .     A
C1011  C490    1.409   1_556 S
C1012  C1014   1.409   .     A
C1015  H1021   1.079   .     S
C1015  C467    1.391   1_556 S
C1016  H1022   1.079   .     S
Cu1017 Cu1018  2.678   .     S
Cu1017 O1033   1.979   .     S
Cu1017 N1029   2.012   .     S
Cu1017 O1035   1.966   .     S
Cu1017 O1031   1.976   .     S
Cu1017 O1037   1.963   .     S
Cu1018 O1034   1.979   .     S
Cu1018 O1036   1.966   .     S
Cu1018 N1030   2.012   .     S
Cu1018 O1038   1.963   .     S
Cu1018 O1032   1.976   .     S
