data_str_m2_o2_o5_pcu_sym.59
_audit_creation_date              2020-01-03
_audit_creation_method            'Materials Studio'
_symmetry_space_group_name_H-M    'P1'
_symmetry_Int_Tables_number       1
_symmetry_cell_setting            triclinic
loop_
_symmetry_equiv_pos_as_xyz
  x,y,z
_cell_length_a                    30.3991
_cell_length_b                    27.9623
_cell_length_c                    27.1488
_cell_angle_alpha                 89.9992
_cell_angle_beta                  93.4909
_cell_angle_gamma                 89.9983
loop_
_atom_site_label
_atom_site_type_symbol
_atom_site_fract_x
_atom_site_fract_y
_atom_site_fract_z
_atom_site_U_iso_or_equiv
_atom_site_adp_type
_atom_site_occupancy
C1     C     0.16531   0.24994   0.17089   0.00000  Uiso   1.00
C2     C     0.28454   0.44585   0.19106   0.00000  Uiso   1.00
C3     C     0.24998   0.25000   0.07361   0.00000  Uiso   1.00
C4     C     0.25003   0.25000   0.25973   0.00000  Uiso   1.00
C5     C     0.25000   0.02730   0.16667   0.00000  Uiso   1.00
C6     C     0.25000   0.47265   0.16667   0.00000  Uiso   1.00
C7     C     0.25000   0.24999   0.02188   0.00000  Uiso   1.00
C8     C     0.25000   0.24999   0.31146   0.00000  Uiso   1.00
C9     C     0.04702   0.28498   0.15131   0.00000  Uiso   1.00
C10    C     0.45094   0.20665   0.14192   0.00000  Uiso   1.00
C11    C     0.45298   0.28499   0.18200   0.00000  Uiso   1.00
C12    C     0.33469   0.24994   0.16244   0.00000  Uiso   1.00
C13    C     0.04906   0.20668   0.19147   0.00000  Uiso   1.00
C14    C     0.09161   0.29010   0.16417   0.00000  Uiso   1.00
C15    C     0.40472   0.20772   0.14099   0.00000  Uiso   1.00
C16    C     0.40839   0.29010   0.16913   0.00000  Uiso   1.00
C17    C     0.09528   0.20774   0.19239   0.00000  Uiso   1.00
C18    C     0.11716   0.24938   0.17658   0.00000  Uiso   1.00
C19    C     0.38285   0.24937   0.15676   0.00000  Uiso   1.00
C20    C     0.02447   0.24436   0.16804   0.00000  Uiso   1.00
C21    C     0.47553   0.24435   0.16532   0.00000  Uiso   1.00
C22    C     0.27042   0.10390   0.20508   0.00000  Uiso   1.00
C23    C     0.22019   0.39604   0.13661   0.00000  Uiso   1.00
C24    C     0.22958   0.10390   0.12825   0.00000  Uiso   1.00
C25    C     0.27981   0.39604   0.19673   0.00000  Uiso   1.00
C26    C     0.26427   0.05412   0.20912   0.00000  Uiso   1.00
C27    C     0.21546   0.44585   0.14227   0.00000  Uiso   1.00
C28    C     0.23573   0.05412   0.12422   0.00000  Uiso   1.00
Cu29   Cu    0.25000   0.29821   0.16667   0.00000  Uiso   1.00
Cu30   Cu    0.25000   0.20178   0.16667   0.00000  Uiso   1.00
H31    H     0.49978   0.30907   0.10678   0.00000  Uiso   1.00
H32    H     0.00096   0.17692   0.11200   0.00000  Uiso   1.00
H33    H     0.00021   0.30912   0.22651   0.00000  Uiso   1.00
H34    H     0.49909   0.17703   0.22152   0.00000  Uiso   1.00
H35    H     0.25484   0.00429   0.25690   0.00000  Uiso   1.00
H36    H     0.17123   0.49570   0.14244   0.00000  Uiso   1.00
H37    H     0.24516   0.00429   0.07644   0.00000  Uiso   1.00
H38    H     0.32877   0.49570   0.19089   0.00000  Uiso   1.00
I39    I     0.31645   0.13430   0.25864   0.00000  Uiso   1.00
I40    I     0.18108   0.36511   0.07677   0.00000  Uiso   1.00
I41    I     0.18355   0.13431   0.07469   0.00000  Uiso   1.00
I42    I     0.31893   0.36510   0.25656   0.00000  Uiso   1.00
I43    I     0.11207   0.36122   0.18228   0.00000  Uiso   1.00
I44    I     0.37081   0.14820   0.10638   0.00000  Uiso   1.00
I45    I     0.38791   0.36122   0.15101   0.00000  Uiso   1.00
I46    I     0.12920   0.14824   0.22702   0.00000  Uiso   1.00
N47    N     0.25000   0.12934   0.16667   0.00000  Uiso   1.00
N48    N     0.25000   0.37066   0.16667   0.00000  Uiso   1.00
O49    O     0.18573   0.29072   0.16667   0.00000  Uiso   1.00
O50    O     0.47063   0.16825   0.11991   0.00000  Uiso   1.00
O51    O     0.47400   0.32205   0.20754   0.00000  Uiso   1.00
O52    O     0.02937   0.16831   0.21354   0.00000  Uiso   1.00
O53    O     0.27331   0.03329   0.25470   0.00000  Uiso   1.00
O54    O     0.17707   0.46673   0.12289   0.00000  Uiso   1.00
O55    O     0.22669   0.03330   0.07863   0.00000  Uiso   1.00
O56    O     0.32293   0.46673   0.21044   0.00000  Uiso   1.00
O57    O     0.31427   0.20928   0.16666   0.00000  Uiso   1.00
O58    O     0.31427   0.29071   0.16666   0.00000  Uiso   1.00
O59    O     0.18573   0.20928   0.16667   0.00000  Uiso   1.00
O60    O     0.25000   0.29071   0.09613   0.00000  Uiso   1.00
O61    O     0.25000   0.20929   0.23720   0.00000  Uiso   1.00
O62    O     0.25000   0.29071   0.23720   0.00000  Uiso   1.00
O63    O     0.25000   0.20929   0.09613   0.00000  Uiso   1.00
O64    O     0.02599   0.32201   0.12575   0.00000  Uiso   1.00
C65    C     0.66531   0.24994   0.17089   0.00000  Uiso   1.00
C66    C     0.78454   0.44585   0.19106   0.00000  Uiso   1.00
C67    C     0.74998   0.25000   0.07361   0.00000  Uiso   1.00
C68    C     0.75003   0.25000   0.25973   0.00000  Uiso   1.00
C69    C     0.75000   0.02730   0.16667   0.00000  Uiso   1.00
C70    C     0.75000   0.47265   0.16667   0.00000  Uiso   1.00
C71    C     0.75000   0.24999   0.02188   0.00000  Uiso   1.00
C72    C     0.75000   0.24999   0.31146   0.00000  Uiso   1.00
C73    C     0.54702   0.28498   0.15131   0.00000  Uiso   1.00
C74    C     0.95094   0.20665   0.14192   0.00000  Uiso   1.00
C75    C     0.95298   0.28499   0.18200   0.00000  Uiso   1.00
C76    C     0.83469   0.24994   0.16244   0.00000  Uiso   1.00
C77    C     0.54906   0.20668   0.19147   0.00000  Uiso   1.00
C78    C     0.59161   0.29010   0.16417   0.00000  Uiso   1.00
C79    C     0.90472   0.20772   0.14099   0.00000  Uiso   1.00
C80    C     0.90839   0.29010   0.16913   0.00000  Uiso   1.00
C81    C     0.59528   0.20774   0.19239   0.00000  Uiso   1.00
C82    C     0.61716   0.24938   0.17658   0.00000  Uiso   1.00
C83    C     0.88285   0.24937   0.15676   0.00000  Uiso   1.00
C84    C     0.52447   0.24436   0.16804   0.00000  Uiso   1.00
C85    C     0.97553   0.24435   0.16532   0.00000  Uiso   1.00
C86    C     0.77042   0.10390   0.20508   0.00000  Uiso   1.00
C87    C     0.72019   0.39604   0.13661   0.00000  Uiso   1.00
C88    C     0.72958   0.10390   0.12825   0.00000  Uiso   1.00
C89    C     0.77981   0.39604   0.19673   0.00000  Uiso   1.00
C90    C     0.76427   0.05412   0.20912   0.00000  Uiso   1.00
C91    C     0.71546   0.44585   0.14227   0.00000  Uiso   1.00
C92    C     0.73573   0.05412   0.12422   0.00000  Uiso   1.00
Cu93   Cu    0.75000   0.29821   0.16667   0.00000  Uiso   1.00
Cu94   Cu    0.75000   0.20178   0.16667   0.00000  Uiso   1.00
H95    H     0.99978   0.30907   0.10678   0.00000  Uiso   1.00
H96    H     0.50096   0.17692   0.11200   0.00000  Uiso   1.00
H97    H     0.50021   0.30912   0.22651   0.00000  Uiso   1.00
H98    H     0.99909   0.17703   0.22152   0.00000  Uiso   1.00
H99    H     0.75484   0.00429   0.25690   0.00000  Uiso   1.00
H100   H     0.67123   0.49570   0.14244   0.00000  Uiso   1.00
H101   H     0.74516   0.00429   0.07644   0.00000  Uiso   1.00
H102   H     0.82877   0.49570   0.19089   0.00000  Uiso   1.00
I103   I     0.81645   0.13430   0.25864   0.00000  Uiso   1.00
I104   I     0.68108   0.36511   0.07677   0.00000  Uiso   1.00
I105   I     0.68355   0.13431   0.07469   0.00000  Uiso   1.00
I106   I     0.81893   0.36510   0.25656   0.00000  Uiso   1.00
I107   I     0.61207   0.36122   0.18228   0.00000  Uiso   1.00
I108   I     0.87081   0.14820   0.10638   0.00000  Uiso   1.00
I109   I     0.88791   0.36122   0.15101   0.00000  Uiso   1.00
I110   I     0.62920   0.14824   0.22702   0.00000  Uiso   1.00
N111   N     0.75000   0.12934   0.16667   0.00000  Uiso   1.00
N112   N     0.75000   0.37066   0.16667   0.00000  Uiso   1.00
O113   O     0.68573   0.29072   0.16667   0.00000  Uiso   1.00
O114   O     0.97063   0.16825   0.11991   0.00000  Uiso   1.00
O115   O     0.97400   0.32205   0.20754   0.00000  Uiso   1.00
O116   O     0.52937   0.16831   0.21354   0.00000  Uiso   1.00
O117   O     0.77331   0.03329   0.25470   0.00000  Uiso   1.00
O118   O     0.67707   0.46673   0.12289   0.00000  Uiso   1.00
O119   O     0.72669   0.03330   0.07863   0.00000  Uiso   1.00
O120   O     0.82293   0.46673   0.21044   0.00000  Uiso   1.00
O121   O     0.81427   0.20928   0.16666   0.00000  Uiso   1.00
O122   O     0.81427   0.29071   0.16666   0.00000  Uiso   1.00
O123   O     0.68573   0.20928   0.16667   0.00000  Uiso   1.00
O124   O     0.75000   0.29071   0.09613   0.00000  Uiso   1.00
O125   O     0.75000   0.20929   0.23720   0.00000  Uiso   1.00
O126   O     0.75000   0.29071   0.23720   0.00000  Uiso   1.00
O127   O     0.75000   0.20929   0.09613   0.00000  Uiso   1.00
O128   O     0.52599   0.32201   0.12575   0.00000  Uiso   1.00
C129   C     0.16531   0.74994   0.17089   0.00000  Uiso   1.00
C130   C     0.28454   0.94585   0.19106   0.00000  Uiso   1.00
C131   C     0.24998   0.75000   0.07361   0.00000  Uiso   1.00
C132   C     0.25003   0.75000   0.25973   0.00000  Uiso   1.00
C133   C     0.25000   0.52730   0.16667   0.00000  Uiso   1.00
C134   C     0.25000   0.97265   0.16667   0.00000  Uiso   1.00
C135   C     0.25000   0.74999   0.02188   0.00000  Uiso   1.00
C136   C     0.25000   0.74999   0.31146   0.00000  Uiso   1.00
C137   C     0.04702   0.78498   0.15131   0.00000  Uiso   1.00
C138   C     0.45094   0.70665   0.14192   0.00000  Uiso   1.00
C139   C     0.45298   0.78499   0.18200   0.00000  Uiso   1.00
C140   C     0.33469   0.74994   0.16244   0.00000  Uiso   1.00
C141   C     0.04906   0.70668   0.19147   0.00000  Uiso   1.00
C142   C     0.09161   0.79010   0.16417   0.00000  Uiso   1.00
C143   C     0.40472   0.70772   0.14099   0.00000  Uiso   1.00
C144   C     0.40839   0.79010   0.16913   0.00000  Uiso   1.00
C145   C     0.09528   0.70774   0.19239   0.00000  Uiso   1.00
C146   C     0.11716   0.74938   0.17658   0.00000  Uiso   1.00
C147   C     0.38285   0.74937   0.15676   0.00000  Uiso   1.00
C148   C     0.02447   0.74436   0.16804   0.00000  Uiso   1.00
C149   C     0.47553   0.74435   0.16532   0.00000  Uiso   1.00
C150   C     0.27042   0.60390   0.20508   0.00000  Uiso   1.00
C151   C     0.22019   0.89604   0.13661   0.00000  Uiso   1.00
C152   C     0.22958   0.60390   0.12825   0.00000  Uiso   1.00
C153   C     0.27981   0.89604   0.19673   0.00000  Uiso   1.00
C154   C     0.26427   0.55412   0.20912   0.00000  Uiso   1.00
C155   C     0.21546   0.94585   0.14227   0.00000  Uiso   1.00
C156   C     0.23573   0.55412   0.12422   0.00000  Uiso   1.00
Cu157  Cu    0.25000   0.79821   0.16667   0.00000  Uiso   1.00
Cu158  Cu    0.25000   0.70178   0.16667   0.00000  Uiso   1.00
H159   H     0.49978   0.80907   0.10678   0.00000  Uiso   1.00
H160   H     0.00096   0.67692   0.11200   0.00000  Uiso   1.00
H161   H     0.00021   0.80912   0.22651   0.00000  Uiso   1.00
H162   H     0.49909   0.67703   0.22152   0.00000  Uiso   1.00
H163   H     0.25484   0.50429   0.25690   0.00000  Uiso   1.00
H164   H     0.17123   0.99570   0.14244   0.00000  Uiso   1.00
H165   H     0.24516   0.50429   0.07644   0.00000  Uiso   1.00
H166   H     0.32877   0.99570   0.19089   0.00000  Uiso   1.00
I167   I     0.31645   0.63430   0.25864   0.00000  Uiso   1.00
I168   I     0.18108   0.86511   0.07677   0.00000  Uiso   1.00
I169   I     0.18355   0.63431   0.07469   0.00000  Uiso   1.00
I170   I     0.31893   0.86510   0.25656   0.00000  Uiso   1.00
I171   I     0.11207   0.86122   0.18228   0.00000  Uiso   1.00
I172   I     0.37081   0.64820   0.10638   0.00000  Uiso   1.00
I173   I     0.38791   0.86122   0.15101   0.00000  Uiso   1.00
I174   I     0.12920   0.64824   0.22702   0.00000  Uiso   1.00
N175   N     0.25000   0.62934   0.16667   0.00000  Uiso   1.00
N176   N     0.25000   0.87066   0.16667   0.00000  Uiso   1.00
O177   O     0.18573   0.79072   0.16667   0.00000  Uiso   1.00
O178   O     0.47063   0.66825   0.11991   0.00000  Uiso   1.00
O179   O     0.47400   0.82205   0.20754   0.00000  Uiso   1.00
O180   O     0.02937   0.66831   0.21354   0.00000  Uiso   1.00
O181   O     0.27331   0.53329   0.25470   0.00000  Uiso   1.00
O182   O     0.17707   0.96673   0.12289   0.00000  Uiso   1.00
O183   O     0.22669   0.53330   0.07863   0.00000  Uiso   1.00
O184   O     0.32293   0.96673   0.21044   0.00000  Uiso   1.00
O185   O     0.31427   0.70928   0.16666   0.00000  Uiso   1.00
O186   O     0.31427   0.79071   0.16666   0.00000  Uiso   1.00
O187   O     0.18573   0.70928   0.16667   0.00000  Uiso   1.00
O188   O     0.25000   0.79071   0.09613   0.00000  Uiso   1.00
O189   O     0.25000   0.70929   0.23720   0.00000  Uiso   1.00
O190   O     0.25000   0.79071   0.23720   0.00000  Uiso   1.00
O191   O     0.25000   0.70929   0.09613   0.00000  Uiso   1.00
O192   O     0.02599   0.82201   0.12575   0.00000  Uiso   1.00
C193   C     0.66531   0.74994   0.17089   0.00000  Uiso   1.00
C194   C     0.78454   0.94585   0.19106   0.00000  Uiso   1.00
C195   C     0.74998   0.75000   0.07361   0.00000  Uiso   1.00
C196   C     0.75003   0.75000   0.25973   0.00000  Uiso   1.00
C197   C     0.75000   0.52730   0.16667   0.00000  Uiso   1.00
C198   C     0.75000   0.97265   0.16667   0.00000  Uiso   1.00
C199   C     0.75000   0.74999   0.02188   0.00000  Uiso   1.00
C200   C     0.75000   0.74999   0.31146   0.00000  Uiso   1.00
C201   C     0.54702   0.78498   0.15131   0.00000  Uiso   1.00
C202   C     0.95094   0.70665   0.14192   0.00000  Uiso   1.00
C203   C     0.95298   0.78499   0.18200   0.00000  Uiso   1.00
C204   C     0.83469   0.74994   0.16244   0.00000  Uiso   1.00
C205   C     0.54906   0.70668   0.19147   0.00000  Uiso   1.00
C206   C     0.59161   0.79010   0.16417   0.00000  Uiso   1.00
C207   C     0.90472   0.70772   0.14099   0.00000  Uiso   1.00
C208   C     0.90839   0.79010   0.16913   0.00000  Uiso   1.00
C209   C     0.59528   0.70774   0.19239   0.00000  Uiso   1.00
C210   C     0.61716   0.74938   0.17658   0.00000  Uiso   1.00
C211   C     0.88285   0.74937   0.15676   0.00000  Uiso   1.00
C212   C     0.52447   0.74436   0.16804   0.00000  Uiso   1.00
C213   C     0.97553   0.74435   0.16532   0.00000  Uiso   1.00
C214   C     0.77042   0.60390   0.20508   0.00000  Uiso   1.00
C215   C     0.72019   0.89604   0.13661   0.00000  Uiso   1.00
C216   C     0.72958   0.60390   0.12825   0.00000  Uiso   1.00
C217   C     0.77981   0.89604   0.19673   0.00000  Uiso   1.00
C218   C     0.76427   0.55412   0.20912   0.00000  Uiso   1.00
C219   C     0.71546   0.94585   0.14227   0.00000  Uiso   1.00
C220   C     0.73573   0.55412   0.12422   0.00000  Uiso   1.00
Cu221  Cu    0.75000   0.79821   0.16667   0.00000  Uiso   1.00
Cu222  Cu    0.75000   0.70178   0.16667   0.00000  Uiso   1.00
H223   H     0.99978   0.80907   0.10678   0.00000  Uiso   1.00
H224   H     0.50096   0.67692   0.11200   0.00000  Uiso   1.00
H225   H     0.50021   0.80912   0.22651   0.00000  Uiso   1.00
H226   H     0.99909   0.67703   0.22152   0.00000  Uiso   1.00
H227   H     0.75484   0.50429   0.25690   0.00000  Uiso   1.00
H228   H     0.67123   0.99570   0.14244   0.00000  Uiso   1.00
H229   H     0.74516   0.50429   0.07644   0.00000  Uiso   1.00
H230   H     0.82877   0.99570   0.19089   0.00000  Uiso   1.00
I231   I     0.81645   0.63430   0.25864   0.00000  Uiso   1.00
I232   I     0.68108   0.86511   0.07677   0.00000  Uiso   1.00
I233   I     0.68355   0.63431   0.07469   0.00000  Uiso   1.00
I234   I     0.81893   0.86510   0.25656   0.00000  Uiso   1.00
I235   I     0.61207   0.86122   0.18228   0.00000  Uiso   1.00
I236   I     0.87081   0.64820   0.10638   0.00000  Uiso   1.00
I237   I     0.88791   0.86122   0.15101   0.00000  Uiso   1.00
I238   I     0.62920   0.64824   0.22702   0.00000  Uiso   1.00
N239   N     0.75000   0.62934   0.16667   0.00000  Uiso   1.00
N240   N     0.75000   0.87066   0.16667   0.00000  Uiso   1.00
O241   O     0.68573   0.79072   0.16667   0.00000  Uiso   1.00
O242   O     0.97063   0.66825   0.11991   0.00000  Uiso   1.00
O243   O     0.97400   0.82205   0.20754   0.00000  Uiso   1.00
O244   O     0.52937   0.66831   0.21354   0.00000  Uiso   1.00
O245   O     0.77331   0.53329   0.25470   0.00000  Uiso   1.00
O246   O     0.67707   0.96673   0.12289   0.00000  Uiso   1.00
O247   O     0.72669   0.53330   0.07863   0.00000  Uiso   1.00
O248   O     0.82293   0.96673   0.21044   0.00000  Uiso   1.00
O249   O     0.81427   0.70928   0.16666   0.00000  Uiso   1.00
O250   O     0.81427   0.79071   0.16666   0.00000  Uiso   1.00
O251   O     0.68573   0.70928   0.16667   0.00000  Uiso   1.00
O252   O     0.75000   0.79071   0.09613   0.00000  Uiso   1.00
O253   O     0.75000   0.70929   0.23720   0.00000  Uiso   1.00
O254   O     0.75000   0.79071   0.23720   0.00000  Uiso   1.00
O255   O     0.75000   0.70929   0.09613   0.00000  Uiso   1.00
O256   O     0.52599   0.82201   0.12575   0.00000  Uiso   1.00
C257   C     0.16531   0.24994   0.50423   0.00000  Uiso   1.00
C258   C     0.28454   0.44585   0.52439   0.00000  Uiso   1.00
C259   C     0.24998   0.25000   0.40694   0.00000  Uiso   1.00
C260   C     0.25003   0.25000   0.59306   0.00000  Uiso   1.00
C261   C     0.25000   0.02730   0.50000   0.00000  Uiso   1.00
C262   C     0.25000   0.47265   0.50000   0.00000  Uiso   1.00
C263   C     0.25000   0.24999   0.35521   0.00000  Uiso   1.00
C264   C     0.25000   0.24999   0.64479   0.00000  Uiso   1.00
C265   C     0.04702   0.28498   0.48464   0.00000  Uiso   1.00
C266   C     0.45094   0.20665   0.47526   0.00000  Uiso   1.00
C267   C     0.45298   0.28499   0.51534   0.00000  Uiso   1.00
C268   C     0.33469   0.24994   0.49577   0.00000  Uiso   1.00
C269   C     0.04906   0.20668   0.52481   0.00000  Uiso   1.00
C270   C     0.09161   0.29010   0.49751   0.00000  Uiso   1.00
C271   C     0.40472   0.20772   0.47432   0.00000  Uiso   1.00
C272   C     0.40839   0.29010   0.50247   0.00000  Uiso   1.00
C273   C     0.09528   0.20774   0.52572   0.00000  Uiso   1.00
C274   C     0.11716   0.24938   0.50991   0.00000  Uiso   1.00
C275   C     0.38285   0.24937   0.49009   0.00000  Uiso   1.00
C276   C     0.02447   0.24436   0.50137   0.00000  Uiso   1.00
C277   C     0.47553   0.24435   0.49865   0.00000  Uiso   1.00
C278   C     0.27042   0.10390   0.53842   0.00000  Uiso   1.00
C279   C     0.22019   0.39604   0.46994   0.00000  Uiso   1.00
C280   C     0.22958   0.10390   0.46158   0.00000  Uiso   1.00
C281   C     0.27981   0.39604   0.53006   0.00000  Uiso   1.00
C282   C     0.26427   0.05412   0.54245   0.00000  Uiso   1.00
C283   C     0.21546   0.44585   0.47561   0.00000  Uiso   1.00
C284   C     0.23573   0.05412   0.45755   0.00000  Uiso   1.00
Cu285  Cu    0.25000   0.29821   0.50000   0.00000  Uiso   1.00
Cu286  Cu    0.25000   0.20178   0.50000   0.00000  Uiso   1.00
H287   H     0.49978   0.30907   0.44012   0.00000  Uiso   1.00
H288   H     0.00096   0.17692   0.44534   0.00000  Uiso   1.00
H289   H     0.00021   0.30912   0.55984   0.00000  Uiso   1.00
H290   H     0.49909   0.17703   0.55485   0.00000  Uiso   1.00
H291   H     0.25484   0.00429   0.59023   0.00000  Uiso   1.00
H292   H     0.17123   0.49570   0.47578   0.00000  Uiso   1.00
H293   H     0.24516   0.00429   0.40977   0.00000  Uiso   1.00
H294   H     0.32877   0.49570   0.52422   0.00000  Uiso   1.00
I295   I     0.31645   0.13430   0.59197   0.00000  Uiso   1.00
I296   I     0.18108   0.36511   0.41010   0.00000  Uiso   1.00
I297   I     0.18355   0.13431   0.40802   0.00000  Uiso   1.00
I298   I     0.31893   0.36510   0.58989   0.00000  Uiso   1.00
I299   I     0.11207   0.36122   0.51562   0.00000  Uiso   1.00
I300   I     0.37081   0.14820   0.43971   0.00000  Uiso   1.00
I301   I     0.38791   0.36122   0.48435   0.00000  Uiso   1.00
I302   I     0.12920   0.14824   0.56036   0.00000  Uiso   1.00
N303   N     0.25000   0.12934   0.50000   0.00000  Uiso   1.00
N304   N     0.25000   0.37066   0.50000   0.00000  Uiso   1.00
O305   O     0.18573   0.29072   0.50000   0.00000  Uiso   1.00
O306   O     0.47063   0.16825   0.45324   0.00000  Uiso   1.00
O307   O     0.47400   0.32205   0.54087   0.00000  Uiso   1.00
O308   O     0.02937   0.16831   0.54687   0.00000  Uiso   1.00
O309   O     0.27331   0.03329   0.58804   0.00000  Uiso   1.00
O310   O     0.17707   0.46673   0.45623   0.00000  Uiso   1.00
O311   O     0.22669   0.03330   0.41196   0.00000  Uiso   1.00
O312   O     0.32293   0.46673   0.54377   0.00000  Uiso   1.00
O313   O     0.31427   0.20928   0.50000   0.00000  Uiso   1.00
O314   O     0.31427   0.29071   0.50000   0.00000  Uiso   1.00
O315   O     0.18573   0.20928   0.50000   0.00000  Uiso   1.00
O316   O     0.25000   0.29071   0.42946   0.00000  Uiso   1.00
O317   O     0.25000   0.20929   0.57054   0.00000  Uiso   1.00
O318   O     0.25000   0.29071   0.57054   0.00000  Uiso   1.00
O319   O     0.25000   0.20929   0.42946   0.00000  Uiso   1.00
O320   O     0.02599   0.32201   0.45908   0.00000  Uiso   1.00
C321   C     0.66531   0.24994   0.50423   0.00000  Uiso   1.00
C322   C     0.78454   0.44585   0.52439   0.00000  Uiso   1.00
C323   C     0.74998   0.25000   0.40694   0.00000  Uiso   1.00
C324   C     0.75003   0.25000   0.59306   0.00000  Uiso   1.00
C325   C     0.75000   0.02730   0.50000   0.00000  Uiso   1.00
C326   C     0.75000   0.47265   0.50000   0.00000  Uiso   1.00
C327   C     0.75000   0.24999   0.35521   0.00000  Uiso   1.00
C328   C     0.75000   0.24999   0.64479   0.00000  Uiso   1.00
C329   C     0.54702   0.28498   0.48464   0.00000  Uiso   1.00
C330   C     0.95094   0.20665   0.47526   0.00000  Uiso   1.00
C331   C     0.95298   0.28499   0.51534   0.00000  Uiso   1.00
C332   C     0.83469   0.24994   0.49577   0.00000  Uiso   1.00
C333   C     0.54906   0.20668   0.52481   0.00000  Uiso   1.00
C334   C     0.59161   0.29010   0.49751   0.00000  Uiso   1.00
C335   C     0.90472   0.20772   0.47432   0.00000  Uiso   1.00
C336   C     0.90839   0.29010   0.50247   0.00000  Uiso   1.00
C337   C     0.59528   0.20774   0.52572   0.00000  Uiso   1.00
C338   C     0.61716   0.24938   0.50991   0.00000  Uiso   1.00
C339   C     0.88285   0.24937   0.49009   0.00000  Uiso   1.00
C340   C     0.52447   0.24436   0.50137   0.00000  Uiso   1.00
C341   C     0.97553   0.24435   0.49865   0.00000  Uiso   1.00
C342   C     0.77042   0.10390   0.53842   0.00000  Uiso   1.00
C343   C     0.72019   0.39604   0.46994   0.00000  Uiso   1.00
C344   C     0.72958   0.10390   0.46158   0.00000  Uiso   1.00
C345   C     0.77981   0.39604   0.53006   0.00000  Uiso   1.00
C346   C     0.76427   0.05412   0.54245   0.00000  Uiso   1.00
C347   C     0.71546   0.44585   0.47561   0.00000  Uiso   1.00
C348   C     0.73573   0.05412   0.45755   0.00000  Uiso   1.00
Cu349  Cu    0.75000   0.29821   0.50000   0.00000  Uiso   1.00
Cu350  Cu    0.75000   0.20178   0.50000   0.00000  Uiso   1.00
H351   H     0.99978   0.30907   0.44012   0.00000  Uiso   1.00
H352   H     0.50096   0.17692   0.44534   0.00000  Uiso   1.00
H353   H     0.50021   0.30912   0.55984   0.00000  Uiso   1.00
H354   H     0.99909   0.17703   0.55485   0.00000  Uiso   1.00
H355   H     0.75484   0.00429   0.59023   0.00000  Uiso   1.00
H356   H     0.67123   0.49570   0.47578   0.00000  Uiso   1.00
H357   H     0.74516   0.00429   0.40977   0.00000  Uiso   1.00
H358   H     0.82877   0.49570   0.52422   0.00000  Uiso   1.00
I359   I     0.81645   0.13430   0.59197   0.00000  Uiso   1.00
I360   I     0.68108   0.36511   0.41010   0.00000  Uiso   1.00
I361   I     0.68355   0.13431   0.40802   0.00000  Uiso   1.00
I362   I     0.81893   0.36510   0.58989   0.00000  Uiso   1.00
I363   I     0.61207   0.36122   0.51562   0.00000  Uiso   1.00
I364   I     0.87081   0.14820   0.43971   0.00000  Uiso   1.00
I365   I     0.88791   0.36122   0.48435   0.00000  Uiso   1.00
I366   I     0.62920   0.14824   0.56036   0.00000  Uiso   1.00
N367   N     0.75000   0.12934   0.50000   0.00000  Uiso   1.00
N368   N     0.75000   0.37066   0.50000   0.00000  Uiso   1.00
O369   O     0.68573   0.29072   0.50000   0.00000  Uiso   1.00
O370   O     0.97063   0.16825   0.45324   0.00000  Uiso   1.00
O371   O     0.97400   0.32205   0.54087   0.00000  Uiso   1.00
O372   O     0.52937   0.16831   0.54687   0.00000  Uiso   1.00
O373   O     0.77331   0.03329   0.58804   0.00000  Uiso   1.00
O374   O     0.67707   0.46673   0.45623   0.00000  Uiso   1.00
O375   O     0.72669   0.03330   0.41196   0.00000  Uiso   1.00
O376   O     0.82293   0.46673   0.54377   0.00000  Uiso   1.00
O377   O     0.81427   0.20928   0.50000   0.00000  Uiso   1.00
O378   O     0.81427   0.29071   0.50000   0.00000  Uiso   1.00
O379   O     0.68573   0.20928   0.50000   0.00000  Uiso   1.00
O380   O     0.75000   0.29071   0.42946   0.00000  Uiso   1.00
O381   O     0.75000   0.20929   0.57054   0.00000  Uiso   1.00
O382   O     0.75000   0.29071   0.57054   0.00000  Uiso   1.00
O383   O     0.75000   0.20929   0.42946   0.00000  Uiso   1.00
O384   O     0.52599   0.32201   0.45908   0.00000  Uiso   1.00
C385   C     0.16531   0.74994   0.50423   0.00000  Uiso   1.00
C386   C     0.28454   0.94585   0.52439   0.00000  Uiso   1.00
C387   C     0.24998   0.75000   0.40694   0.00000  Uiso   1.00
C388   C     0.25003   0.75000   0.59306   0.00000  Uiso   1.00
C389   C     0.25000   0.52730   0.50000   0.00000  Uiso   1.00
C390   C     0.25000   0.97265   0.50000   0.00000  Uiso   1.00
C391   C     0.25000   0.74999   0.35521   0.00000  Uiso   1.00
C392   C     0.25000   0.74999   0.64479   0.00000  Uiso   1.00
C393   C     0.04702   0.78498   0.48464   0.00000  Uiso   1.00
C394   C     0.45094   0.70665   0.47526   0.00000  Uiso   1.00
C395   C     0.45298   0.78499   0.51534   0.00000  Uiso   1.00
C396   C     0.33469   0.74994   0.49577   0.00000  Uiso   1.00
C397   C     0.04906   0.70668   0.52481   0.00000  Uiso   1.00
C398   C     0.09161   0.79010   0.49751   0.00000  Uiso   1.00
C399   C     0.40472   0.70772   0.47432   0.00000  Uiso   1.00
C400   C     0.40839   0.79010   0.50247   0.00000  Uiso   1.00
C401   C     0.09528   0.70774   0.52572   0.00000  Uiso   1.00
C402   C     0.11716   0.74938   0.50991   0.00000  Uiso   1.00
C403   C     0.38285   0.74937   0.49009   0.00000  Uiso   1.00
C404   C     0.02447   0.74436   0.50137   0.00000  Uiso   1.00
C405   C     0.47553   0.74435   0.49865   0.00000  Uiso   1.00
C406   C     0.27042   0.60390   0.53842   0.00000  Uiso   1.00
C407   C     0.22019   0.89604   0.46994   0.00000  Uiso   1.00
C408   C     0.22958   0.60390   0.46158   0.00000  Uiso   1.00
C409   C     0.27981   0.89604   0.53006   0.00000  Uiso   1.00
C410   C     0.26427   0.55412   0.54245   0.00000  Uiso   1.00
C411   C     0.21546   0.94585   0.47561   0.00000  Uiso   1.00
C412   C     0.23573   0.55412   0.45755   0.00000  Uiso   1.00
Cu413  Cu    0.25000   0.79821   0.50000   0.00000  Uiso   1.00
Cu414  Cu    0.25000   0.70178   0.50000   0.00000  Uiso   1.00
H415   H     0.49978   0.80907   0.44012   0.00000  Uiso   1.00
H416   H     0.00096   0.67692   0.44534   0.00000  Uiso   1.00
H417   H     0.00021   0.80912   0.55984   0.00000  Uiso   1.00
H418   H     0.49909   0.67703   0.55485   0.00000  Uiso   1.00
H419   H     0.25484   0.50429   0.59023   0.00000  Uiso   1.00
H420   H     0.17123   0.99570   0.47578   0.00000  Uiso   1.00
H421   H     0.24516   0.50429   0.40977   0.00000  Uiso   1.00
H422   H     0.32877   0.99570   0.52422   0.00000  Uiso   1.00
I423   I     0.31645   0.63430   0.59197   0.00000  Uiso   1.00
I424   I     0.18108   0.86511   0.41010   0.00000  Uiso   1.00
I425   I     0.18355   0.63431   0.40802   0.00000  Uiso   1.00
I426   I     0.31893   0.86510   0.58989   0.00000  Uiso   1.00
I427   I     0.11207   0.86122   0.51562   0.00000  Uiso   1.00
I428   I     0.37081   0.64820   0.43971   0.00000  Uiso   1.00
I429   I     0.38791   0.86122   0.48435   0.00000  Uiso   1.00
I430   I     0.12920   0.64824   0.56036   0.00000  Uiso   1.00
N431   N     0.25000   0.62934   0.50000   0.00000  Uiso   1.00
N432   N     0.25000   0.87066   0.50000   0.00000  Uiso   1.00
O433   O     0.18573   0.79072   0.50000   0.00000  Uiso   1.00
O434   O     0.47063   0.66825   0.45324   0.00000  Uiso   1.00
O435   O     0.47400   0.82205   0.54087   0.00000  Uiso   1.00
O436   O     0.02937   0.66831   0.54687   0.00000  Uiso   1.00
O437   O     0.27331   0.53329   0.58804   0.00000  Uiso   1.00
O438   O     0.17707   0.96673   0.45623   0.00000  Uiso   1.00
O439   O     0.22669   0.53330   0.41196   0.00000  Uiso   1.00
O440   O     0.32293   0.96673   0.54377   0.00000  Uiso   1.00
O441   O     0.31427   0.70928   0.50000   0.00000  Uiso   1.00
O442   O     0.31427   0.79071   0.50000   0.00000  Uiso   1.00
O443   O     0.18573   0.70928   0.50000   0.00000  Uiso   1.00
O444   O     0.25000   0.79071   0.42946   0.00000  Uiso   1.00
O445   O     0.25000   0.70929   0.57054   0.00000  Uiso   1.00
O446   O     0.25000   0.79071   0.57054   0.00000  Uiso   1.00
O447   O     0.25000   0.70929   0.42946   0.00000  Uiso   1.00
O448   O     0.02599   0.82201   0.45908   0.00000  Uiso   1.00
C449   C     0.66531   0.74994   0.50423   0.00000  Uiso   1.00
C450   C     0.78454   0.94585   0.52439   0.00000  Uiso   1.00
C451   C     0.74998   0.75000   0.40694   0.00000  Uiso   1.00
C452   C     0.75003   0.75000   0.59306   0.00000  Uiso   1.00
C453   C     0.75000   0.52730   0.50000   0.00000  Uiso   1.00
C454   C     0.75000   0.97265   0.50000   0.00000  Uiso   1.00
C455   C     0.75000   0.74999   0.35521   0.00000  Uiso   1.00
C456   C     0.75000   0.74999   0.64479   0.00000  Uiso   1.00
C457   C     0.54702   0.78498   0.48464   0.00000  Uiso   1.00
C458   C     0.95094   0.70665   0.47526   0.00000  Uiso   1.00
C459   C     0.95298   0.78499   0.51534   0.00000  Uiso   1.00
C460   C     0.83469   0.74994   0.49577   0.00000  Uiso   1.00
C461   C     0.54906   0.70668   0.52481   0.00000  Uiso   1.00
C462   C     0.59161   0.79010   0.49751   0.00000  Uiso   1.00
C463   C     0.90472   0.70772   0.47432   0.00000  Uiso   1.00
C464   C     0.90839   0.79010   0.50247   0.00000  Uiso   1.00
C465   C     0.59528   0.70774   0.52572   0.00000  Uiso   1.00
C466   C     0.61716   0.74938   0.50991   0.00000  Uiso   1.00
C467   C     0.88285   0.74937   0.49009   0.00000  Uiso   1.00
C468   C     0.52447   0.74436   0.50137   0.00000  Uiso   1.00
C469   C     0.97553   0.74435   0.49865   0.00000  Uiso   1.00
C470   C     0.77042   0.60390   0.53842   0.00000  Uiso   1.00
C471   C     0.72019   0.89604   0.46994   0.00000  Uiso   1.00
C472   C     0.72958   0.60390   0.46158   0.00000  Uiso   1.00
C473   C     0.77981   0.89604   0.53006   0.00000  Uiso   1.00
C474   C     0.76427   0.55412   0.54245   0.00000  Uiso   1.00
C475   C     0.71546   0.94585   0.47561   0.00000  Uiso   1.00
C476   C     0.73573   0.55412   0.45755   0.00000  Uiso   1.00
Cu477  Cu    0.75000   0.79821   0.50000   0.00000  Uiso   1.00
Cu478  Cu    0.75000   0.70178   0.50000   0.00000  Uiso   1.00
H479   H     0.99978   0.80907   0.44012   0.00000  Uiso   1.00
H480   H     0.50096   0.67692   0.44534   0.00000  Uiso   1.00
H481   H     0.50021   0.80912   0.55984   0.00000  Uiso   1.00
H482   H     0.99909   0.67703   0.55485   0.00000  Uiso   1.00
H483   H     0.75484   0.50429   0.59023   0.00000  Uiso   1.00
H484   H     0.67123   0.99570   0.47578   0.00000  Uiso   1.00
H485   H     0.74516   0.50429   0.40977   0.00000  Uiso   1.00
H486   H     0.82877   0.99570   0.52422   0.00000  Uiso   1.00
I487   I     0.81645   0.63430   0.59197   0.00000  Uiso   1.00
I488   I     0.68108   0.86511   0.41010   0.00000  Uiso   1.00
I489   I     0.68355   0.63431   0.40802   0.00000  Uiso   1.00
I490   I     0.81893   0.86510   0.58989   0.00000  Uiso   1.00
I491   I     0.61207   0.86122   0.51562   0.00000  Uiso   1.00
I492   I     0.87081   0.64820   0.43971   0.00000  Uiso   1.00
I493   I     0.88791   0.86122   0.48435   0.00000  Uiso   1.00
I494   I     0.62920   0.64824   0.56036   0.00000  Uiso   1.00
N495   N     0.75000   0.62934   0.50000   0.00000  Uiso   1.00
N496   N     0.75000   0.87066   0.50000   0.00000  Uiso   1.00
O497   O     0.68573   0.79072   0.50000   0.00000  Uiso   1.00
O498   O     0.97063   0.66825   0.45324   0.00000  Uiso   1.00
O499   O     0.97400   0.82205   0.54087   0.00000  Uiso   1.00
O500   O     0.52937   0.66831   0.54687   0.00000  Uiso   1.00
O501   O     0.77331   0.53329   0.58804   0.00000  Uiso   1.00
O502   O     0.67707   0.96673   0.45623   0.00000  Uiso   1.00
O503   O     0.72669   0.53330   0.41196   0.00000  Uiso   1.00
O504   O     0.82293   0.96673   0.54377   0.00000  Uiso   1.00
O505   O     0.81427   0.70928   0.50000   0.00000  Uiso   1.00
O506   O     0.81427   0.79071   0.50000   0.00000  Uiso   1.00
O507   O     0.68573   0.70928   0.50000   0.00000  Uiso   1.00
O508   O     0.75000   0.79071   0.42946   0.00000  Uiso   1.00
O509   O     0.75000   0.70929   0.57054   0.00000  Uiso   1.00
O510   O     0.75000   0.79071   0.57054   0.00000  Uiso   1.00
O511   O     0.75000   0.70929   0.42946   0.00000  Uiso   1.00
O512   O     0.52599   0.82201   0.45908   0.00000  Uiso   1.00
C513   C     0.16531   0.24994   0.83756   0.00000  Uiso   1.00
C514   C     0.28454   0.44585   0.85773   0.00000  Uiso   1.00
C515   C     0.24998   0.25000   0.74027   0.00000  Uiso   1.00
C516   C     0.25003   0.25000   0.92639   0.00000  Uiso   1.00
C517   C     0.25000   0.02730   0.83333   0.00000  Uiso   1.00
C518   C     0.25000   0.47265   0.83333   0.00000  Uiso   1.00
C519   C     0.25000   0.24999   0.68854   0.00000  Uiso   1.00
C520   C     0.25000   0.24999   0.97812   0.00000  Uiso   1.00
C521   C     0.04702   0.28498   0.81798   0.00000  Uiso   1.00
C522   C     0.45094   0.20665   0.80859   0.00000  Uiso   1.00
C523   C     0.45298   0.28499   0.84867   0.00000  Uiso   1.00
C524   C     0.33469   0.24994   0.82911   0.00000  Uiso   1.00
C525   C     0.04906   0.20668   0.85814   0.00000  Uiso   1.00
C526   C     0.09161   0.29010   0.83084   0.00000  Uiso   1.00
C527   C     0.40472   0.20772   0.80766   0.00000  Uiso   1.00
C528   C     0.40839   0.29010   0.83580   0.00000  Uiso   1.00
C529   C     0.09528   0.20774   0.85906   0.00000  Uiso   1.00
C530   C     0.11716   0.24938   0.84324   0.00000  Uiso   1.00
C531   C     0.38285   0.24937   0.82343   0.00000  Uiso   1.00
C532   C     0.02447   0.24436   0.83471   0.00000  Uiso   1.00
C533   C     0.47553   0.24435   0.83198   0.00000  Uiso   1.00
C534   C     0.27042   0.10390   0.87175   0.00000  Uiso   1.00
C535   C     0.22019   0.39604   0.80327   0.00000  Uiso   1.00
C536   C     0.22958   0.10390   0.79492   0.00000  Uiso   1.00
C537   C     0.27981   0.39604   0.86339   0.00000  Uiso   1.00
C538   C     0.26427   0.05412   0.87578   0.00000  Uiso   1.00
C539   C     0.21546   0.44585   0.80894   0.00000  Uiso   1.00
C540   C     0.23573   0.05412   0.79088   0.00000  Uiso   1.00
Cu541  Cu    0.25000   0.29821   0.83333   0.00000  Uiso   1.00
Cu542  Cu    0.25000   0.20178   0.83333   0.00000  Uiso   1.00
H543   H     0.49978   0.30907   0.77345   0.00000  Uiso   1.00
H544   H     0.00096   0.17692   0.77867   0.00000  Uiso   1.00
H545   H     0.00021   0.30912   0.89318   0.00000  Uiso   1.00
H546   H     0.49909   0.17703   0.88818   0.00000  Uiso   1.00
H547   H     0.25484   0.00429   0.92356   0.00000  Uiso   1.00
H548   H     0.17123   0.49570   0.80911   0.00000  Uiso   1.00
H549   H     0.24516   0.00429   0.74311   0.00000  Uiso   1.00
H550   H     0.32877   0.49570   0.85756   0.00000  Uiso   1.00
I551   I     0.31645   0.13430   0.92531   0.00000  Uiso   1.00
I552   I     0.18108   0.36511   0.74343   0.00000  Uiso   1.00
I553   I     0.18355   0.13431   0.74136   0.00000  Uiso   1.00
I554   I     0.31893   0.36510   0.92323   0.00000  Uiso   1.00
I555   I     0.11207   0.36122   0.84895   0.00000  Uiso   1.00
I556   I     0.37081   0.14820   0.77304   0.00000  Uiso   1.00
I557   I     0.38791   0.36122   0.81768   0.00000  Uiso   1.00
I558   I     0.12920   0.14824   0.89369   0.00000  Uiso   1.00
N559   N     0.25000   0.12934   0.83333   0.00000  Uiso   1.00
N560   N     0.25000   0.37066   0.83333   0.00000  Uiso   1.00
O561   O     0.18573   0.29072   0.83334   0.00000  Uiso   1.00
O562   O     0.47063   0.16825   0.78658   0.00000  Uiso   1.00
O563   O     0.47400   0.32205   0.87420   0.00000  Uiso   1.00
O564   O     0.02937   0.16831   0.88020   0.00000  Uiso   1.00
O565   O     0.27331   0.03329   0.92137   0.00000  Uiso   1.00
O566   O     0.17707   0.46673   0.78956   0.00000  Uiso   1.00
O567   O     0.22669   0.03330   0.74530   0.00000  Uiso   1.00
O568   O     0.32293   0.46673   0.87710   0.00000  Uiso   1.00
O569   O     0.31427   0.20928   0.83333   0.00000  Uiso   1.00
O570   O     0.31427   0.29071   0.83333   0.00000  Uiso   1.00
O571   O     0.18573   0.20928   0.83334   0.00000  Uiso   1.00
O572   O     0.25000   0.29071   0.76280   0.00000  Uiso   1.00
O573   O     0.25000   0.20929   0.90387   0.00000  Uiso   1.00
O574   O     0.25000   0.29071   0.90387   0.00000  Uiso   1.00
O575   O     0.25000   0.20929   0.76280   0.00000  Uiso   1.00
O576   O     0.02599   0.32201   0.79241   0.00000  Uiso   1.00
C577   C     0.66531   0.24994   0.83756   0.00000  Uiso   1.00
C578   C     0.78454   0.44585   0.85773   0.00000  Uiso   1.00
C579   C     0.74998   0.25000   0.74027   0.00000  Uiso   1.00
C580   C     0.75003   0.25000   0.92639   0.00000  Uiso   1.00
C581   C     0.75000   0.02730   0.83333   0.00000  Uiso   1.00
C582   C     0.75000   0.47265   0.83333   0.00000  Uiso   1.00
C583   C     0.75000   0.24999   0.68854   0.00000  Uiso   1.00
C584   C     0.75000   0.24999   0.97812   0.00000  Uiso   1.00
C585   C     0.54702   0.28498   0.81798   0.00000  Uiso   1.00
C586   C     0.95094   0.20665   0.80859   0.00000  Uiso   1.00
C587   C     0.95298   0.28499   0.84867   0.00000  Uiso   1.00
C588   C     0.83469   0.24994   0.82911   0.00000  Uiso   1.00
C589   C     0.54906   0.20668   0.85814   0.00000  Uiso   1.00
C590   C     0.59161   0.29010   0.83084   0.00000  Uiso   1.00
C591   C     0.90472   0.20772   0.80766   0.00000  Uiso   1.00
C592   C     0.90839   0.29010   0.83580   0.00000  Uiso   1.00
C593   C     0.59528   0.20774   0.85906   0.00000  Uiso   1.00
C594   C     0.61716   0.24938   0.84324   0.00000  Uiso   1.00
C595   C     0.88285   0.24937   0.82343   0.00000  Uiso   1.00
C596   C     0.52447   0.24436   0.83471   0.00000  Uiso   1.00
C597   C     0.97553   0.24435   0.83198   0.00000  Uiso   1.00
C598   C     0.77042   0.10390   0.87175   0.00000  Uiso   1.00
C599   C     0.72019   0.39604   0.80327   0.00000  Uiso   1.00
C600   C     0.72958   0.10390   0.79492   0.00000  Uiso   1.00
C601   C     0.77981   0.39604   0.86339   0.00000  Uiso   1.00
C602   C     0.76427   0.05412   0.87578   0.00000  Uiso   1.00
C603   C     0.71546   0.44585   0.80894   0.00000  Uiso   1.00
C604   C     0.73573   0.05412   0.79088   0.00000  Uiso   1.00
Cu605  Cu    0.75000   0.29821   0.83333   0.00000  Uiso   1.00
Cu606  Cu    0.75000   0.20178   0.83333   0.00000  Uiso   1.00
H607   H     0.99978   0.30907   0.77345   0.00000  Uiso   1.00
H608   H     0.50096   0.17692   0.77867   0.00000  Uiso   1.00
H609   H     0.50021   0.30912   0.89318   0.00000  Uiso   1.00
H610   H     0.99909   0.17703   0.88818   0.00000  Uiso   1.00
H611   H     0.75484   0.00429   0.92356   0.00000  Uiso   1.00
H612   H     0.67123   0.49570   0.80911   0.00000  Uiso   1.00
H613   H     0.74516   0.00429   0.74311   0.00000  Uiso   1.00
H614   H     0.82877   0.49570   0.85756   0.00000  Uiso   1.00
I615   I     0.81645   0.13430   0.92531   0.00000  Uiso   1.00
I616   I     0.68108   0.36511   0.74343   0.00000  Uiso   1.00
I617   I     0.68355   0.13431   0.74136   0.00000  Uiso   1.00
I618   I     0.81893   0.36510   0.92323   0.00000  Uiso   1.00
I619   I     0.61207   0.36122   0.84895   0.00000  Uiso   1.00
I620   I     0.87081   0.14820   0.77304   0.00000  Uiso   1.00
I621   I     0.88791   0.36122   0.81768   0.00000  Uiso   1.00
I622   I     0.62920   0.14824   0.89369   0.00000  Uiso   1.00
N623   N     0.75000   0.12934   0.83333   0.00000  Uiso   1.00
N624   N     0.75000   0.37066   0.83333   0.00000  Uiso   1.00
O625   O     0.68573   0.29072   0.83334   0.00000  Uiso   1.00
O626   O     0.97063   0.16825   0.78658   0.00000  Uiso   1.00
O627   O     0.97400   0.32205   0.87420   0.00000  Uiso   1.00
O628   O     0.52937   0.16831   0.88020   0.00000  Uiso   1.00
O629   O     0.77331   0.03329   0.92137   0.00000  Uiso   1.00
O630   O     0.67707   0.46673   0.78956   0.00000  Uiso   1.00
O631   O     0.72669   0.03330   0.74530   0.00000  Uiso   1.00
O632   O     0.82293   0.46673   0.87710   0.00000  Uiso   1.00
O633   O     0.81427   0.20928   0.83333   0.00000  Uiso   1.00
O634   O     0.81427   0.29071   0.83333   0.00000  Uiso   1.00
O635   O     0.68573   0.20928   0.83334   0.00000  Uiso   1.00
O636   O     0.75000   0.29071   0.76280   0.00000  Uiso   1.00
O637   O     0.75000   0.20929   0.90387   0.00000  Uiso   1.00
O638   O     0.75000   0.29071   0.90387   0.00000  Uiso   1.00
O639   O     0.75000   0.20929   0.76280   0.00000  Uiso   1.00
O640   O     0.52599   0.32201   0.79241   0.00000  Uiso   1.00
C641   C     0.16531   0.74994   0.83756   0.00000  Uiso   1.00
C642   C     0.28454   0.94585   0.85773   0.00000  Uiso   1.00
C643   C     0.24998   0.75000   0.74027   0.00000  Uiso   1.00
C644   C     0.25003   0.75000   0.92639   0.00000  Uiso   1.00
C645   C     0.25000   0.52730   0.83333   0.00000  Uiso   1.00
C646   C     0.25000   0.97265   0.83333   0.00000  Uiso   1.00
C647   C     0.25000   0.74999   0.68854   0.00000  Uiso   1.00
C648   C     0.25000   0.74999   0.97812   0.00000  Uiso   1.00
C649   C     0.04702   0.78498   0.81798   0.00000  Uiso   1.00
C650   C     0.45094   0.70665   0.80859   0.00000  Uiso   1.00
C651   C     0.45298   0.78499   0.84867   0.00000  Uiso   1.00
C652   C     0.33469   0.74994   0.82911   0.00000  Uiso   1.00
C653   C     0.04906   0.70668   0.85814   0.00000  Uiso   1.00
C654   C     0.09161   0.79010   0.83084   0.00000  Uiso   1.00
C655   C     0.40472   0.70772   0.80766   0.00000  Uiso   1.00
C656   C     0.40839   0.79010   0.83580   0.00000  Uiso   1.00
C657   C     0.09528   0.70774   0.85906   0.00000  Uiso   1.00
C658   C     0.11716   0.74938   0.84324   0.00000  Uiso   1.00
C659   C     0.38285   0.74937   0.82343   0.00000  Uiso   1.00
C660   C     0.02447   0.74436   0.83471   0.00000  Uiso   1.00
C661   C     0.47553   0.74435   0.83198   0.00000  Uiso   1.00
C662   C     0.27042   0.60390   0.87175   0.00000  Uiso   1.00
C663   C     0.22019   0.89604   0.80327   0.00000  Uiso   1.00
C664   C     0.22958   0.60390   0.79492   0.00000  Uiso   1.00
C665   C     0.27981   0.89604   0.86339   0.00000  Uiso   1.00
C666   C     0.26427   0.55412   0.87578   0.00000  Uiso   1.00
C667   C     0.21546   0.94585   0.80894   0.00000  Uiso   1.00
C668   C     0.23573   0.55412   0.79088   0.00000  Uiso   1.00
Cu669  Cu    0.25000   0.79821   0.83333   0.00000  Uiso   1.00
Cu670  Cu    0.25000   0.70178   0.83333   0.00000  Uiso   1.00
H671   H     0.49978   0.80907   0.77345   0.00000  Uiso   1.00
H672   H     0.00096   0.67692   0.77867   0.00000  Uiso   1.00
H673   H     0.00021   0.80912   0.89318   0.00000  Uiso   1.00
H674   H     0.49909   0.67703   0.88818   0.00000  Uiso   1.00
H675   H     0.25484   0.50429   0.92356   0.00000  Uiso   1.00
H676   H     0.17123   0.99570   0.80911   0.00000  Uiso   1.00
H677   H     0.24516   0.50429   0.74311   0.00000  Uiso   1.00
H678   H     0.32877   0.99570   0.85756   0.00000  Uiso   1.00
I679   I     0.31645   0.63430   0.92531   0.00000  Uiso   1.00
I680   I     0.18108   0.86511   0.74343   0.00000  Uiso   1.00
I681   I     0.18355   0.63431   0.74136   0.00000  Uiso   1.00
I682   I     0.31893   0.86510   0.92323   0.00000  Uiso   1.00
I683   I     0.11207   0.86122   0.84895   0.00000  Uiso   1.00
I684   I     0.37081   0.64820   0.77304   0.00000  Uiso   1.00
I685   I     0.38791   0.86122   0.81768   0.00000  Uiso   1.00
I686   I     0.12920   0.64824   0.89369   0.00000  Uiso   1.00
N687   N     0.25000   0.62934   0.83333   0.00000  Uiso   1.00
N688   N     0.25000   0.87066   0.83333   0.00000  Uiso   1.00
O689   O     0.18573   0.79072   0.83334   0.00000  Uiso   1.00
O690   O     0.47063   0.66825   0.78658   0.00000  Uiso   1.00
O691   O     0.47400   0.82205   0.87420   0.00000  Uiso   1.00
O692   O     0.02937   0.66831   0.88020   0.00000  Uiso   1.00
O693   O     0.27331   0.53329   0.92137   0.00000  Uiso   1.00
O694   O     0.17707   0.96673   0.78956   0.00000  Uiso   1.00
O695   O     0.22669   0.53330   0.74530   0.00000  Uiso   1.00
O696   O     0.32293   0.96673   0.87710   0.00000  Uiso   1.00
O697   O     0.31427   0.70928   0.83333   0.00000  Uiso   1.00
O698   O     0.31427   0.79071   0.83333   0.00000  Uiso   1.00
O699   O     0.18573   0.70928   0.83334   0.00000  Uiso   1.00
O700   O     0.25000   0.79071   0.76280   0.00000  Uiso   1.00
O701   O     0.25000   0.70929   0.90387   0.00000  Uiso   1.00
O702   O     0.25000   0.79071   0.90387   0.00000  Uiso   1.00
O703   O     0.25000   0.70929   0.76280   0.00000  Uiso   1.00
O704   O     0.02599   0.82201   0.79241   0.00000  Uiso   1.00
C705   C     0.66531   0.74994   0.83756   0.00000  Uiso   1.00
C706   C     0.78454   0.94585   0.85773   0.00000  Uiso   1.00
C707   C     0.74998   0.75000   0.74027   0.00000  Uiso   1.00
C708   C     0.75003   0.75000   0.92639   0.00000  Uiso   1.00
C709   C     0.75000   0.52730   0.83333   0.00000  Uiso   1.00
C710   C     0.75000   0.97265   0.83333   0.00000  Uiso   1.00
C711   C     0.75000   0.74999   0.68854   0.00000  Uiso   1.00
C712   C     0.75000   0.74999   0.97812   0.00000  Uiso   1.00
C713   C     0.54702   0.78498   0.81798   0.00000  Uiso   1.00
C714   C     0.95094   0.70665   0.80859   0.00000  Uiso   1.00
C715   C     0.95298   0.78499   0.84867   0.00000  Uiso   1.00
C716   C     0.83469   0.74994   0.82911   0.00000  Uiso   1.00
C717   C     0.54906   0.70668   0.85814   0.00000  Uiso   1.00
C718   C     0.59161   0.79010   0.83084   0.00000  Uiso   1.00
C719   C     0.90472   0.70772   0.80766   0.00000  Uiso   1.00
C720   C     0.90839   0.79010   0.83580   0.00000  Uiso   1.00
C721   C     0.59528   0.70774   0.85906   0.00000  Uiso   1.00
C722   C     0.61716   0.74938   0.84324   0.00000  Uiso   1.00
C723   C     0.88285   0.74937   0.82343   0.00000  Uiso   1.00
C724   C     0.52447   0.74436   0.83471   0.00000  Uiso   1.00
C725   C     0.97553   0.74435   0.83198   0.00000  Uiso   1.00
C726   C     0.77042   0.60390   0.87175   0.00000  Uiso   1.00
C727   C     0.72019   0.89604   0.80327   0.00000  Uiso   1.00
C728   C     0.72958   0.60390   0.79492   0.00000  Uiso   1.00
C729   C     0.77981   0.89604   0.86339   0.00000  Uiso   1.00
C730   C     0.76427   0.55412   0.87578   0.00000  Uiso   1.00
C731   C     0.71546   0.94585   0.80894   0.00000  Uiso   1.00
C732   C     0.73573   0.55412   0.79088   0.00000  Uiso   1.00
Cu733  Cu    0.75000   0.79821   0.83333   0.00000  Uiso   1.00
Cu734  Cu    0.75000   0.70178   0.83333   0.00000  Uiso   1.00
H735   H     0.99978   0.80907   0.77345   0.00000  Uiso   1.00
H736   H     0.50096   0.67692   0.77867   0.00000  Uiso   1.00
H737   H     0.50021   0.80912   0.89318   0.00000  Uiso   1.00
H738   H     0.99909   0.67703   0.88818   0.00000  Uiso   1.00
H739   H     0.75484   0.50429   0.92356   0.00000  Uiso   1.00
H740   H     0.67123   0.99570   0.80911   0.00000  Uiso   1.00
H741   H     0.74516   0.50429   0.74311   0.00000  Uiso   1.00
H742   H     0.82877   0.99570   0.85756   0.00000  Uiso   1.00
I743   I     0.81645   0.63430   0.92531   0.00000  Uiso   1.00
I744   I     0.68108   0.86511   0.74343   0.00000  Uiso   1.00
I745   I     0.68355   0.63431   0.74136   0.00000  Uiso   1.00
I746   I     0.81893   0.86510   0.92323   0.00000  Uiso   1.00
I747   I     0.61207   0.86122   0.84895   0.00000  Uiso   1.00
I748   I     0.87081   0.64820   0.77304   0.00000  Uiso   1.00
I749   I     0.88791   0.86122   0.81768   0.00000  Uiso   1.00
I750   I     0.62920   0.64824   0.89369   0.00000  Uiso   1.00
N751   N     0.75000   0.62934   0.83333   0.00000  Uiso   1.00
N752   N     0.75000   0.87066   0.83333   0.00000  Uiso   1.00
O753   O     0.68573   0.79072   0.83334   0.00000  Uiso   1.00
O754   O     0.97063   0.66825   0.78658   0.00000  Uiso   1.00
O755   O     0.97400   0.82205   0.87420   0.00000  Uiso   1.00
O756   O     0.52937   0.66831   0.88020   0.00000  Uiso   1.00
O757   O     0.77331   0.53329   0.92137   0.00000  Uiso   1.00
O758   O     0.67707   0.96673   0.78956   0.00000  Uiso   1.00
O759   O     0.72669   0.53330   0.74530   0.00000  Uiso   1.00
O760   O     0.82293   0.96673   0.87710   0.00000  Uiso   1.00
O761   O     0.81427   0.70928   0.83333   0.00000  Uiso   1.00
O762   O     0.81427   0.79071   0.83333   0.00000  Uiso   1.00
O763   O     0.68573   0.70928   0.83334   0.00000  Uiso   1.00
O764   O     0.75000   0.79071   0.76280   0.00000  Uiso   1.00
O765   O     0.75000   0.70929   0.90387   0.00000  Uiso   1.00
O766   O     0.75000   0.79071   0.90387   0.00000  Uiso   1.00
O767   O     0.75000   0.70929   0.76280   0.00000  Uiso   1.00
O768   O     0.52599   0.82201   0.79241   0.00000  Uiso   1.00
loop_
_geom_bond_atom_site_label_1
_geom_bond_atom_site_label_2
_geom_bond_distance
_geom_bond_site_symmetry_2
_ccdc_geom_bond_type
C1     C18     1.481   .     S
C1     O59     1.304   .     A
C1     O49     1.307   .     A
C2     C6      1.421   .     A
C2     C25     1.410   .     A
C2     O56     1.380   .     S
C3     O63     1.292   .     A
C3     O60     1.292   .     A
C3     C7      1.404   .     S
C4     C8      1.404   .     S
C4     O62     1.292   .     A
C4     O61     1.292   .     A
C5     C28     1.421   .     A
C5     C26     1.421   .     A
C5     C134    1.528   1_545 S
C6     C27     1.421   .     A
C6     C133    1.528   .     S
C7     C520    1.188   1_554 S
C8     C263    1.188   .     S
C9     C14     1.386   .     A
C9     O64     1.382   .     S
C9     C20     1.416   .     A
C10    C21     1.420   .     A
C10    C15     1.404   .     A
C10    O50     1.383   .     S
C11    C16     1.386   .     A
C11    O51     1.382   .     S
C11    C21     1.416   .     A
C12    O58     1.307   .     A
C12    C19     1.481   .     S
C12    O57     1.304   .     A
C13    C17     1.404   .     A
C13    O52     1.383   .     S
C13    C20     1.420   .     A
C14    C18     1.408   .     A
C14    I43     2.132   .     S
C15    C19     1.420   .     A
C15    I44     2.144   .     S
C16    I45     2.132   .     S
C16    C19     1.408   .     A
C17    C18     1.420   .     A
C17    I46     2.144   .     S
C20    C85     1.485   1_455 S
C21    C84     1.485   .     S
C22    I39     2.132   .     S
C22    N47     1.379   .     A
C22    C26     1.410   .     A
C23    C27     1.410   .     A
C23    N48     1.379   .     A
C23    I40     2.137   .     S
C24    C28     1.409   .     A
C24    I41     2.132   .     S
C24    N47     1.379   .     A
C25    I42     2.137   .     S
C25    N48     1.379   .     A
C26    O53     1.380   .     S
C27    O54     1.380   .     S
C28    O55     1.380   .     S
Cu29   Cu30    2.696   .     S
Cu29   O60     1.926   .     S
Cu29   O49     1.965   .     S
Cu29   O58     1.965   .     S
Cu29   O62     1.926   .     S
Cu29   N48     2.026   .     S
Cu30   O63     1.926   .     S
Cu30   O61     1.926   .     S
Cu30   O57     1.965   .     S
Cu30   N47     2.026   .     S
Cu30   O59     1.965   .     S
H31    O128    0.990   .     S
H32    O114    0.989   1_455 S
H33    O115    0.990   1_455 S
H34    O116    0.989   .     S
H35    O53     0.990   .     S
H36    O54     0.990   .     S
H37    O55     0.990   .     S
H38    O56     0.990   .     S
O50    H96     0.989   .     S
O51    H97     0.990   .     S
O52    H98     0.989   1_455 S
O64    H95     0.990   1_455 S
C65    C82     1.481   .     S
C65    O123    1.304   .     A
C65    O113    1.307   .     A
C66    C70     1.421   .     A
C66    C89     1.410   .     A
C66    O120    1.380   .     S
C67    O127    1.292   .     A
C67    O124    1.292   .     A
C67    C71     1.404   .     S
C68    C72     1.404   .     S
C68    O126    1.292   .     A
C68    O125    1.292   .     A
C69    C92     1.421   .     A
C69    C90     1.421   .     A
C69    C198    1.528   1_545 S
C70    C91     1.421   .     A
C70    C197    1.528   .     S
C71    C584    1.188   1_554 S
C72    C327    1.188   .     S
C73    C78     1.386   .     A
C73    O128    1.382   .     S
C73    C84     1.416   .     A
C74    C85     1.420   .     A
C74    C79     1.404   .     A
C74    O114    1.383   .     S
C75    C80     1.386   .     A
C75    O115    1.382   .     S
C75    C85     1.416   .     A
C76    O122    1.307   .     A
C76    C83     1.481   .     S
C76    O121    1.304   .     A
C77    C81     1.404   .     A
C77    O116    1.383   .     S
C77    C84     1.420   .     A
C78    C82     1.408   .     A
C78    I107    2.132   .     S
C79    C83     1.420   .     A
C79    I108    2.144   .     S
C80    I109    2.132   .     S
C80    C83     1.408   .     A
C81    C82     1.420   .     A
C81    I110    2.144   .     S
C85    C20     1.485   1_655 S
C86    I103    2.132   .     S
C86    N111    1.379   .     A
C86    C90     1.410   .     A
C87    C91     1.410   .     A
C87    N112    1.379   .     A
C87    I104    2.137   .     S
C88    C92     1.409   .     A
C88    I105    2.132   .     S
C88    N111    1.379   .     A
C89    I106    2.137   .     S
C89    N112    1.379   .     A
C90    O117    1.380   .     S
C91    O118    1.380   .     S
C92    O119    1.380   .     S
Cu93   Cu94    2.696   .     S
Cu93   O124    1.926   .     S
Cu93   O113    1.965   .     S
Cu93   O122    1.965   .     S
Cu93   O126    1.926   .     S
Cu93   N112    2.026   .     S
Cu94   O127    1.926   .     S
Cu94   O125    1.926   .     S
Cu94   O121    1.965   .     S
Cu94   N111    2.026   .     S
Cu94   O123    1.965   .     S
H95    O64     0.990   1_655 S
H98    O52     0.989   1_655 S
H99    O117    0.990   .     S
H100   O118    0.990   .     S
H101   O119    0.990   .     S
H102   O120    0.990   .     S
O114   H32     0.989   1_655 S
O115   H33     0.990   1_655 S
C129   C146    1.481   .     S
C129   O187    1.304   .     A
C129   O177    1.307   .     A
C130   C134    1.421   .     A
C130   C153    1.410   .     A
C130   O184    1.380   .     S
C131   O191    1.292   .     A
C131   O188    1.292   .     A
C131   C135    1.404   .     S
C132   C136    1.404   .     S
C132   O190    1.292   .     A
C132   O189    1.292   .     A
C133   C156    1.421   .     A
C133   C154    1.421   .     A
C134   C155    1.421   .     A
C134   C5      1.528   1_565 S
C135   C648    1.188   1_554 S
C136   C391    1.188   .     S
C137   C142    1.386   .     A
C137   O192    1.382   .     S
C137   C148    1.416   .     A
C138   C149    1.420   .     A
C138   C143    1.404   .     A
C138   O178    1.383   .     S
C139   C144    1.386   .     A
C139   O179    1.382   .     S
C139   C149    1.416   .     A
C140   O186    1.307   .     A
C140   C147    1.481   .     S
C140   O185    1.304   .     A
C141   C145    1.404   .     A
C141   O180    1.383   .     S
C141   C148    1.420   .     A
C142   C146    1.408   .     A
C142   I171    2.132   .     S
C143   C147    1.420   .     A
C143   I172    2.144   .     S
C144   I173    2.132   .     S
C144   C147    1.408   .     A
C145   C146    1.420   .     A
C145   I174    2.144   .     S
C148   C213    1.485   1_455 S
C149   C212    1.485   .     S
C150   I167    2.132   .     S
C150   N175    1.379   .     A
C150   C154    1.410   .     A
C151   C155    1.410   .     A
C151   N176    1.379   .     A
C151   I168    2.137   .     S
C152   C156    1.409   .     A
C152   I169    2.132   .     S
C152   N175    1.379   .     A
C153   I170    2.137   .     S
C153   N176    1.379   .     A
C154   O181    1.380   .     S
C155   O182    1.380   .     S
C156   O183    1.380   .     S
Cu157  Cu158   2.696   .     S
Cu157  O188    1.926   .     S
Cu157  O177    1.965   .     S
Cu157  O186    1.965   .     S
Cu157  O190    1.926   .     S
Cu157  N176    2.026   .     S
Cu158  O191    1.926   .     S
Cu158  O189    1.926   .     S
Cu158  O185    1.965   .     S
Cu158  N175    2.026   .     S
Cu158  O187    1.965   .     S
H159   O256    0.990   .     S
H160   O242    0.989   1_455 S
H161   O243    0.990   1_455 S
H162   O244    0.989   .     S
H163   O181    0.990   .     S
H164   O182    0.990   .     S
H165   O183    0.990   .     S
H166   O184    0.990   .     S
O178   H224    0.989   .     S
O179   H225    0.990   .     S
O180   H226    0.989   1_455 S
O192   H223    0.990   1_455 S
C193   C210    1.481   .     S
C193   O251    1.304   .     A
C193   O241    1.307   .     A
C194   C198    1.421   .     A
C194   C217    1.410   .     A
C194   O248    1.380   .     S
C195   O255    1.292   .     A
C195   O252    1.292   .     A
C195   C199    1.404   .     S
C196   C200    1.404   .     S
C196   O254    1.292   .     A
C196   O253    1.292   .     A
C197   C220    1.421   .     A
C197   C218    1.421   .     A
C198   C219    1.421   .     A
C198   C69     1.528   1_565 S
C199   C712    1.188   1_554 S
C200   C455    1.188   .     S
C201   C206    1.386   .     A
C201   O256    1.382   .     S
C201   C212    1.416   .     A
C202   C213    1.420   .     A
C202   C207    1.404   .     A
C202   O242    1.383   .     S
C203   C208    1.386   .     A
C203   O243    1.382   .     S
C203   C213    1.416   .     A
C204   O250    1.307   .     A
C204   C211    1.481   .     S
C204   O249    1.304   .     A
C205   C209    1.404   .     A
C205   O244    1.383   .     S
C205   C212    1.420   .     A
C206   C210    1.408   .     A
C206   I235    2.132   .     S
C207   C211    1.420   .     A
C207   I236    2.144   .     S
C208   I237    2.132   .     S
C208   C211    1.408   .     A
C209   C210    1.420   .     A
C209   I238    2.144   .     S
C213   C148    1.485   1_655 S
C214   I231    2.132   .     S
C214   N239    1.379   .     A
C214   C218    1.410   .     A
C215   C219    1.410   .     A
C215   N240    1.379   .     A
C215   I232    2.137   .     S
C216   C220    1.409   .     A
C216   I233    2.132   .     S
C216   N239    1.379   .     A
C217   I234    2.137   .     S
C217   N240    1.379   .     A
C218   O245    1.380   .     S
C219   O246    1.380   .     S
C220   O247    1.380   .     S
Cu221  Cu222   2.696   .     S
Cu221  O252    1.926   .     S
Cu221  O241    1.965   .     S
Cu221  O250    1.965   .     S
Cu221  O254    1.926   .     S
Cu221  N240    2.026   .     S
Cu222  O255    1.926   .     S
Cu222  O253    1.926   .     S
Cu222  O249    1.965   .     S
Cu222  N239    2.026   .     S
Cu222  O251    1.965   .     S
H223   O192    0.990   1_655 S
H226   O180    0.989   1_655 S
H227   O245    0.990   .     S
H228   O246    0.990   .     S
H229   O247    0.990   .     S
H230   O248    0.990   .     S
O242   H160    0.989   1_655 S
O243   H161    0.990   1_655 S
C257   C274    1.481   .     S
C257   O315    1.304   .     A
C257   O305    1.307   .     A
C258   C262    1.421   .     A
C258   C281    1.410   .     A
C258   O312    1.380   .     S
C259   O319    1.292   .     A
C259   O316    1.292   .     A
C259   C263    1.404   .     S
C260   C264    1.404   .     S
C260   O318    1.292   .     A
C260   O317    1.292   .     A
C261   C284    1.421   .     A
C261   C282    1.421   .     A
C261   C390    1.528   1_545 S
C262   C283    1.421   .     A
C262   C389    1.528   .     S
C264   C519    1.188   .     S
C265   C270    1.386   .     A
C265   O320    1.382   .     S
C265   C276    1.416   .     A
C266   C277    1.420   .     A
C266   C271    1.404   .     A
C266   O306    1.383   .     S
C267   C272    1.386   .     A
C267   O307    1.382   .     S
C267   C277    1.416   .     A
C268   O314    1.307   .     A
C268   C275    1.481   .     S
C268   O313    1.304   .     A
C269   C273    1.404   .     A
C269   O308    1.383   .     S
C269   C276    1.420   .     A
C270   C274    1.408   .     A
C270   I299    2.132   .     S
C271   C275    1.420   .     A
C271   I300    2.144   .     S
C272   I301    2.132   .     S
C272   C275    1.408   .     A
C273   C274    1.420   .     A
C273   I302    2.144   .     S
C276   C341    1.485   1_455 S
C277   C340    1.485   .     S
C278   I295    2.132   .     S
C278   N303    1.379   .     A
C278   C282    1.410   .     A
C279   C283    1.410   .     A
C279   N304    1.379   .     A
C279   I296    2.137   .     S
C280   C284    1.409   .     A
C280   I297    2.132   .     S
C280   N303    1.379   .     A
C281   I298    2.137   .     S
C281   N304    1.379   .     A
C282   O309    1.380   .     S
C283   O310    1.380   .     S
C284   O311    1.380   .     S
Cu285  Cu286   2.696   .     S
Cu285  O316    1.926   .     S
Cu285  O305    1.965   .     S
Cu285  O314    1.965   .     S
Cu285  O318    1.926   .     S
Cu285  N304    2.026   .     S
Cu286  O319    1.926   .     S
Cu286  O317    1.926   .     S
Cu286  O313    1.965   .     S
Cu286  N303    2.026   .     S
Cu286  O315    1.965   .     S
H287   O384    0.990   .     S
H288   O370    0.989   1_455 S
H289   O371    0.990   1_455 S
H290   O372    0.989   .     S
H291   O309    0.990   .     S
H292   O310    0.990   .     S
H293   O311    0.990   .     S
H294   O312    0.990   .     S
O306   H352    0.989   .     S
O307   H353    0.990   .     S
O308   H354    0.989   1_455 S
O320   H351    0.990   1_455 S
C321   C338    1.481   .     S
C321   O379    1.304   .     A
C321   O369    1.307   .     A
C322   C326    1.421   .     A
C322   C345    1.410   .     A
C322   O376    1.380   .     S
C323   O383    1.292   .     A
C323   O380    1.292   .     A
C323   C327    1.404   .     S
C324   C328    1.404   .     S
C324   O382    1.292   .     A
C324   O381    1.292   .     A
C325   C348    1.421   .     A
C325   C346    1.421   .     A
C325   C454    1.528   1_545 S
C326   C347    1.421   .     A
C326   C453    1.528   .     S
C328   C583    1.188   .     S
C329   C334    1.386   .     A
C329   O384    1.382   .     S
C329   C340    1.416   .     A
C330   C341    1.420   .     A
C330   C335    1.404   .     A
C330   O370    1.383   .     S
C331   C336    1.386   .     A
C331   O371    1.382   .     S
C331   C341    1.416   .     A
C332   O378    1.307   .     A
C332   C339    1.481   .     S
C332   O377    1.304   .     A
C333   C337    1.404   .     A
C333   O372    1.383   .     S
C333   C340    1.420   .     A
C334   C338    1.408   .     A
C334   I363    2.132   .     S
C335   C339    1.420   .     A
C335   I364    2.144   .     S
C336   I365    2.132   .     S
C336   C339    1.408   .     A
C337   C338    1.420   .     A
C337   I366    2.144   .     S
C341   C276    1.485   1_655 S
C342   I359    2.132   .     S
C342   N367    1.379   .     A
C342   C346    1.410   .     A
C343   C347    1.410   .     A
C343   N368    1.379   .     A
C343   I360    2.137   .     S
C344   C348    1.409   .     A
C344   I361    2.132   .     S
C344   N367    1.379   .     A
C345   I362    2.137   .     S
C345   N368    1.379   .     A
C346   O373    1.380   .     S
C347   O374    1.380   .     S
C348   O375    1.380   .     S
Cu349  Cu350   2.696   .     S
Cu349  O380    1.926   .     S
Cu349  O369    1.965   .     S
Cu349  O378    1.965   .     S
Cu349  O382    1.926   .     S
Cu349  N368    2.026   .     S
Cu350  O383    1.926   .     S
Cu350  O381    1.926   .     S
Cu350  O377    1.965   .     S
Cu350  N367    2.026   .     S
Cu350  O379    1.965   .     S
H351   O320    0.990   1_655 S
H354   O308    0.989   1_655 S
H355   O373    0.990   .     S
H356   O374    0.990   .     S
H357   O375    0.990   .     S
H358   O376    0.990   .     S
O370   H288    0.989   1_655 S
O371   H289    0.990   1_655 S
C385   C402    1.481   .     S
C385   O443    1.304   .     A
C385   O433    1.307   .     A
C386   C390    1.421   .     A
C386   C409    1.410   .     A
C386   O440    1.380   .     S
C387   O447    1.292   .     A
C387   O444    1.292   .     A
C387   C391    1.404   .     S
C388   C392    1.404   .     S
C388   O446    1.292   .     A
C388   O445    1.292   .     A
C389   C412    1.421   .     A
C389   C410    1.421   .     A
C390   C411    1.421   .     A
C390   C261    1.528   1_565 S
C392   C647    1.188   .     S
C393   C398    1.386   .     A
C393   O448    1.382   .     S
C393   C404    1.416   .     A
C394   C405    1.420   .     A
C394   C399    1.404   .     A
C394   O434    1.383   .     S
C395   C400    1.386   .     A
C395   O435    1.382   .     S
C395   C405    1.416   .     A
C396   O442    1.307   .     A
C396   C403    1.481   .     S
C396   O441    1.304   .     A
C397   C401    1.404   .     A
C397   O436    1.383   .     S
C397   C404    1.420   .     A
C398   C402    1.408   .     A
C398   I427    2.132   .     S
C399   C403    1.420   .     A
C399   I428    2.144   .     S
C400   I429    2.132   .     S
C400   C403    1.408   .     A
C401   C402    1.420   .     A
C401   I430    2.144   .     S
C404   C469    1.485   1_455 S
C405   C468    1.485   .     S
C406   I423    2.132   .     S
C406   N431    1.379   .     A
C406   C410    1.410   .     A
C407   C411    1.410   .     A
C407   N432    1.379   .     A
C407   I424    2.137   .     S
C408   C412    1.409   .     A
C408   I425    2.132   .     S
C408   N431    1.379   .     A
C409   I426    2.137   .     S
C409   N432    1.379   .     A
C410   O437    1.380   .     S
C411   O438    1.380   .     S
C412   O439    1.380   .     S
Cu413  Cu414   2.696   .     S
Cu413  O444    1.926   .     S
Cu413  O433    1.965   .     S
Cu413  O442    1.965   .     S
Cu413  O446    1.926   .     S
Cu413  N432    2.026   .     S
Cu414  O447    1.926   .     S
Cu414  O445    1.926   .     S
Cu414  O441    1.965   .     S
Cu414  N431    2.026   .     S
Cu414  O443    1.965   .     S
H415   O512    0.990   .     S
H416   O498    0.989   1_455 S
H417   O499    0.990   1_455 S
H418   O500    0.989   .     S
H419   O437    0.990   .     S
H420   O438    0.990   .     S
H421   O439    0.990   .     S
H422   O440    0.990   .     S
O434   H480    0.989   .     S
O435   H481    0.990   .     S
O436   H482    0.989   1_455 S
O448   H479    0.990   1_455 S
C449   C466    1.481   .     S
C449   O507    1.304   .     A
C449   O497    1.307   .     A
C450   C454    1.421   .     A
C450   C473    1.410   .     A
C450   O504    1.380   .     S
C451   O511    1.292   .     A
C451   O508    1.292   .     A
C451   C455    1.404   .     S
C452   C456    1.404   .     S
C452   O510    1.292   .     A
C452   O509    1.292   .     A
C453   C476    1.421   .     A
C453   C474    1.421   .     A
C454   C475    1.421   .     A
C454   C325    1.528   1_565 S
C456   C711    1.188   .     S
C457   C462    1.386   .     A
C457   O512    1.382   .     S
C457   C468    1.416   .     A
C458   C469    1.420   .     A
C458   C463    1.404   .     A
C458   O498    1.383   .     S
C459   C464    1.386   .     A
C459   O499    1.382   .     S
C459   C469    1.416   .     A
C460   O506    1.307   .     A
C460   C467    1.481   .     S
C460   O505    1.304   .     A
C461   C465    1.404   .     A
C461   O500    1.383   .     S
C461   C468    1.420   .     A
C462   C466    1.408   .     A
C462   I491    2.132   .     S
C463   C467    1.420   .     A
C463   I492    2.144   .     S
C464   I493    2.132   .     S
C464   C467    1.408   .     A
C465   C466    1.420   .     A
C465   I494    2.144   .     S
C469   C404    1.485   1_655 S
C470   I487    2.132   .     S
C470   N495    1.379   .     A
C470   C474    1.410   .     A
C471   C475    1.410   .     A
C471   N496    1.379   .     A
C471   I488    2.137   .     S
C472   C476    1.409   .     A
C472   I489    2.132   .     S
C472   N495    1.379   .     A
C473   I490    2.137   .     S
C473   N496    1.379   .     A
C474   O501    1.380   .     S
C475   O502    1.380   .     S
C476   O503    1.380   .     S
Cu477  Cu478   2.696   .     S
Cu477  O508    1.926   .     S
Cu477  O497    1.965   .     S
Cu477  O506    1.965   .     S
Cu477  O510    1.926   .     S
Cu477  N496    2.026   .     S
Cu478  O511    1.926   .     S
Cu478  O509    1.926   .     S
Cu478  O505    1.965   .     S
Cu478  N495    2.026   .     S
Cu478  O507    1.965   .     S
H479   O448    0.990   1_655 S
H482   O436    0.989   1_655 S
H483   O501    0.990   .     S
H484   O502    0.990   .     S
H485   O503    0.990   .     S
H486   O504    0.990   .     S
O498   H416    0.989   1_655 S
O499   H417    0.990   1_655 S
C513   C530    1.481   .     S
C513   O571    1.304   .     A
C513   O561    1.307   .     A
C514   C518    1.421   .     A
C514   C537    1.410   .     A
C514   O568    1.380   .     S
C515   O575    1.292   .     A
C515   O572    1.292   .     A
C515   C519    1.404   .     S
C516   C520    1.404   .     S
C516   O574    1.292   .     A
C516   O573    1.292   .     A
C517   C540    1.421   .     A
C517   C538    1.421   .     A
C517   C646    1.528   1_545 S
C518   C539    1.421   .     A
C518   C645    1.528   .     S
C520   C7      1.188   1_556 S
C521   C526    1.386   .     A
C521   O576    1.382   .     S
C521   C532    1.416   .     A
C522   C533    1.420   .     A
C522   C527    1.404   .     A
C522   O562    1.383   .     S
C523   C528    1.386   .     A
C523   O563    1.382   .     S
C523   C533    1.416   .     A
C524   O570    1.307   .     A
C524   C531    1.481   .     S
C524   O569    1.304   .     A
C525   C529    1.404   .     A
C525   O564    1.383   .     S
C525   C532    1.420   .     A
C526   C530    1.408   .     A
C526   I555    2.132   .     S
C527   C531    1.420   .     A
C527   I556    2.144   .     S
C528   I557    2.132   .     S
C528   C531    1.408   .     A
C529   C530    1.420   .     A
C529   I558    2.144   .     S
C532   C597    1.485   1_455 S
C533   C596    1.485   .     S
C534   I551    2.132   .     S
C534   N559    1.379   .     A
C534   C538    1.410   .     A
C535   C539    1.410   .     A
C535   N560    1.379   .     A
C535   I552    2.137   .     S
C536   C540    1.409   .     A
C536   I553    2.132   .     S
C536   N559    1.379   .     A
C537   I554    2.137   .     S
C537   N560    1.379   .     A
C538   O565    1.380   .     S
C539   O566    1.380   .     S
C540   O567    1.380   .     S
Cu541  Cu542   2.696   .     S
Cu541  O572    1.926   .     S
Cu541  O561    1.965   .     S
Cu541  O570    1.965   .     S
Cu541  O574    1.926   .     S
Cu541  N560    2.026   .     S
Cu542  O575    1.926   .     S
Cu542  O573    1.926   .     S
Cu542  O569    1.965   .     S
Cu542  N559    2.026   .     S
Cu542  O571    1.965   .     S
H543   O640    0.990   .     S
H544   O626    0.989   1_455 S
H545   O627    0.990   1_455 S
H546   O628    0.989   .     S
H547   O565    0.990   .     S
H548   O566    0.990   .     S
H549   O567    0.990   .     S
H550   O568    0.990   .     S
O562   H608    0.989   .     S
O563   H609    0.990   .     S
O564   H610    0.989   1_455 S
O576   H607    0.990   1_455 S
C577   C594    1.481   .     S
C577   O635    1.304   .     A
C577   O625    1.307   .     A
C578   C582    1.421   .     A
C578   C601    1.410   .     A
C578   O632    1.380   .     S
C579   O639    1.292   .     A
C579   O636    1.292   .     A
C579   C583    1.404   .     S
C580   C584    1.404   .     S
C580   O638    1.292   .     A
C580   O637    1.292   .     A
C581   C604    1.421   .     A
C581   C602    1.421   .     A
C581   C710    1.528   1_545 S
C582   C603    1.421   .     A
C582   C709    1.528   .     S
C584   C71     1.188   1_556 S
C585   C590    1.386   .     A
C585   O640    1.382   .     S
C585   C596    1.416   .     A
C586   C597    1.420   .     A
C586   C591    1.404   .     A
C586   O626    1.383   .     S
C587   C592    1.386   .     A
C587   O627    1.382   .     S
C587   C597    1.416   .     A
C588   O634    1.307   .     A
C588   C595    1.481   .     S
C588   O633    1.304   .     A
C589   C593    1.404   .     A
C589   O628    1.383   .     S
C589   C596    1.420   .     A
C590   C594    1.408   .     A
C590   I619    2.132   .     S
C591   C595    1.420   .     A
C591   I620    2.144   .     S
C592   I621    2.132   .     S
C592   C595    1.408   .     A
C593   C594    1.420   .     A
C593   I622    2.144   .     S
C597   C532    1.485   1_655 S
C598   I615    2.132   .     S
C598   N623    1.379   .     A
C598   C602    1.410   .     A
C599   C603    1.410   .     A
C599   N624    1.379   .     A
C599   I616    2.137   .     S
C600   C604    1.409   .     A
C600   I617    2.132   .     S
C600   N623    1.379   .     A
C601   I618    2.137   .     S
C601   N624    1.379   .     A
C602   O629    1.380   .     S
C603   O630    1.380   .     S
C604   O631    1.380   .     S
Cu605  Cu606   2.696   .     S
Cu605  O636    1.926   .     S
Cu605  O625    1.965   .     S
Cu605  O634    1.965   .     S
Cu605  O638    1.926   .     S
Cu605  N624    2.026   .     S
Cu606  O639    1.926   .     S
Cu606  O637    1.926   .     S
Cu606  O633    1.965   .     S
Cu606  N623    2.026   .     S
Cu606  O635    1.965   .     S
H607   O576    0.990   1_655 S
H610   O564    0.989   1_655 S
H611   O629    0.990   .     S
H612   O630    0.990   .     S
H613   O631    0.990   .     S
H614   O632    0.990   .     S
O626   H544    0.989   1_655 S
O627   H545    0.990   1_655 S
C641   C658    1.481   .     S
C641   O699    1.304   .     A
C641   O689    1.307   .     A
C642   C646    1.421   .     A
C642   C665    1.410   .     A
C642   O696    1.380   .     S
C643   O703    1.292   .     A
C643   O700    1.292   .     A
C643   C647    1.404   .     S
C644   C648    1.404   .     S
C644   O702    1.292   .     A
C644   O701    1.292   .     A
C645   C668    1.421   .     A
C645   C666    1.421   .     A
C646   C667    1.421   .     A
C646   C517    1.528   1_565 S
C648   C135    1.188   1_556 S
C649   C654    1.386   .     A
C649   O704    1.382   .     S
C649   C660    1.416   .     A
C650   C661    1.420   .     A
C650   C655    1.404   .     A
C650   O690    1.383   .     S
C651   C656    1.386   .     A
C651   O691    1.382   .     S
C651   C661    1.416   .     A
C652   O698    1.307   .     A
C652   C659    1.481   .     S
C652   O697    1.304   .     A
C653   C657    1.404   .     A
C653   O692    1.383   .     S
C653   C660    1.420   .     A
C654   C658    1.408   .     A
C654   I683    2.132   .     S
C655   C659    1.420   .     A
C655   I684    2.144   .     S
C656   I685    2.132   .     S
C656   C659    1.408   .     A
C657   C658    1.420   .     A
C657   I686    2.144   .     S
C660   C725    1.485   1_455 S
C661   C724    1.485   .     S
C662   I679    2.132   .     S
C662   N687    1.379   .     A
C662   C666    1.410   .     A
C663   C667    1.410   .     A
C663   N688    1.379   .     A
C663   I680    2.137   .     S
C664   C668    1.409   .     A
C664   I681    2.132   .     S
C664   N687    1.379   .     A
C665   I682    2.137   .     S
C665   N688    1.379   .     A
C666   O693    1.380   .     S
C667   O694    1.380   .     S
C668   O695    1.380   .     S
Cu669  Cu670   2.696   .     S
Cu669  O700    1.926   .     S
Cu669  O689    1.965   .     S
Cu669  O698    1.965   .     S
Cu669  O702    1.926   .     S
Cu669  N688    2.026   .     S
Cu670  O703    1.926   .     S
Cu670  O701    1.926   .     S
Cu670  O697    1.965   .     S
Cu670  N687    2.026   .     S
Cu670  O699    1.965   .     S
H671   O768    0.990   .     S
H672   O754    0.989   1_455 S
H673   O755    0.990   1_455 S
H674   O756    0.989   .     S
H675   O693    0.990   .     S
H676   O694    0.990   .     S
H677   O695    0.990   .     S
H678   O696    0.990   .     S
O690   H736    0.989   .     S
O691   H737    0.990   .     S
O692   H738    0.989   1_455 S
O704   H735    0.990   1_455 S
C705   C722    1.481   .     S
C705   O763    1.304   .     A
C705   O753    1.307   .     A
C706   C710    1.421   .     A
C706   C729    1.410   .     A
C706   O760    1.380   .     S
C707   O767    1.292   .     A
C707   O764    1.292   .     A
C707   C711    1.404   .     S
C708   C712    1.404   .     S
C708   O766    1.292   .     A
C708   O765    1.292   .     A
C709   C732    1.421   .     A
C709   C730    1.421   .     A
C710   C731    1.421   .     A
C710   C581    1.528   1_565 S
C712   C199    1.188   1_556 S
C713   C718    1.386   .     A
C713   O768    1.382   .     S
C713   C724    1.416   .     A
C714   C725    1.420   .     A
C714   C719    1.404   .     A
C714   O754    1.383   .     S
C715   C720    1.386   .     A
C715   O755    1.382   .     S
C715   C725    1.416   .     A
C716   O762    1.307   .     A
C716   C723    1.481   .     S
C716   O761    1.304   .     A
C717   C721    1.404   .     A
C717   O756    1.383   .     S
C717   C724    1.420   .     A
C718   C722    1.408   .     A
C718   I747    2.132   .     S
C719   C723    1.420   .     A
C719   I748    2.144   .     S
C720   I749    2.132   .     S
C720   C723    1.408   .     A
C721   C722    1.420   .     A
C721   I750    2.144   .     S
C725   C660    1.485   1_655 S
C726   I743    2.132   .     S
C726   N751    1.379   .     A
C726   C730    1.410   .     A
C727   C731    1.410   .     A
C727   N752    1.379   .     A
C727   I744    2.137   .     S
C728   C732    1.409   .     A
C728   I745    2.132   .     S
C728   N751    1.379   .     A
C729   I746    2.137   .     S
C729   N752    1.379   .     A
C730   O757    1.380   .     S
C731   O758    1.380   .     S
C732   O759    1.380   .     S
Cu733  Cu734   2.696   .     S
Cu733  O764    1.926   .     S
Cu733  O753    1.965   .     S
Cu733  O762    1.965   .     S
Cu733  O766    1.926   .     S
Cu733  N752    2.026   .     S
Cu734  O767    1.926   .     S
Cu734  O765    1.926   .     S
Cu734  O761    1.965   .     S
Cu734  N751    2.026   .     S
Cu734  O763    1.965   .     S
H735   O704    0.990   1_655 S
H738   O692    0.989   1_655 S
H739   O757    0.990   .     S
H740   O758    0.990   .     S
H741   O759    0.990   .     S
H742   O760    0.990   .     S
O754   H672    0.989   1_655 S
O755   H673    0.990   1_655 S
