data_str_m2_o1_o18_pcu_sym.30
_audit_creation_date              2020-01-03
_audit_creation_method            'Materials Studio'
_symmetry_space_group_name_H-M    'P1'
_symmetry_Int_Tables_number       1
_symmetry_cell_setting            triclinic
loop_
_symmetry_equiv_pos_as_xyz
  x,y,z
_cell_length_a                    28.6565
_cell_length_b                    32.4349
_cell_length_c                    30.8959
_cell_angle_alpha                 89.1907
_cell_angle_beta                  74.7891
_cell_angle_gamma                 89.5108
loop_
_atom_site_label
_atom_site_type_symbol
_atom_site_fract_x
_atom_site_fract_y
_atom_site_fract_z
_atom_site_U_iso_or_equiv
_atom_site_adp_type
_atom_site_occupancy
C1     C     0.00006   0.08741   0.25028   0.00000  Uiso   1.00
C2     C     0.04392   0.02117   0.23730   0.00000  Uiso   1.00
C3     C     0.33321   0.29057   0.25062   0.00000  Uiso   1.00
C4     C     0.00013   0.04279   0.25080   0.00000  Uiso   1.00
C5     C     0.18407   0.14119   0.27816   0.00000  Uiso   1.00
C6     C     0.14949   0.19172   0.22140   0.00000  Uiso   1.00
C7     C     0.13413   0.14127   0.27883   0.00000  Uiso   1.00
C8     C     0.19904   0.19227   0.22163   0.00000  Uiso   1.00
C9     C     0.30612   0.16674   0.33612   0.00000  Uiso   1.00
C10    C     0.02718   0.16716   0.16390   0.00000  Uiso   1.00
C11    C     0.29090   0.16622   0.38543   0.00000  Uiso   1.00
C12    C     0.33320   0.24593   0.25018   0.00000  Uiso   1.00
C13    C     0.04243   0.17105   0.11477   0.00000  Uiso   1.00
C14    C     0.30794   0.15497   0.45721   0.00000  Uiso   1.00
C15    C     0.02764   0.19351   0.04466   0.00000  Uiso   1.00
C16    C     0.32403   0.15911   0.41081   0.00000  Uiso   1.00
C17    C     0.01066   0.18534   0.09040   0.00000  Uiso   1.00
C18    C     0.24180   0.17145   0.40718   0.00000  Uiso   1.00
C19    C     0.09103   0.16395   0.09267   0.00000  Uiso   1.00
C20    C     0.22487   0.16961   0.45422   0.00000  Uiso   1.00
C21    C     0.10954   0.17323   0.04677   0.00000  Uiso   1.00
C22    C     0.25875   0.15994   0.47906   0.00000  Uiso   1.00
C23    C     0.19482   0.15942   0.04769   0.00000  Uiso   1.00
C24    C     0.07659   0.18742   0.02265   0.00000  Uiso   1.00
C25    C     0.17524   0.17599   0.47705   0.00000  Uiso   1.00
C26    C     0.15964   0.16909   0.02432   0.00000  Uiso   1.00
C27    C     0.10755   0.10701   0.35243   0.00000  Uiso   1.00
C28    C     0.22031   0.26205   0.19588   0.00000  Uiso   1.00
C29    C     0.14096   0.19004   0.45440   0.00000  Uiso   1.00
C30    C     0.24333   0.15521   0.02542   0.00000  Uiso   1.00
C31    C     0.09278   0.19586   0.47693   0.00000  Uiso   1.00
C32    C     0.28962   0.02153   0.26481   0.00000  Uiso   1.00
C33    C     0.04379   0.31183   0.23706   0.00000  Uiso   1.00
C34    C     0.28956   0.31219   0.26507   0.00000  Uiso   1.00
Cu35   Cu    0.04689   0.16667   0.25000   0.00000  Uiso   1.00
Cu36   Cu    0.28645   0.16666   0.25000   0.00000  Uiso   1.00
H37    H     0.30641   0.19117   0.10675   0.00000  Uiso   1.00
H38    H     0.21724   0.17577   0.38650   0.00000  Uiso   1.00
H39    H     0.18650   0.15599   0.08360   0.00000  Uiso   1.00
H40    H     0.15033   0.19827   0.41932   0.00000  Uiso   1.00
H41    H     0.25551   0.03783   0.27607   0.00000  Uiso   1.00
H42    H     0.07792   0.29553   0.22588   0.00000  Uiso   1.00
H43    H     0.19762   0.12049   0.29978   0.00000  Uiso   1.00
H44    H     0.13680   0.21143   0.19829   0.00000  Uiso   1.00
H45    H     0.09842   0.08606   0.29220   0.00000  Uiso   1.00
H46    H     0.13865   0.08613   0.35171   0.00000  Uiso   1.00
H47    H     0.07456   0.09214   0.37373   0.00000  Uiso   1.00
H48    H     0.02877   0.15575   0.39478   0.00000  Uiso   1.00
H49    H     0.11295   0.13687   0.36762   0.00000  Uiso   1.00
H50    H     0.23683   0.20926   0.15847   0.00000  Uiso   1.00
H51    H     0.19008   0.27001   0.18090   0.00000  Uiso   1.00
H52    H     0.25259   0.28012   0.17820   0.00000  Uiso   1.00
H53    H     0.21000   0.27072   0.23177   0.00000  Uiso   1.00
H54    H     0.00064   0.14748   0.47598   0.00000  Uiso   1.00
H55    H     0.00258   0.20536   0.02660   0.00000  Uiso   1.00
H56    H     0.25559   0.29617   0.27719   0.00000  Uiso   1.00
H57    H     0.07810   0.03719   0.22632   0.00000  Uiso   1.00
H58    H     0.26895   0.14786   0.04473   0.00000  Uiso   1.00
H59    H     0.06794   0.20711   0.45829   0.00000  Uiso   1.00
H60    H     0.11361   0.15102   0.11231   0.00000  Uiso   1.00
N61    N     0.11736   0.16668   0.24999   0.00000  Uiso   1.00
N62    N     0.21597   0.16666   0.25001   0.00000  Uiso   1.00
N63    N     0.10174   0.11343   0.30763   0.00000  Uiso   1.00
N64    N     0.23159   0.21850   0.19116   0.00000  Uiso   1.00
O65    O     0.03958   0.10655   0.25000   0.00000  Uiso   1.00
O66    O     0.29375   0.22678   0.25000   0.00000  Uiso   1.00
O67    O     0.29372   0.10654   0.25001   0.00000  Uiso   1.00
O68    O     0.03961   0.22679   0.25000   0.00000  Uiso   1.00
O69    O     0.01852   0.16668   0.31492   0.00000  Uiso   1.00
O70    O     0.31481   0.16666   0.18509   0.00000  Uiso   1.00
O71    O     0.27267   0.16667   0.31492   0.00000  Uiso   1.00
O72    O     0.06067   0.16667   0.18508   0.00000  Uiso   1.00
C73    C     0.33339   0.08741   0.25028   0.00000  Uiso   1.00
C74    C     0.37726   0.02117   0.23730   0.00000  Uiso   1.00
C75    C     0.66654   0.29057   0.25062   0.00000  Uiso   1.00
C76    C     0.33346   0.04279   0.25080   0.00000  Uiso   1.00
C77    C     0.51740   0.14119   0.27816   0.00000  Uiso   1.00
C78    C     0.48282   0.19172   0.22140   0.00000  Uiso   1.00
C79    C     0.46746   0.14127   0.27883   0.00000  Uiso   1.00
C80    C     0.53237   0.19227   0.22163   0.00000  Uiso   1.00
C81    C     0.63946   0.16674   0.33612   0.00000  Uiso   1.00
C82    C     0.36051   0.16716   0.16390   0.00000  Uiso   1.00
C83    C     0.62424   0.16622   0.38543   0.00000  Uiso   1.00
C84    C     0.66654   0.24593   0.25018   0.00000  Uiso   1.00
C85    C     0.37576   0.17105   0.11477   0.00000  Uiso   1.00
C86    C     0.64127   0.15497   0.45721   0.00000  Uiso   1.00
C87    C     0.36097   0.19351   0.04466   0.00000  Uiso   1.00
C88    C     0.65736   0.15911   0.41081   0.00000  Uiso   1.00
C89    C     0.34399   0.18534   0.09040   0.00000  Uiso   1.00
C90    C     0.57514   0.17145   0.40718   0.00000  Uiso   1.00
C91    C     0.42437   0.16395   0.09267   0.00000  Uiso   1.00
C92    C     0.55820   0.16961   0.45422   0.00000  Uiso   1.00
C93    C     0.44287   0.17323   0.04677   0.00000  Uiso   1.00
C94    C     0.59208   0.15994   0.47906   0.00000  Uiso   1.00
C95    C     0.52815   0.15942   0.04769   0.00000  Uiso   1.00
C96    C     0.40993   0.18742   0.02265   0.00000  Uiso   1.00
C97    C     0.50857   0.17599   0.47705   0.00000  Uiso   1.00
C98    C     0.49297   0.16909   0.02432   0.00000  Uiso   1.00
C99    C     0.44088   0.10701   0.35243   0.00000  Uiso   1.00
C100   C     0.55365   0.26205   0.19588   0.00000  Uiso   1.00
C101   C     0.47430   0.19004   0.45440   0.00000  Uiso   1.00
C102   C     0.57666   0.15521   0.02542   0.00000  Uiso   1.00
C103   C     0.42611   0.19586   0.47693   0.00000  Uiso   1.00
C104   C     0.62295   0.02153   0.26481   0.00000  Uiso   1.00
C105   C     0.37712   0.31183   0.23706   0.00000  Uiso   1.00
C106   C     0.62289   0.31219   0.26507   0.00000  Uiso   1.00
Cu107  Cu    0.38022   0.16667   0.25000   0.00000  Uiso   1.00
Cu108  Cu    0.61978   0.16666   0.25000   0.00000  Uiso   1.00
H109   H     0.63974   0.19117   0.10675   0.00000  Uiso   1.00
H110   H     0.55057   0.17577   0.38650   0.00000  Uiso   1.00
H111   H     0.51984   0.15599   0.08360   0.00000  Uiso   1.00
H112   H     0.48366   0.19827   0.41932   0.00000  Uiso   1.00
H113   H     0.58884   0.03783   0.27607   0.00000  Uiso   1.00
H114   H     0.41125   0.29553   0.22588   0.00000  Uiso   1.00
H115   H     0.53096   0.12049   0.29978   0.00000  Uiso   1.00
H116   H     0.47013   0.21143   0.19829   0.00000  Uiso   1.00
H117   H     0.43175   0.08606   0.29220   0.00000  Uiso   1.00
H118   H     0.47198   0.08613   0.35171   0.00000  Uiso   1.00
H119   H     0.40789   0.09214   0.37373   0.00000  Uiso   1.00
H120   H     0.36210   0.15575   0.39478   0.00000  Uiso   1.00
H121   H     0.44628   0.13687   0.36762   0.00000  Uiso   1.00
H122   H     0.57017   0.20926   0.15847   0.00000  Uiso   1.00
H123   H     0.52341   0.27001   0.18090   0.00000  Uiso   1.00
H124   H     0.58592   0.28012   0.17820   0.00000  Uiso   1.00
H125   H     0.54334   0.27072   0.23177   0.00000  Uiso   1.00
H126   H     0.33398   0.14748   0.47598   0.00000  Uiso   1.00
H127   H     0.33592   0.20536   0.02660   0.00000  Uiso   1.00
H128   H     0.58892   0.29617   0.27719   0.00000  Uiso   1.00
H129   H     0.41144   0.03719   0.22632   0.00000  Uiso   1.00
H130   H     0.60229   0.14786   0.04473   0.00000  Uiso   1.00
H131   H     0.40128   0.20711   0.45829   0.00000  Uiso   1.00
H132   H     0.44694   0.15102   0.11231   0.00000  Uiso   1.00
N133   N     0.45069   0.16668   0.24999   0.00000  Uiso   1.00
N134   N     0.54931   0.16666   0.25001   0.00000  Uiso   1.00
N135   N     0.43507   0.11343   0.30763   0.00000  Uiso   1.00
N136   N     0.56492   0.21850   0.19116   0.00000  Uiso   1.00
O137   O     0.37291   0.10655   0.25000   0.00000  Uiso   1.00
O138   O     0.62709   0.22678   0.25000   0.00000  Uiso   1.00
O139   O     0.62706   0.10654   0.25001   0.00000  Uiso   1.00
O140   O     0.37294   0.22679   0.25000   0.00000  Uiso   1.00
O141   O     0.35186   0.16668   0.31492   0.00000  Uiso   1.00
O142   O     0.64814   0.16666   0.18509   0.00000  Uiso   1.00
O143   O     0.60600   0.16667   0.31492   0.00000  Uiso   1.00
O144   O     0.39400   0.16667   0.18508   0.00000  Uiso   1.00
C145   C     0.66672   0.08741   0.25028   0.00000  Uiso   1.00
C146   C     0.71059   0.02117   0.23730   0.00000  Uiso   1.00
C147   C     0.99987   0.29057   0.25062   0.00000  Uiso   1.00
C148   C     0.66680   0.04279   0.25080   0.00000  Uiso   1.00
C149   C     0.85073   0.14119   0.27816   0.00000  Uiso   1.00
C150   C     0.81616   0.19172   0.22140   0.00000  Uiso   1.00
C151   C     0.80080   0.14127   0.27883   0.00000  Uiso   1.00
C152   C     0.86570   0.19227   0.22163   0.00000  Uiso   1.00
C153   C     0.97279   0.16674   0.33612   0.00000  Uiso   1.00
C154   C     0.69385   0.16716   0.16390   0.00000  Uiso   1.00
C155   C     0.95757   0.16622   0.38543   0.00000  Uiso   1.00
C156   C     0.99987   0.24593   0.25018   0.00000  Uiso   1.00
C157   C     0.70909   0.17105   0.11477   0.00000  Uiso   1.00
C158   C     0.97461   0.15497   0.45721   0.00000  Uiso   1.00
C159   C     0.69430   0.19351   0.04466   0.00000  Uiso   1.00
C160   C     0.99070   0.15911   0.41081   0.00000  Uiso   1.00
C161   C     0.67732   0.18534   0.09040   0.00000  Uiso   1.00
C162   C     0.90847   0.17145   0.40718   0.00000  Uiso   1.00
C163   C     0.75770   0.16395   0.09267   0.00000  Uiso   1.00
C164   C     0.89154   0.16961   0.45422   0.00000  Uiso   1.00
C165   C     0.77621   0.17323   0.04677   0.00000  Uiso   1.00
C166   C     0.92542   0.15994   0.47906   0.00000  Uiso   1.00
C167   C     0.86149   0.15942   0.04769   0.00000  Uiso   1.00
C168   C     0.74326   0.18742   0.02265   0.00000  Uiso   1.00
C169   C     0.84190   0.17599   0.47705   0.00000  Uiso   1.00
C170   C     0.82630   0.16909   0.02432   0.00000  Uiso   1.00
C171   C     0.77421   0.10701   0.35243   0.00000  Uiso   1.00
C172   C     0.88698   0.26205   0.19588   0.00000  Uiso   1.00
C173   C     0.80763   0.19004   0.45440   0.00000  Uiso   1.00
C174   C     0.91000   0.15521   0.02542   0.00000  Uiso   1.00
C175   C     0.75945   0.19586   0.47693   0.00000  Uiso   1.00
C176   C     0.95628   0.02153   0.26481   0.00000  Uiso   1.00
C177   C     0.71045   0.31183   0.23706   0.00000  Uiso   1.00
C178   C     0.95623   0.31219   0.26507   0.00000  Uiso   1.00
Cu179  Cu    0.71355   0.16667   0.25000   0.00000  Uiso   1.00
Cu180  Cu    0.95311   0.16666   0.25000   0.00000  Uiso   1.00
H181   H     0.97307   0.19117   0.10675   0.00000  Uiso   1.00
H182   H     0.88390   0.17577   0.38650   0.00000  Uiso   1.00
H183   H     0.85317   0.15599   0.08360   0.00000  Uiso   1.00
H184   H     0.81699   0.19827   0.41932   0.00000  Uiso   1.00
H185   H     0.92217   0.03783   0.27607   0.00000  Uiso   1.00
H186   H     0.74458   0.29553   0.22588   0.00000  Uiso   1.00
H187   H     0.86429   0.12049   0.29978   0.00000  Uiso   1.00
H188   H     0.80346   0.21143   0.19829   0.00000  Uiso   1.00
H189   H     0.76508   0.08606   0.29220   0.00000  Uiso   1.00
H190   H     0.80532   0.08613   0.35171   0.00000  Uiso   1.00
H191   H     0.74122   0.09214   0.37373   0.00000  Uiso   1.00
H192   H     0.69543   0.15575   0.39478   0.00000  Uiso   1.00
H193   H     0.77962   0.13687   0.36762   0.00000  Uiso   1.00
H194   H     0.90350   0.20926   0.15847   0.00000  Uiso   1.00
H195   H     0.85675   0.27001   0.18090   0.00000  Uiso   1.00
H196   H     0.91925   0.28012   0.17820   0.00000  Uiso   1.00
H197   H     0.87667   0.27072   0.23177   0.00000  Uiso   1.00
H198   H     0.66731   0.14748   0.47598   0.00000  Uiso   1.00
H199   H     0.66925   0.20536   0.02660   0.00000  Uiso   1.00
H200   H     0.92225   0.29617   0.27719   0.00000  Uiso   1.00
H201   H     0.74477   0.03719   0.22632   0.00000  Uiso   1.00
H202   H     0.93562   0.14786   0.04473   0.00000  Uiso   1.00
H203   H     0.73461   0.20711   0.45829   0.00000  Uiso   1.00
H204   H     0.78028   0.15102   0.11231   0.00000  Uiso   1.00
N205   N     0.78403   0.16668   0.24999   0.00000  Uiso   1.00
N206   N     0.88264   0.16666   0.25001   0.00000  Uiso   1.00
N207   N     0.76840   0.11343   0.30763   0.00000  Uiso   1.00
N208   N     0.89825   0.21850   0.19116   0.00000  Uiso   1.00
O209   O     0.70625   0.10655   0.25000   0.00000  Uiso   1.00
O210   O     0.96042   0.22678   0.25000   0.00000  Uiso   1.00
O211   O     0.96039   0.10654   0.25001   0.00000  Uiso   1.00
O212   O     0.70628   0.22679   0.25000   0.00000  Uiso   1.00
O213   O     0.68519   0.16668   0.31492   0.00000  Uiso   1.00
O214   O     0.98148   0.16666   0.18509   0.00000  Uiso   1.00
O215   O     0.93933   0.16667   0.31492   0.00000  Uiso   1.00
O216   O     0.72733   0.16667   0.18508   0.00000  Uiso   1.00
C217   C     0.00006   0.42074   0.25028   0.00000  Uiso   1.00
C218   C     0.04392   0.35450   0.23730   0.00000  Uiso   1.00
C219   C     0.33321   0.62390   0.25062   0.00000  Uiso   1.00
C220   C     0.00013   0.37612   0.25080   0.00000  Uiso   1.00
C221   C     0.18407   0.47452   0.27816   0.00000  Uiso   1.00
C222   C     0.14949   0.52505   0.22140   0.00000  Uiso   1.00
C223   C     0.13413   0.47460   0.27883   0.00000  Uiso   1.00
C224   C     0.19904   0.52560   0.22163   0.00000  Uiso   1.00
C225   C     0.30612   0.50007   0.33612   0.00000  Uiso   1.00
C226   C     0.02718   0.50049   0.16390   0.00000  Uiso   1.00
C227   C     0.29090   0.49955   0.38543   0.00000  Uiso   1.00
C228   C     0.33320   0.57927   0.25018   0.00000  Uiso   1.00
C229   C     0.04243   0.50439   0.11477   0.00000  Uiso   1.00
C230   C     0.30794   0.48831   0.45721   0.00000  Uiso   1.00
C231   C     0.02764   0.52684   0.04466   0.00000  Uiso   1.00
C232   C     0.32403   0.49244   0.41081   0.00000  Uiso   1.00
C233   C     0.01066   0.51867   0.09040   0.00000  Uiso   1.00
C234   C     0.24180   0.50479   0.40718   0.00000  Uiso   1.00
C235   C     0.09103   0.49728   0.09267   0.00000  Uiso   1.00
C236   C     0.22487   0.50294   0.45422   0.00000  Uiso   1.00
C237   C     0.10954   0.50656   0.04677   0.00000  Uiso   1.00
C238   C     0.25875   0.49327   0.47906   0.00000  Uiso   1.00
C239   C     0.19482   0.49276   0.04769   0.00000  Uiso   1.00
C240   C     0.07659   0.52075   0.02265   0.00000  Uiso   1.00
C241   C     0.17524   0.50933   0.47705   0.00000  Uiso   1.00
C242   C     0.15964   0.50243   0.02432   0.00000  Uiso   1.00
C243   C     0.10755   0.44034   0.35243   0.00000  Uiso   1.00
C244   C     0.22031   0.59539   0.19588   0.00000  Uiso   1.00
C245   C     0.14096   0.52337   0.45440   0.00000  Uiso   1.00
C246   C     0.24333   0.48854   0.02542   0.00000  Uiso   1.00
C247   C     0.09278   0.52920   0.47693   0.00000  Uiso   1.00
C248   C     0.28962   0.35486   0.26481   0.00000  Uiso   1.00
C249   C     0.04379   0.64516   0.23706   0.00000  Uiso   1.00
C250   C     0.28956   0.64552   0.26507   0.00000  Uiso   1.00
Cu251  Cu    0.04689   0.50001   0.25000   0.00000  Uiso   1.00
Cu252  Cu    0.28645   0.49999   0.25000   0.00000  Uiso   1.00
H253   H     0.30641   0.52450   0.10675   0.00000  Uiso   1.00
H254   H     0.21724   0.50911   0.38650   0.00000  Uiso   1.00
H255   H     0.18650   0.48933   0.08360   0.00000  Uiso   1.00
H256   H     0.15033   0.53161   0.41932   0.00000  Uiso   1.00
H257   H     0.25551   0.37117   0.27607   0.00000  Uiso   1.00
H258   H     0.07792   0.62887   0.22588   0.00000  Uiso   1.00
H259   H     0.19762   0.45383   0.29978   0.00000  Uiso   1.00
H260   H     0.13680   0.54476   0.19829   0.00000  Uiso   1.00
H261   H     0.09842   0.41940   0.29220   0.00000  Uiso   1.00
H262   H     0.13865   0.41946   0.35171   0.00000  Uiso   1.00
H263   H     0.07456   0.42547   0.37373   0.00000  Uiso   1.00
H264   H     0.02877   0.48909   0.39478   0.00000  Uiso   1.00
H265   H     0.11295   0.47020   0.36762   0.00000  Uiso   1.00
H266   H     0.23683   0.54260   0.15847   0.00000  Uiso   1.00
H267   H     0.19008   0.60334   0.18090   0.00000  Uiso   1.00
H268   H     0.25259   0.61345   0.17820   0.00000  Uiso   1.00
H269   H     0.21000   0.60406   0.23177   0.00000  Uiso   1.00
H270   H     0.00064   0.48082   0.47598   0.00000  Uiso   1.00
H271   H     0.00258   0.53869   0.02660   0.00000  Uiso   1.00
H272   H     0.25559   0.62950   0.27719   0.00000  Uiso   1.00
H273   H     0.07810   0.37052   0.22632   0.00000  Uiso   1.00
H274   H     0.26895   0.48120   0.04473   0.00000  Uiso   1.00
H275   H     0.06794   0.54045   0.45829   0.00000  Uiso   1.00
H276   H     0.11361   0.48435   0.11231   0.00000  Uiso   1.00
N277   N     0.11736   0.50001   0.24999   0.00000  Uiso   1.00
N278   N     0.21597   0.49999   0.25001   0.00000  Uiso   1.00
N279   N     0.10174   0.44676   0.30763   0.00000  Uiso   1.00
N280   N     0.23159   0.55183   0.19116   0.00000  Uiso   1.00
O281   O     0.03958   0.43989   0.25000   0.00000  Uiso   1.00
O282   O     0.29375   0.56011   0.25000   0.00000  Uiso   1.00
O283   O     0.29372   0.43988   0.25001   0.00000  Uiso   1.00
O284   O     0.03961   0.56012   0.25000   0.00000  Uiso   1.00
O285   O     0.01852   0.50001   0.31492   0.00000  Uiso   1.00
O286   O     0.31481   0.49999   0.18509   0.00000  Uiso   1.00
O287   O     0.27267   0.50000   0.31492   0.00000  Uiso   1.00
O288   O     0.06067   0.50000   0.18508   0.00000  Uiso   1.00
C289   C     0.33339   0.42074   0.25028   0.00000  Uiso   1.00
C290   C     0.37726   0.35450   0.23730   0.00000  Uiso   1.00
C291   C     0.66654   0.62390   0.25062   0.00000  Uiso   1.00
C292   C     0.33346   0.37612   0.25080   0.00000  Uiso   1.00
C293   C     0.51740   0.47452   0.27816   0.00000  Uiso   1.00
C294   C     0.48282   0.52505   0.22140   0.00000  Uiso   1.00
C295   C     0.46746   0.47460   0.27883   0.00000  Uiso   1.00
C296   C     0.53237   0.52560   0.22163   0.00000  Uiso   1.00
C297   C     0.63946   0.50007   0.33612   0.00000  Uiso   1.00
C298   C     0.36051   0.50049   0.16390   0.00000  Uiso   1.00
C299   C     0.62424   0.49955   0.38543   0.00000  Uiso   1.00
C300   C     0.66654   0.57927   0.25018   0.00000  Uiso   1.00
C301   C     0.37576   0.50439   0.11477   0.00000  Uiso   1.00
C302   C     0.64127   0.48831   0.45721   0.00000  Uiso   1.00
C303   C     0.36097   0.52684   0.04466   0.00000  Uiso   1.00
C304   C     0.65736   0.49244   0.41081   0.00000  Uiso   1.00
C305   C     0.34399   0.51867   0.09040   0.00000  Uiso   1.00
C306   C     0.57514   0.50479   0.40718   0.00000  Uiso   1.00
C307   C     0.42437   0.49728   0.09267   0.00000  Uiso   1.00
C308   C     0.55820   0.50294   0.45422   0.00000  Uiso   1.00
C309   C     0.44287   0.50656   0.04677   0.00000  Uiso   1.00
C310   C     0.59208   0.49327   0.47906   0.00000  Uiso   1.00
C311   C     0.52815   0.49276   0.04769   0.00000  Uiso   1.00
C312   C     0.40993   0.52075   0.02265   0.00000  Uiso   1.00
C313   C     0.50857   0.50933   0.47705   0.00000  Uiso   1.00
C314   C     0.49297   0.50243   0.02432   0.00000  Uiso   1.00
C315   C     0.44088   0.44034   0.35243   0.00000  Uiso   1.00
C316   C     0.55365   0.59539   0.19588   0.00000  Uiso   1.00
C317   C     0.47430   0.52337   0.45440   0.00000  Uiso   1.00
C318   C     0.57666   0.48854   0.02542   0.00000  Uiso   1.00
C319   C     0.42611   0.52920   0.47693   0.00000  Uiso   1.00
C320   C     0.62295   0.35486   0.26481   0.00000  Uiso   1.00
C321   C     0.37712   0.64516   0.23706   0.00000  Uiso   1.00
C322   C     0.62289   0.64552   0.26507   0.00000  Uiso   1.00
Cu323  Cu    0.38022   0.50001   0.25000   0.00000  Uiso   1.00
Cu324  Cu    0.61978   0.49999   0.25000   0.00000  Uiso   1.00
H325   H     0.63974   0.52450   0.10675   0.00000  Uiso   1.00
H326   H     0.55057   0.50911   0.38650   0.00000  Uiso   1.00
H327   H     0.51984   0.48933   0.08360   0.00000  Uiso   1.00
H328   H     0.48366   0.53161   0.41932   0.00000  Uiso   1.00
H329   H     0.58884   0.37117   0.27607   0.00000  Uiso   1.00
H330   H     0.41125   0.62887   0.22588   0.00000  Uiso   1.00
H331   H     0.53096   0.45383   0.29978   0.00000  Uiso   1.00
H332   H     0.47013   0.54476   0.19829   0.00000  Uiso   1.00
H333   H     0.43175   0.41940   0.29220   0.00000  Uiso   1.00
H334   H     0.47198   0.41946   0.35171   0.00000  Uiso   1.00
H335   H     0.40789   0.42547   0.37373   0.00000  Uiso   1.00
H336   H     0.36210   0.48909   0.39478   0.00000  Uiso   1.00
H337   H     0.44628   0.47020   0.36762   0.00000  Uiso   1.00
H338   H     0.57017   0.54260   0.15847   0.00000  Uiso   1.00
H339   H     0.52341   0.60334   0.18090   0.00000  Uiso   1.00
H340   H     0.58592   0.61345   0.17820   0.00000  Uiso   1.00
H341   H     0.54334   0.60406   0.23177   0.00000  Uiso   1.00
H342   H     0.33398   0.48082   0.47598   0.00000  Uiso   1.00
H343   H     0.33592   0.53869   0.02660   0.00000  Uiso   1.00
H344   H     0.58892   0.62950   0.27719   0.00000  Uiso   1.00
H345   H     0.41144   0.37052   0.22632   0.00000  Uiso   1.00
H346   H     0.60229   0.48120   0.04473   0.00000  Uiso   1.00
H347   H     0.40128   0.54045   0.45829   0.00000  Uiso   1.00
H348   H     0.44694   0.48435   0.11231   0.00000  Uiso   1.00
N349   N     0.45069   0.50001   0.24999   0.00000  Uiso   1.00
N350   N     0.54931   0.49999   0.25001   0.00000  Uiso   1.00
N351   N     0.43507   0.44676   0.30763   0.00000  Uiso   1.00
N352   N     0.56492   0.55183   0.19116   0.00000  Uiso   1.00
O353   O     0.37291   0.43989   0.25000   0.00000  Uiso   1.00
O354   O     0.62709   0.56011   0.25000   0.00000  Uiso   1.00
O355   O     0.62706   0.43988   0.25001   0.00000  Uiso   1.00
O356   O     0.37294   0.56012   0.25000   0.00000  Uiso   1.00
O357   O     0.35186   0.50001   0.31492   0.00000  Uiso   1.00
O358   O     0.64814   0.49999   0.18509   0.00000  Uiso   1.00
O359   O     0.60600   0.50000   0.31492   0.00000  Uiso   1.00
O360   O     0.39400   0.50000   0.18508   0.00000  Uiso   1.00
C361   C     0.66672   0.42074   0.25028   0.00000  Uiso   1.00
C362   C     0.71059   0.35450   0.23730   0.00000  Uiso   1.00
C363   C     0.99987   0.62390   0.25062   0.00000  Uiso   1.00
C364   C     0.66680   0.37612   0.25080   0.00000  Uiso   1.00
C365   C     0.85073   0.47452   0.27816   0.00000  Uiso   1.00
C366   C     0.81616   0.52505   0.22140   0.00000  Uiso   1.00
C367   C     0.80080   0.47460   0.27883   0.00000  Uiso   1.00
C368   C     0.86570   0.52560   0.22163   0.00000  Uiso   1.00
C369   C     0.97279   0.50007   0.33612   0.00000  Uiso   1.00
C370   C     0.69385   0.50049   0.16390   0.00000  Uiso   1.00
C371   C     0.95757   0.49955   0.38543   0.00000  Uiso   1.00
C372   C     0.99987   0.57927   0.25018   0.00000  Uiso   1.00
C373   C     0.70909   0.50439   0.11477   0.00000  Uiso   1.00
C374   C     0.97461   0.48831   0.45721   0.00000  Uiso   1.00
C375   C     0.69430   0.52684   0.04466   0.00000  Uiso   1.00
C376   C     0.99070   0.49244   0.41081   0.00000  Uiso   1.00
C377   C     0.67732   0.51867   0.09040   0.00000  Uiso   1.00
C378   C     0.90847   0.50479   0.40718   0.00000  Uiso   1.00
C379   C     0.75770   0.49728   0.09267   0.00000  Uiso   1.00
C380   C     0.89154   0.50294   0.45422   0.00000  Uiso   1.00
C381   C     0.77621   0.50656   0.04677   0.00000  Uiso   1.00
C382   C     0.92542   0.49327   0.47906   0.00000  Uiso   1.00
C383   C     0.86149   0.49276   0.04769   0.00000  Uiso   1.00
C384   C     0.74326   0.52075   0.02265   0.00000  Uiso   1.00
C385   C     0.84190   0.50933   0.47705   0.00000  Uiso   1.00
C386   C     0.82630   0.50243   0.02432   0.00000  Uiso   1.00
C387   C     0.77421   0.44034   0.35243   0.00000  Uiso   1.00
C388   C     0.88698   0.59539   0.19588   0.00000  Uiso   1.00
C389   C     0.80763   0.52337   0.45440   0.00000  Uiso   1.00
C390   C     0.91000   0.48854   0.02542   0.00000  Uiso   1.00
C391   C     0.75945   0.52920   0.47693   0.00000  Uiso   1.00
C392   C     0.95628   0.35486   0.26481   0.00000  Uiso   1.00
C393   C     0.71045   0.64516   0.23706   0.00000  Uiso   1.00
C394   C     0.95623   0.64552   0.26507   0.00000  Uiso   1.00
Cu395  Cu    0.71355   0.50001   0.25000   0.00000  Uiso   1.00
Cu396  Cu    0.95311   0.49999   0.25000   0.00000  Uiso   1.00
H397   H     0.97307   0.52450   0.10675   0.00000  Uiso   1.00
H398   H     0.88390   0.50911   0.38650   0.00000  Uiso   1.00
H399   H     0.85317   0.48933   0.08360   0.00000  Uiso   1.00
H400   H     0.81699   0.53161   0.41932   0.00000  Uiso   1.00
H401   H     0.92217   0.37117   0.27607   0.00000  Uiso   1.00
H402   H     0.74458   0.62887   0.22588   0.00000  Uiso   1.00
H403   H     0.86429   0.45383   0.29978   0.00000  Uiso   1.00
H404   H     0.80346   0.54476   0.19829   0.00000  Uiso   1.00
H405   H     0.76508   0.41940   0.29220   0.00000  Uiso   1.00
H406   H     0.80532   0.41946   0.35171   0.00000  Uiso   1.00
H407   H     0.74122   0.42547   0.37373   0.00000  Uiso   1.00
H408   H     0.69543   0.48909   0.39478   0.00000  Uiso   1.00
H409   H     0.77962   0.47020   0.36762   0.00000  Uiso   1.00
H410   H     0.90350   0.54260   0.15847   0.00000  Uiso   1.00
H411   H     0.85675   0.60334   0.18090   0.00000  Uiso   1.00
H412   H     0.91925   0.61345   0.17820   0.00000  Uiso   1.00
H413   H     0.87667   0.60406   0.23177   0.00000  Uiso   1.00
H414   H     0.66731   0.48082   0.47598   0.00000  Uiso   1.00
H415   H     0.66925   0.53869   0.02660   0.00000  Uiso   1.00
H416   H     0.92225   0.62950   0.27719   0.00000  Uiso   1.00
H417   H     0.74477   0.37052   0.22632   0.00000  Uiso   1.00
H418   H     0.93562   0.48120   0.04473   0.00000  Uiso   1.00
H419   H     0.73461   0.54045   0.45829   0.00000  Uiso   1.00
H420   H     0.78028   0.48435   0.11231   0.00000  Uiso   1.00
N421   N     0.78403   0.50001   0.24999   0.00000  Uiso   1.00
N422   N     0.88264   0.49999   0.25001   0.00000  Uiso   1.00
N423   N     0.76840   0.44676   0.30763   0.00000  Uiso   1.00
N424   N     0.89825   0.55183   0.19116   0.00000  Uiso   1.00
O425   O     0.70625   0.43989   0.25000   0.00000  Uiso   1.00
O426   O     0.96042   0.56011   0.25000   0.00000  Uiso   1.00
O427   O     0.96039   0.43988   0.25001   0.00000  Uiso   1.00
O428   O     0.70628   0.56012   0.25000   0.00000  Uiso   1.00
O429   O     0.68519   0.50001   0.31492   0.00000  Uiso   1.00
O430   O     0.98148   0.49999   0.18509   0.00000  Uiso   1.00
O431   O     0.93933   0.50000   0.31492   0.00000  Uiso   1.00
O432   O     0.72733   0.50000   0.18508   0.00000  Uiso   1.00
C433   C     0.00006   0.75407   0.25028   0.00000  Uiso   1.00
C434   C     0.04392   0.68783   0.23730   0.00000  Uiso   1.00
C435   C     0.33321   0.95723   0.25062   0.00000  Uiso   1.00
C436   C     0.00013   0.70945   0.25080   0.00000  Uiso   1.00
C437   C     0.18407   0.80786   0.27816   0.00000  Uiso   1.00
C438   C     0.14949   0.85839   0.22140   0.00000  Uiso   1.00
C439   C     0.13413   0.80793   0.27883   0.00000  Uiso   1.00
C440   C     0.19904   0.85894   0.22163   0.00000  Uiso   1.00
C441   C     0.30612   0.83341   0.33612   0.00000  Uiso   1.00
C442   C     0.02718   0.83382   0.16390   0.00000  Uiso   1.00
C443   C     0.29090   0.83289   0.38543   0.00000  Uiso   1.00
C444   C     0.33320   0.91260   0.25018   0.00000  Uiso   1.00
C445   C     0.04243   0.83772   0.11477   0.00000  Uiso   1.00
C446   C     0.30794   0.82164   0.45721   0.00000  Uiso   1.00
C447   C     0.02764   0.86017   0.04466   0.00000  Uiso   1.00
C448   C     0.32403   0.82577   0.41081   0.00000  Uiso   1.00
C449   C     0.01066   0.85200   0.09040   0.00000  Uiso   1.00
C450   C     0.24180   0.83812   0.40718   0.00000  Uiso   1.00
C451   C     0.09103   0.83062   0.09267   0.00000  Uiso   1.00
C452   C     0.22487   0.83628   0.45422   0.00000  Uiso   1.00
C453   C     0.10954   0.83989   0.04677   0.00000  Uiso   1.00
C454   C     0.25875   0.82660   0.47906   0.00000  Uiso   1.00
C455   C     0.19482   0.82609   0.04769   0.00000  Uiso   1.00
C456   C     0.07659   0.85408   0.02265   0.00000  Uiso   1.00
C457   C     0.17524   0.84266   0.47705   0.00000  Uiso   1.00
C458   C     0.15964   0.83576   0.02432   0.00000  Uiso   1.00
C459   C     0.10755   0.77368   0.35243   0.00000  Uiso   1.00
C460   C     0.22031   0.92872   0.19588   0.00000  Uiso   1.00
C461   C     0.14096   0.85670   0.45440   0.00000  Uiso   1.00
C462   C     0.24333   0.82187   0.02542   0.00000  Uiso   1.00
C463   C     0.09278   0.86253   0.47693   0.00000  Uiso   1.00
C464   C     0.28962   0.68819   0.26481   0.00000  Uiso   1.00
C465   C     0.04379   0.97849   0.23706   0.00000  Uiso   1.00
C466   C     0.28956   0.97885   0.26507   0.00000  Uiso   1.00
Cu467  Cu    0.04689   0.83334   0.25000   0.00000  Uiso   1.00
Cu468  Cu    0.28645   0.83333   0.25000   0.00000  Uiso   1.00
H469   H     0.30641   0.85783   0.10675   0.00000  Uiso   1.00
H470   H     0.21724   0.84244   0.38650   0.00000  Uiso   1.00
H471   H     0.18650   0.82266   0.08360   0.00000  Uiso   1.00
H472   H     0.15033   0.86494   0.41932   0.00000  Uiso   1.00
H473   H     0.25551   0.70450   0.27607   0.00000  Uiso   1.00
H474   H     0.07792   0.96220   0.22588   0.00000  Uiso   1.00
H475   H     0.19762   0.78716   0.29978   0.00000  Uiso   1.00
H476   H     0.13680   0.87810   0.19829   0.00000  Uiso   1.00
H477   H     0.09842   0.75273   0.29220   0.00000  Uiso   1.00
H478   H     0.13865   0.75280   0.35171   0.00000  Uiso   1.00
H479   H     0.07456   0.75880   0.37373   0.00000  Uiso   1.00
H480   H     0.02877   0.82242   0.39478   0.00000  Uiso   1.00
H481   H     0.11295   0.80354   0.36762   0.00000  Uiso   1.00
H482   H     0.23683   0.87593   0.15847   0.00000  Uiso   1.00
H483   H     0.19008   0.93667   0.18090   0.00000  Uiso   1.00
H484   H     0.25259   0.94679   0.17820   0.00000  Uiso   1.00
H485   H     0.21000   0.93739   0.23177   0.00000  Uiso   1.00
H486   H     0.00064   0.81415   0.47598   0.00000  Uiso   1.00
H487   H     0.00258   0.87202   0.02660   0.00000  Uiso   1.00
H488   H     0.25559   0.96284   0.27719   0.00000  Uiso   1.00
H489   H     0.07810   0.70386   0.22632   0.00000  Uiso   1.00
H490   H     0.26895   0.81453   0.04473   0.00000  Uiso   1.00
H491   H     0.06794   0.87378   0.45829   0.00000  Uiso   1.00
H492   H     0.11361   0.81769   0.11231   0.00000  Uiso   1.00
N493   N     0.11736   0.83334   0.24999   0.00000  Uiso   1.00
N494   N     0.21597   0.83332   0.25001   0.00000  Uiso   1.00
N495   N     0.10174   0.78010   0.30763   0.00000  Uiso   1.00
N496   N     0.23159   0.88516   0.19116   0.00000  Uiso   1.00
O497   O     0.03958   0.77322   0.25000   0.00000  Uiso   1.00
O498   O     0.29375   0.89345   0.25000   0.00000  Uiso   1.00
O499   O     0.29372   0.77321   0.25001   0.00000  Uiso   1.00
O500   O     0.03961   0.89346   0.25000   0.00000  Uiso   1.00
O501   O     0.01852   0.83334   0.31492   0.00000  Uiso   1.00
O502   O     0.31481   0.83332   0.18509   0.00000  Uiso   1.00
O503   O     0.27267   0.83333   0.31492   0.00000  Uiso   1.00
O504   O     0.06067   0.83333   0.18508   0.00000  Uiso   1.00
C505   C     0.33339   0.75407   0.25028   0.00000  Uiso   1.00
C506   C     0.37726   0.68783   0.23730   0.00000  Uiso   1.00
C507   C     0.66654   0.95723   0.25062   0.00000  Uiso   1.00
C508   C     0.33346   0.70945   0.25080   0.00000  Uiso   1.00
C509   C     0.51740   0.80786   0.27816   0.00000  Uiso   1.00
C510   C     0.48282   0.85839   0.22140   0.00000  Uiso   1.00
C511   C     0.46746   0.80793   0.27883   0.00000  Uiso   1.00
C512   C     0.53237   0.85894   0.22163   0.00000  Uiso   1.00
C513   C     0.63946   0.83341   0.33612   0.00000  Uiso   1.00
C514   C     0.36051   0.83382   0.16390   0.00000  Uiso   1.00
C515   C     0.62424   0.83289   0.38543   0.00000  Uiso   1.00
C516   C     0.66654   0.91260   0.25018   0.00000  Uiso   1.00
C517   C     0.37576   0.83772   0.11477   0.00000  Uiso   1.00
C518   C     0.64127   0.82164   0.45721   0.00000  Uiso   1.00
C519   C     0.36097   0.86017   0.04466   0.00000  Uiso   1.00
C520   C     0.65736   0.82577   0.41081   0.00000  Uiso   1.00
C521   C     0.34399   0.85200   0.09040   0.00000  Uiso   1.00
C522   C     0.57514   0.83812   0.40718   0.00000  Uiso   1.00
C523   C     0.42437   0.83062   0.09267   0.00000  Uiso   1.00
C524   C     0.55820   0.83628   0.45422   0.00000  Uiso   1.00
C525   C     0.44287   0.83989   0.04677   0.00000  Uiso   1.00
C526   C     0.59208   0.82660   0.47906   0.00000  Uiso   1.00
C527   C     0.52815   0.82609   0.04769   0.00000  Uiso   1.00
C528   C     0.40993   0.85408   0.02265   0.00000  Uiso   1.00
C529   C     0.50857   0.84266   0.47705   0.00000  Uiso   1.00
C530   C     0.49297   0.83576   0.02432   0.00000  Uiso   1.00
C531   C     0.44088   0.77368   0.35243   0.00000  Uiso   1.00
C532   C     0.55365   0.92872   0.19588   0.00000  Uiso   1.00
C533   C     0.47430   0.85670   0.45440   0.00000  Uiso   1.00
C534   C     0.57666   0.82187   0.02542   0.00000  Uiso   1.00
C535   C     0.42611   0.86253   0.47693   0.00000  Uiso   1.00
C536   C     0.62295   0.68819   0.26481   0.00000  Uiso   1.00
C537   C     0.37712   0.97849   0.23706   0.00000  Uiso   1.00
C538   C     0.62289   0.97885   0.26507   0.00000  Uiso   1.00
Cu539  Cu    0.38022   0.83334   0.25000   0.00000  Uiso   1.00
Cu540  Cu    0.61978   0.83333   0.25000   0.00000  Uiso   1.00
H541   H     0.63974   0.85783   0.10675   0.00000  Uiso   1.00
H542   H     0.55057   0.84244   0.38650   0.00000  Uiso   1.00
H543   H     0.51984   0.82266   0.08360   0.00000  Uiso   1.00
H544   H     0.48366   0.86494   0.41932   0.00000  Uiso   1.00
H545   H     0.58884   0.70450   0.27607   0.00000  Uiso   1.00
H546   H     0.41125   0.96220   0.22588   0.00000  Uiso   1.00
H547   H     0.53096   0.78716   0.29978   0.00000  Uiso   1.00
H548   H     0.47013   0.87810   0.19829   0.00000  Uiso   1.00
H549   H     0.43175   0.75273   0.29220   0.00000  Uiso   1.00
H550   H     0.47198   0.75280   0.35171   0.00000  Uiso   1.00
H551   H     0.40789   0.75880   0.37373   0.00000  Uiso   1.00
H552   H     0.36210   0.82242   0.39478   0.00000  Uiso   1.00
H553   H     0.44628   0.80354   0.36762   0.00000  Uiso   1.00
H554   H     0.57017   0.87593   0.15847   0.00000  Uiso   1.00
H555   H     0.52341   0.93667   0.18090   0.00000  Uiso   1.00
H556   H     0.58592   0.94679   0.17820   0.00000  Uiso   1.00
H557   H     0.54334   0.93739   0.23177   0.00000  Uiso   1.00
H558   H     0.33398   0.81415   0.47598   0.00000  Uiso   1.00
H559   H     0.33592   0.87202   0.02660   0.00000  Uiso   1.00
H560   H     0.58892   0.96284   0.27719   0.00000  Uiso   1.00
H561   H     0.41144   0.70386   0.22632   0.00000  Uiso   1.00
H562   H     0.60229   0.81453   0.04473   0.00000  Uiso   1.00
H563   H     0.40128   0.87378   0.45829   0.00000  Uiso   1.00
H564   H     0.44694   0.81769   0.11231   0.00000  Uiso   1.00
N565   N     0.45069   0.83334   0.24999   0.00000  Uiso   1.00
N566   N     0.54931   0.83332   0.25001   0.00000  Uiso   1.00
N567   N     0.43507   0.78010   0.30763   0.00000  Uiso   1.00
N568   N     0.56492   0.88516   0.19116   0.00000  Uiso   1.00
O569   O     0.37291   0.77322   0.25000   0.00000  Uiso   1.00
O570   O     0.62709   0.89345   0.25000   0.00000  Uiso   1.00
O571   O     0.62706   0.77321   0.25001   0.00000  Uiso   1.00
O572   O     0.37294   0.89346   0.25000   0.00000  Uiso   1.00
O573   O     0.35186   0.83334   0.31492   0.00000  Uiso   1.00
O574   O     0.64814   0.83332   0.18509   0.00000  Uiso   1.00
O575   O     0.60600   0.83333   0.31492   0.00000  Uiso   1.00
O576   O     0.39400   0.83333   0.18508   0.00000  Uiso   1.00
C577   C     0.66672   0.75407   0.25028   0.00000  Uiso   1.00
C578   C     0.71059   0.68783   0.23730   0.00000  Uiso   1.00
C579   C     0.99987   0.95723   0.25062   0.00000  Uiso   1.00
C580   C     0.66680   0.70945   0.25080   0.00000  Uiso   1.00
C581   C     0.85073   0.80786   0.27816   0.00000  Uiso   1.00
C582   C     0.81616   0.85839   0.22140   0.00000  Uiso   1.00
C583   C     0.80080   0.80793   0.27883   0.00000  Uiso   1.00
C584   C     0.86570   0.85894   0.22163   0.00000  Uiso   1.00
C585   C     0.97279   0.83341   0.33612   0.00000  Uiso   1.00
C586   C     0.69385   0.83382   0.16390   0.00000  Uiso   1.00
C587   C     0.95757   0.83289   0.38543   0.00000  Uiso   1.00
C588   C     0.99987   0.91260   0.25018   0.00000  Uiso   1.00
C589   C     0.70909   0.83772   0.11477   0.00000  Uiso   1.00
C590   C     0.97461   0.82164   0.45721   0.00000  Uiso   1.00
C591   C     0.69430   0.86017   0.04466   0.00000  Uiso   1.00
C592   C     0.99070   0.82577   0.41081   0.00000  Uiso   1.00
C593   C     0.67732   0.85200   0.09040   0.00000  Uiso   1.00
C594   C     0.90847   0.83812   0.40718   0.00000  Uiso   1.00
C595   C     0.75770   0.83062   0.09267   0.00000  Uiso   1.00
C596   C     0.89154   0.83628   0.45422   0.00000  Uiso   1.00
C597   C     0.77621   0.83989   0.04677   0.00000  Uiso   1.00
C598   C     0.92542   0.82660   0.47906   0.00000  Uiso   1.00
C599   C     0.86149   0.82609   0.04769   0.00000  Uiso   1.00
C600   C     0.74326   0.85408   0.02265   0.00000  Uiso   1.00
C601   C     0.84190   0.84266   0.47705   0.00000  Uiso   1.00
C602   C     0.82630   0.83576   0.02432   0.00000  Uiso   1.00
C603   C     0.77421   0.77368   0.35243   0.00000  Uiso   1.00
C604   C     0.88698   0.92872   0.19588   0.00000  Uiso   1.00
C605   C     0.80763   0.85670   0.45440   0.00000  Uiso   1.00
C606   C     0.91000   0.82187   0.02542   0.00000  Uiso   1.00
C607   C     0.75945   0.86253   0.47693   0.00000  Uiso   1.00
C608   C     0.95628   0.68819   0.26481   0.00000  Uiso   1.00
C609   C     0.71045   0.97849   0.23706   0.00000  Uiso   1.00
C610   C     0.95623   0.97885   0.26507   0.00000  Uiso   1.00
Cu611  Cu    0.71355   0.83334   0.25000   0.00000  Uiso   1.00
Cu612  Cu    0.95311   0.83333   0.25000   0.00000  Uiso   1.00
H613   H     0.97307   0.85783   0.10675   0.00000  Uiso   1.00
H614   H     0.88390   0.84244   0.38650   0.00000  Uiso   1.00
H615   H     0.85317   0.82266   0.08360   0.00000  Uiso   1.00
H616   H     0.81699   0.86494   0.41932   0.00000  Uiso   1.00
H617   H     0.92217   0.70450   0.27607   0.00000  Uiso   1.00
H618   H     0.74458   0.96220   0.22588   0.00000  Uiso   1.00
H619   H     0.86429   0.78716   0.29978   0.00000  Uiso   1.00
H620   H     0.80346   0.87810   0.19829   0.00000  Uiso   1.00
H621   H     0.76508   0.75273   0.29220   0.00000  Uiso   1.00
H622   H     0.80532   0.75280   0.35171   0.00000  Uiso   1.00
H623   H     0.74122   0.75880   0.37373   0.00000  Uiso   1.00
H624   H     0.69543   0.82242   0.39478   0.00000  Uiso   1.00
H625   H     0.77962   0.80354   0.36762   0.00000  Uiso   1.00
H626   H     0.90350   0.87593   0.15847   0.00000  Uiso   1.00
H627   H     0.85675   0.93667   0.18090   0.00000  Uiso   1.00
H628   H     0.91925   0.94679   0.17820   0.00000  Uiso   1.00
H629   H     0.87667   0.93739   0.23177   0.00000  Uiso   1.00
H630   H     0.66731   0.81415   0.47598   0.00000  Uiso   1.00
H631   H     0.66925   0.87202   0.02660   0.00000  Uiso   1.00
H632   H     0.92225   0.96284   0.27719   0.00000  Uiso   1.00
H633   H     0.74477   0.70386   0.22632   0.00000  Uiso   1.00
H634   H     0.93562   0.81453   0.04473   0.00000  Uiso   1.00
H635   H     0.73461   0.87378   0.45829   0.00000  Uiso   1.00
H636   H     0.78028   0.81769   0.11231   0.00000  Uiso   1.00
N637   N     0.78403   0.83334   0.24999   0.00000  Uiso   1.00
N638   N     0.88264   0.83332   0.25001   0.00000  Uiso   1.00
N639   N     0.76840   0.78010   0.30763   0.00000  Uiso   1.00
N640   N     0.89825   0.88516   0.19116   0.00000  Uiso   1.00
O641   O     0.70625   0.77322   0.25000   0.00000  Uiso   1.00
O642   O     0.96042   0.89345   0.25000   0.00000  Uiso   1.00
O643   O     0.96039   0.77321   0.25001   0.00000  Uiso   1.00
O644   O     0.70628   0.89346   0.25000   0.00000  Uiso   1.00
O645   O     0.68519   0.83334   0.31492   0.00000  Uiso   1.00
O646   O     0.98148   0.83332   0.18509   0.00000  Uiso   1.00
O647   O     0.93933   0.83333   0.31492   0.00000  Uiso   1.00
O648   O     0.72733   0.83333   0.18508   0.00000  Uiso   1.00
C649   C     0.00006   0.08741   0.75028   0.00000  Uiso   1.00
C650   C     0.04392   0.02117   0.73730   0.00000  Uiso   1.00
C651   C     0.33321   0.29057   0.75062   0.00000  Uiso   1.00
C652   C     0.00013   0.04279   0.75080   0.00000  Uiso   1.00
C653   C     0.18407   0.14119   0.77816   0.00000  Uiso   1.00
C654   C     0.14949   0.19172   0.72140   0.00000  Uiso   1.00
C655   C     0.13413   0.14127   0.77883   0.00000  Uiso   1.00
C656   C     0.19904   0.19227   0.72163   0.00000  Uiso   1.00
C657   C     0.30612   0.16674   0.83612   0.00000  Uiso   1.00
C658   C     0.02718   0.16716   0.66390   0.00000  Uiso   1.00
C659   C     0.29090   0.16622   0.88543   0.00000  Uiso   1.00
C660   C     0.33320   0.24593   0.75018   0.00000  Uiso   1.00
C661   C     0.04243   0.17105   0.61477   0.00000  Uiso   1.00
C662   C     0.30794   0.15497   0.95721   0.00000  Uiso   1.00
C663   C     0.02764   0.19351   0.54466   0.00000  Uiso   1.00
C664   C     0.32403   0.15911   0.91081   0.00000  Uiso   1.00
C665   C     0.01066   0.18534   0.59040   0.00000  Uiso   1.00
C666   C     0.24180   0.17145   0.90718   0.00000  Uiso   1.00
C667   C     0.09103   0.16395   0.59267   0.00000  Uiso   1.00
C668   C     0.22487   0.16961   0.95422   0.00000  Uiso   1.00
C669   C     0.10954   0.17323   0.54677   0.00000  Uiso   1.00
C670   C     0.25875   0.15994   0.97906   0.00000  Uiso   1.00
C671   C     0.19482   0.15942   0.54769   0.00000  Uiso   1.00
C672   C     0.07659   0.18742   0.52265   0.00000  Uiso   1.00
C673   C     0.17524   0.17599   0.97705   0.00000  Uiso   1.00
C674   C     0.15964   0.16909   0.52432   0.00000  Uiso   1.00
C675   C     0.10755   0.10701   0.85243   0.00000  Uiso   1.00
C676   C     0.22031   0.26205   0.69588   0.00000  Uiso   1.00
C677   C     0.14096   0.19004   0.95440   0.00000  Uiso   1.00
C678   C     0.24333   0.15521   0.52542   0.00000  Uiso   1.00
C679   C     0.09278   0.19586   0.97693   0.00000  Uiso   1.00
C680   C     0.28962   0.02153   0.76481   0.00000  Uiso   1.00
C681   C     0.04379   0.31183   0.73706   0.00000  Uiso   1.00
C682   C     0.28956   0.31219   0.76507   0.00000  Uiso   1.00
Cu683  Cu    0.04689   0.16667   0.75000   0.00000  Uiso   1.00
Cu684  Cu    0.28645   0.16666   0.75000   0.00000  Uiso   1.00
H685   H     0.30641   0.19117   0.60675   0.00000  Uiso   1.00
H686   H     0.21724   0.17577   0.88650   0.00000  Uiso   1.00
H687   H     0.18650   0.15599   0.58360   0.00000  Uiso   1.00
H688   H     0.15033   0.19827   0.91932   0.00000  Uiso   1.00
H689   H     0.25551   0.03783   0.77607   0.00000  Uiso   1.00
H690   H     0.07792   0.29553   0.72588   0.00000  Uiso   1.00
H691   H     0.19762   0.12049   0.79978   0.00000  Uiso   1.00
H692   H     0.13680   0.21143   0.69829   0.00000  Uiso   1.00
H693   H     0.09842   0.08606   0.79220   0.00000  Uiso   1.00
H694   H     0.13865   0.08613   0.85171   0.00000  Uiso   1.00
H695   H     0.07456   0.09214   0.87373   0.00000  Uiso   1.00
H696   H     0.02877   0.15575   0.89478   0.00000  Uiso   1.00
H697   H     0.11295   0.13687   0.86762   0.00000  Uiso   1.00
H698   H     0.23683   0.20926   0.65847   0.00000  Uiso   1.00
H699   H     0.19008   0.27001   0.68090   0.00000  Uiso   1.00
H700   H     0.25259   0.28012   0.67820   0.00000  Uiso   1.00
H701   H     0.21000   0.27072   0.73177   0.00000  Uiso   1.00
H702   H     0.00064   0.14748   0.97598   0.00000  Uiso   1.00
H703   H     0.00258   0.20536   0.52660   0.00000  Uiso   1.00
H704   H     0.25559   0.29617   0.77719   0.00000  Uiso   1.00
H705   H     0.07810   0.03719   0.72632   0.00000  Uiso   1.00
H706   H     0.26895   0.14786   0.54473   0.00000  Uiso   1.00
H707   H     0.06794   0.20711   0.95829   0.00000  Uiso   1.00
H708   H     0.11361   0.15102   0.61231   0.00000  Uiso   1.00
N709   N     0.11736   0.16668   0.74999   0.00000  Uiso   1.00
N710   N     0.21597   0.16666   0.75001   0.00000  Uiso   1.00
N711   N     0.10174   0.11343   0.80763   0.00000  Uiso   1.00
N712   N     0.23159   0.21850   0.69116   0.00000  Uiso   1.00
O713   O     0.03958   0.10655   0.75000   0.00000  Uiso   1.00
O714   O     0.29375   0.22678   0.75000   0.00000  Uiso   1.00
O715   O     0.29372   0.10654   0.75001   0.00000  Uiso   1.00
O716   O     0.03961   0.22679   0.75000   0.00000  Uiso   1.00
O717   O     0.01852   0.16668   0.81492   0.00000  Uiso   1.00
O718   O     0.31481   0.16666   0.68509   0.00000  Uiso   1.00
O719   O     0.27267   0.16667   0.81492   0.00000  Uiso   1.00
O720   O     0.06067   0.16667   0.68508   0.00000  Uiso   1.00
C721   C     0.33339   0.08741   0.75028   0.00000  Uiso   1.00
C722   C     0.37726   0.02117   0.73730   0.00000  Uiso   1.00
C723   C     0.66654   0.29057   0.75062   0.00000  Uiso   1.00
C724   C     0.33346   0.04279   0.75080   0.00000  Uiso   1.00
C725   C     0.51740   0.14119   0.77816   0.00000  Uiso   1.00
C726   C     0.48282   0.19172   0.72140   0.00000  Uiso   1.00
C727   C     0.46746   0.14127   0.77883   0.00000  Uiso   1.00
C728   C     0.53237   0.19227   0.72163   0.00000  Uiso   1.00
C729   C     0.63946   0.16674   0.83612   0.00000  Uiso   1.00
C730   C     0.36051   0.16716   0.66390   0.00000  Uiso   1.00
C731   C     0.62424   0.16622   0.88543   0.00000  Uiso   1.00
C732   C     0.66654   0.24593   0.75018   0.00000  Uiso   1.00
C733   C     0.37576   0.17105   0.61477   0.00000  Uiso   1.00
C734   C     0.64127   0.15497   0.95721   0.00000  Uiso   1.00
C735   C     0.36097   0.19351   0.54466   0.00000  Uiso   1.00
C736   C     0.65736   0.15911   0.91081   0.00000  Uiso   1.00
C737   C     0.34399   0.18534   0.59040   0.00000  Uiso   1.00
C738   C     0.57514   0.17145   0.90718   0.00000  Uiso   1.00
C739   C     0.42437   0.16395   0.59267   0.00000  Uiso   1.00
C740   C     0.55820   0.16961   0.95422   0.00000  Uiso   1.00
C741   C     0.44287   0.17323   0.54677   0.00000  Uiso   1.00
C742   C     0.59208   0.15994   0.97906   0.00000  Uiso   1.00
C743   C     0.52815   0.15942   0.54769   0.00000  Uiso   1.00
C744   C     0.40993   0.18742   0.52265   0.00000  Uiso   1.00
C745   C     0.50857   0.17599   0.97705   0.00000  Uiso   1.00
C746   C     0.49297   0.16909   0.52432   0.00000  Uiso   1.00
C747   C     0.44088   0.10701   0.85243   0.00000  Uiso   1.00
C748   C     0.55365   0.26205   0.69588   0.00000  Uiso   1.00
C749   C     0.47430   0.19004   0.95440   0.00000  Uiso   1.00
C750   C     0.57666   0.15521   0.52542   0.00000  Uiso   1.00
C751   C     0.42611   0.19586   0.97693   0.00000  Uiso   1.00
C752   C     0.62295   0.02153   0.76481   0.00000  Uiso   1.00
C753   C     0.37712   0.31183   0.73706   0.00000  Uiso   1.00
C754   C     0.62289   0.31219   0.76507   0.00000  Uiso   1.00
Cu755  Cu    0.38022   0.16667   0.75000   0.00000  Uiso   1.00
Cu756  Cu    0.61978   0.16666   0.75000   0.00000  Uiso   1.00
H757   H     0.63974   0.19117   0.60675   0.00000  Uiso   1.00
H758   H     0.55057   0.17577   0.88650   0.00000  Uiso   1.00
H759   H     0.51984   0.15599   0.58360   0.00000  Uiso   1.00
H760   H     0.48366   0.19827   0.91932   0.00000  Uiso   1.00
H761   H     0.58884   0.03783   0.77607   0.00000  Uiso   1.00
H762   H     0.41125   0.29553   0.72588   0.00000  Uiso   1.00
H763   H     0.53096   0.12049   0.79978   0.00000  Uiso   1.00
H764   H     0.47013   0.21143   0.69829   0.00000  Uiso   1.00
H765   H     0.43175   0.08606   0.79220   0.00000  Uiso   1.00
H766   H     0.47198   0.08613   0.85171   0.00000  Uiso   1.00
H767   H     0.40789   0.09214   0.87373   0.00000  Uiso   1.00
H768   H     0.36210   0.15575   0.89478   0.00000  Uiso   1.00
H769   H     0.44628   0.13687   0.86762   0.00000  Uiso   1.00
H770   H     0.57017   0.20926   0.65847   0.00000  Uiso   1.00
H771   H     0.52341   0.27001   0.68090   0.00000  Uiso   1.00
H772   H     0.58592   0.28012   0.67820   0.00000  Uiso   1.00
H773   H     0.54334   0.27072   0.73177   0.00000  Uiso   1.00
H774   H     0.33398   0.14748   0.97598   0.00000  Uiso   1.00
H775   H     0.33592   0.20536   0.52660   0.00000  Uiso   1.00
H776   H     0.58892   0.29617   0.77719   0.00000  Uiso   1.00
H777   H     0.41144   0.03719   0.72632   0.00000  Uiso   1.00
H778   H     0.60229   0.14786   0.54473   0.00000  Uiso   1.00
H779   H     0.40128   0.20711   0.95829   0.00000  Uiso   1.00
H780   H     0.44694   0.15102   0.61231   0.00000  Uiso   1.00
N781   N     0.45069   0.16668   0.74999   0.00000  Uiso   1.00
N782   N     0.54931   0.16666   0.75001   0.00000  Uiso   1.00
N783   N     0.43507   0.11343   0.80763   0.00000  Uiso   1.00
N784   N     0.56492   0.21850   0.69116   0.00000  Uiso   1.00
O785   O     0.37291   0.10655   0.75000   0.00000  Uiso   1.00
O786   O     0.62709   0.22678   0.75000   0.00000  Uiso   1.00
O787   O     0.62706   0.10654   0.75001   0.00000  Uiso   1.00
O788   O     0.37294   0.22679   0.75000   0.00000  Uiso   1.00
O789   O     0.35186   0.16668   0.81492   0.00000  Uiso   1.00
O790   O     0.64814   0.16666   0.68509   0.00000  Uiso   1.00
O791   O     0.60600   0.16667   0.81492   0.00000  Uiso   1.00
O792   O     0.39400   0.16667   0.68508   0.00000  Uiso   1.00
C793   C     0.66672   0.08741   0.75028   0.00000  Uiso   1.00
C794   C     0.71059   0.02117   0.73730   0.00000  Uiso   1.00
C795   C     0.99987   0.29057   0.75062   0.00000  Uiso   1.00
C796   C     0.66680   0.04279   0.75080   0.00000  Uiso   1.00
C797   C     0.85073   0.14119   0.77816   0.00000  Uiso   1.00
C798   C     0.81616   0.19172   0.72140   0.00000  Uiso   1.00
C799   C     0.80080   0.14127   0.77883   0.00000  Uiso   1.00
C800   C     0.86570   0.19227   0.72163   0.00000  Uiso   1.00
C801   C     0.97279   0.16674   0.83612   0.00000  Uiso   1.00
C802   C     0.69385   0.16716   0.66390   0.00000  Uiso   1.00
C803   C     0.95757   0.16622   0.88543   0.00000  Uiso   1.00
C804   C     0.99987   0.24593   0.75018   0.00000  Uiso   1.00
C805   C     0.70909   0.17105   0.61477   0.00000  Uiso   1.00
C806   C     0.97461   0.15497   0.95721   0.00000  Uiso   1.00
C807   C     0.69430   0.19351   0.54466   0.00000  Uiso   1.00
C808   C     0.99070   0.15911   0.91081   0.00000  Uiso   1.00
C809   C     0.67732   0.18534   0.59040   0.00000  Uiso   1.00
C810   C     0.90847   0.17145   0.90718   0.00000  Uiso   1.00
C811   C     0.75770   0.16395   0.59267   0.00000  Uiso   1.00
C812   C     0.89154   0.16961   0.95422   0.00000  Uiso   1.00
C813   C     0.77621   0.17323   0.54677   0.00000  Uiso   1.00
C814   C     0.92542   0.15994   0.97906   0.00000  Uiso   1.00
C815   C     0.86149   0.15942   0.54769   0.00000  Uiso   1.00
C816   C     0.74326   0.18742   0.52265   0.00000  Uiso   1.00
C817   C     0.84190   0.17599   0.97705   0.00000  Uiso   1.00
C818   C     0.82630   0.16909   0.52432   0.00000  Uiso   1.00
C819   C     0.77421   0.10701   0.85243   0.00000  Uiso   1.00
C820   C     0.88698   0.26205   0.69588   0.00000  Uiso   1.00
C821   C     0.80763   0.19004   0.95440   0.00000  Uiso   1.00
C822   C     0.91000   0.15521   0.52542   0.00000  Uiso   1.00
C823   C     0.75945   0.19586   0.97693   0.00000  Uiso   1.00
C824   C     0.95628   0.02153   0.76481   0.00000  Uiso   1.00
C825   C     0.71045   0.31183   0.73706   0.00000  Uiso   1.00
C826   C     0.95623   0.31219   0.76507   0.00000  Uiso   1.00
Cu827  Cu    0.71355   0.16667   0.75000   0.00000  Uiso   1.00
Cu828  Cu    0.95311   0.16666   0.75000   0.00000  Uiso   1.00
H829   H     0.97307   0.19117   0.60675   0.00000  Uiso   1.00
H830   H     0.88390   0.17577   0.88650   0.00000  Uiso   1.00
H831   H     0.85317   0.15599   0.58360   0.00000  Uiso   1.00
H832   H     0.81699   0.19827   0.91932   0.00000  Uiso   1.00
H833   H     0.92217   0.03783   0.77607   0.00000  Uiso   1.00
H834   H     0.74458   0.29553   0.72588   0.00000  Uiso   1.00
H835   H     0.86429   0.12049   0.79978   0.00000  Uiso   1.00
H836   H     0.80346   0.21143   0.69829   0.00000  Uiso   1.00
H837   H     0.76508   0.08606   0.79220   0.00000  Uiso   1.00
H838   H     0.80532   0.08613   0.85171   0.00000  Uiso   1.00
H839   H     0.74122   0.09214   0.87373   0.00000  Uiso   1.00
H840   H     0.69543   0.15575   0.89478   0.00000  Uiso   1.00
H841   H     0.77962   0.13687   0.86762   0.00000  Uiso   1.00
H842   H     0.90350   0.20926   0.65847   0.00000  Uiso   1.00
H843   H     0.85675   0.27001   0.68090   0.00000  Uiso   1.00
H844   H     0.91925   0.28012   0.67820   0.00000  Uiso   1.00
H845   H     0.87667   0.27072   0.73177   0.00000  Uiso   1.00
H846   H     0.66731   0.14748   0.97598   0.00000  Uiso   1.00
H847   H     0.66925   0.20536   0.52660   0.00000  Uiso   1.00
H848   H     0.92225   0.29617   0.77719   0.00000  Uiso   1.00
H849   H     0.74477   0.03719   0.72632   0.00000  Uiso   1.00
H850   H     0.93562   0.14786   0.54473   0.00000  Uiso   1.00
H851   H     0.73461   0.20711   0.95829   0.00000  Uiso   1.00
H852   H     0.78028   0.15102   0.61231   0.00000  Uiso   1.00
N853   N     0.78403   0.16668   0.74999   0.00000  Uiso   1.00
N854   N     0.88264   0.16666   0.75001   0.00000  Uiso   1.00
N855   N     0.76840   0.11343   0.80763   0.00000  Uiso   1.00
N856   N     0.89825   0.21850   0.69116   0.00000  Uiso   1.00
O857   O     0.70625   0.10655   0.75000   0.00000  Uiso   1.00
O858   O     0.96042   0.22678   0.75000   0.00000  Uiso   1.00
O859   O     0.96039   0.10654   0.75001   0.00000  Uiso   1.00
O860   O     0.70628   0.22679   0.75000   0.00000  Uiso   1.00
O861   O     0.68519   0.16668   0.81492   0.00000  Uiso   1.00
O862   O     0.98148   0.16666   0.68509   0.00000  Uiso   1.00
O863   O     0.93933   0.16667   0.81492   0.00000  Uiso   1.00
O864   O     0.72733   0.16667   0.68508   0.00000  Uiso   1.00
C865   C     0.00006   0.42074   0.75028   0.00000  Uiso   1.00
C866   C     0.04392   0.35450   0.73730   0.00000  Uiso   1.00
C867   C     0.33321   0.62390   0.75062   0.00000  Uiso   1.00
C868   C     0.00013   0.37612   0.75080   0.00000  Uiso   1.00
C869   C     0.18407   0.47452   0.77816   0.00000  Uiso   1.00
C870   C     0.14949   0.52505   0.72140   0.00000  Uiso   1.00
C871   C     0.13413   0.47460   0.77883   0.00000  Uiso   1.00
C872   C     0.19904   0.52560   0.72163   0.00000  Uiso   1.00
C873   C     0.30612   0.50007   0.83612   0.00000  Uiso   1.00
C874   C     0.02718   0.50049   0.66390   0.00000  Uiso   1.00
C875   C     0.29090   0.49955   0.88543   0.00000  Uiso   1.00
C876   C     0.33320   0.57927   0.75018   0.00000  Uiso   1.00
C877   C     0.04243   0.50439   0.61477   0.00000  Uiso   1.00
C878   C     0.30794   0.48831   0.95721   0.00000  Uiso   1.00
C879   C     0.02764   0.52684   0.54466   0.00000  Uiso   1.00
C880   C     0.32403   0.49244   0.91081   0.00000  Uiso   1.00
C881   C     0.01066   0.51867   0.59040   0.00000  Uiso   1.00
C882   C     0.24180   0.50479   0.90718   0.00000  Uiso   1.00
C883   C     0.09103   0.49728   0.59267   0.00000  Uiso   1.00
C884   C     0.22487   0.50294   0.95422   0.00000  Uiso   1.00
C885   C     0.10954   0.50656   0.54677   0.00000  Uiso   1.00
C886   C     0.25875   0.49327   0.97906   0.00000  Uiso   1.00
C887   C     0.19482   0.49276   0.54769   0.00000  Uiso   1.00
C888   C     0.07659   0.52075   0.52265   0.00000  Uiso   1.00
C889   C     0.17524   0.50933   0.97705   0.00000  Uiso   1.00
C890   C     0.15964   0.50243   0.52432   0.00000  Uiso   1.00
C891   C     0.10755   0.44034   0.85243   0.00000  Uiso   1.00
C892   C     0.22031   0.59539   0.69588   0.00000  Uiso   1.00
C893   C     0.14096   0.52337   0.95440   0.00000  Uiso   1.00
C894   C     0.24333   0.48854   0.52542   0.00000  Uiso   1.00
C895   C     0.09278   0.52920   0.97693   0.00000  Uiso   1.00
C896   C     0.28962   0.35486   0.76481   0.00000  Uiso   1.00
C897   C     0.04379   0.64516   0.73706   0.00000  Uiso   1.00
C898   C     0.28956   0.64552   0.76507   0.00000  Uiso   1.00
Cu899  Cu    0.04689   0.50001   0.75000   0.00000  Uiso   1.00
Cu900  Cu    0.28645   0.49999   0.75000   0.00000  Uiso   1.00
H901   H     0.30641   0.52450   0.60675   0.00000  Uiso   1.00
H902   H     0.21724   0.50911   0.88650   0.00000  Uiso   1.00
H903   H     0.18650   0.48933   0.58360   0.00000  Uiso   1.00
H904   H     0.15033   0.53161   0.91932   0.00000  Uiso   1.00
H905   H     0.25551   0.37117   0.77607   0.00000  Uiso   1.00
H906   H     0.07792   0.62887   0.72588   0.00000  Uiso   1.00
H907   H     0.19762   0.45383   0.79978   0.00000  Uiso   1.00
H908   H     0.13680   0.54476   0.69829   0.00000  Uiso   1.00
H909   H     0.09842   0.41940   0.79220   0.00000  Uiso   1.00
H910   H     0.13865   0.41946   0.85171   0.00000  Uiso   1.00
H911   H     0.07456   0.42547   0.87373   0.00000  Uiso   1.00
H912   H     0.02877   0.48909   0.89478   0.00000  Uiso   1.00
H913   H     0.11295   0.47020   0.86762   0.00000  Uiso   1.00
H914   H     0.23683   0.54260   0.65847   0.00000  Uiso   1.00
H915   H     0.19008   0.60334   0.68090   0.00000  Uiso   1.00
H916   H     0.25259   0.61345   0.67820   0.00000  Uiso   1.00
H917   H     0.21000   0.60406   0.73177   0.00000  Uiso   1.00
H918   H     0.00064   0.48082   0.97598   0.00000  Uiso   1.00
H919   H     0.00258   0.53869   0.52660   0.00000  Uiso   1.00
H920   H     0.25559   0.62950   0.77719   0.00000  Uiso   1.00
H921   H     0.07810   0.37052   0.72632   0.00000  Uiso   1.00
H922   H     0.26895   0.48120   0.54473   0.00000  Uiso   1.00
H923   H     0.06794   0.54045   0.95829   0.00000  Uiso   1.00
H924   H     0.11361   0.48435   0.61231   0.00000  Uiso   1.00
N925   N     0.11736   0.50001   0.74999   0.00000  Uiso   1.00
N926   N     0.21597   0.49999   0.75001   0.00000  Uiso   1.00
N927   N     0.10174   0.44676   0.80763   0.00000  Uiso   1.00
N928   N     0.23159   0.55183   0.69116   0.00000  Uiso   1.00
O929   O     0.03958   0.43989   0.75000   0.00000  Uiso   1.00
O930   O     0.29375   0.56011   0.75000   0.00000  Uiso   1.00
O931   O     0.29372   0.43988   0.75001   0.00000  Uiso   1.00
O932   O     0.03961   0.56012   0.75000   0.00000  Uiso   1.00
O933   O     0.01852   0.50001   0.81492   0.00000  Uiso   1.00
O934   O     0.31481   0.49999   0.68509   0.00000  Uiso   1.00
O935   O     0.27267   0.50000   0.81492   0.00000  Uiso   1.00
O936   O     0.06067   0.50000   0.68508   0.00000  Uiso   1.00
C937   C     0.33339   0.42074   0.75028   0.00000  Uiso   1.00
C938   C     0.37726   0.35450   0.73730   0.00000  Uiso   1.00
C939   C     0.66654   0.62390   0.75062   0.00000  Uiso   1.00
C940   C     0.33346   0.37612   0.75080   0.00000  Uiso   1.00
C941   C     0.51740   0.47452   0.77816   0.00000  Uiso   1.00
C942   C     0.48282   0.52505   0.72140   0.00000  Uiso   1.00
C943   C     0.46746   0.47460   0.77883   0.00000  Uiso   1.00
C944   C     0.53237   0.52560   0.72163   0.00000  Uiso   1.00
C945   C     0.63946   0.50007   0.83612   0.00000  Uiso   1.00
C946   C     0.36051   0.50049   0.66390   0.00000  Uiso   1.00
C947   C     0.62424   0.49955   0.88543   0.00000  Uiso   1.00
C948   C     0.66654   0.57927   0.75018   0.00000  Uiso   1.00
C949   C     0.37576   0.50439   0.61477   0.00000  Uiso   1.00
C950   C     0.64127   0.48831   0.95721   0.00000  Uiso   1.00
C951   C     0.36097   0.52684   0.54466   0.00000  Uiso   1.00
C952   C     0.65736   0.49244   0.91081   0.00000  Uiso   1.00
C953   C     0.34399   0.51867   0.59040   0.00000  Uiso   1.00
C954   C     0.57514   0.50479   0.90718   0.00000  Uiso   1.00
C955   C     0.42437   0.49728   0.59267   0.00000  Uiso   1.00
C956   C     0.55820   0.50294   0.95422   0.00000  Uiso   1.00
C957   C     0.44287   0.50656   0.54677   0.00000  Uiso   1.00
C958   C     0.59208   0.49327   0.97906   0.00000  Uiso   1.00
C959   C     0.52815   0.49276   0.54769   0.00000  Uiso   1.00
C960   C     0.40993   0.52075   0.52265   0.00000  Uiso   1.00
C961   C     0.50857   0.50933   0.97705   0.00000  Uiso   1.00
C962   C     0.49297   0.50243   0.52432   0.00000  Uiso   1.00
C963   C     0.44088   0.44034   0.85243   0.00000  Uiso   1.00
C964   C     0.55365   0.59539   0.69588   0.00000  Uiso   1.00
C965   C     0.47430   0.52337   0.95440   0.00000  Uiso   1.00
C966   C     0.57666   0.48854   0.52542   0.00000  Uiso   1.00
C967   C     0.42611   0.52920   0.97693   0.00000  Uiso   1.00
C968   C     0.62295   0.35486   0.76481   0.00000  Uiso   1.00
C969   C     0.37712   0.64516   0.73706   0.00000  Uiso   1.00
C970   C     0.62289   0.64552   0.76507   0.00000  Uiso   1.00
Cu971  Cu    0.38022   0.50001   0.75000   0.00000  Uiso   1.00
Cu972  Cu    0.61978   0.49999   0.75000   0.00000  Uiso   1.00
H973   H     0.63974   0.52450   0.60675   0.00000  Uiso   1.00
H974   H     0.55057   0.50911   0.88650   0.00000  Uiso   1.00
H975   H     0.51984   0.48933   0.58360   0.00000  Uiso   1.00
H976   H     0.48366   0.53161   0.91932   0.00000  Uiso   1.00
H977   H     0.58884   0.37117   0.77607   0.00000  Uiso   1.00
H978   H     0.41125   0.62887   0.72588   0.00000  Uiso   1.00
H979   H     0.53096   0.45383   0.79978   0.00000  Uiso   1.00
H980   H     0.47013   0.54476   0.69829   0.00000  Uiso   1.00
H981   H     0.43175   0.41940   0.79220   0.00000  Uiso   1.00
H982   H     0.47198   0.41946   0.85171   0.00000  Uiso   1.00
H983   H     0.40789   0.42547   0.87373   0.00000  Uiso   1.00
H984   H     0.36210   0.48909   0.89478   0.00000  Uiso   1.00
H985   H     0.44628   0.47020   0.86762   0.00000  Uiso   1.00
H986   H     0.57017   0.54260   0.65847   0.00000  Uiso   1.00
H987   H     0.52341   0.60334   0.68090   0.00000  Uiso   1.00
H988   H     0.58592   0.61345   0.67820   0.00000  Uiso   1.00
H989   H     0.54334   0.60406   0.73177   0.00000  Uiso   1.00
H990   H     0.33398   0.48082   0.97598   0.00000  Uiso   1.00
H991   H     0.33592   0.53869   0.52660   0.00000  Uiso   1.00
H992   H     0.58892   0.62950   0.77719   0.00000  Uiso   1.00
H993   H     0.41144   0.37052   0.72632   0.00000  Uiso   1.00
H994   H     0.60229   0.48120   0.54473   0.00000  Uiso   1.00
H995   H     0.40128   0.54045   0.95829   0.00000  Uiso   1.00
H996   H     0.44694   0.48435   0.61231   0.00000  Uiso   1.00
N997   N     0.45069   0.50001   0.74999   0.00000  Uiso   1.00
N998   N     0.54931   0.49999   0.75001   0.00000  Uiso   1.00
N999   N     0.43507   0.44676   0.80763   0.00000  Uiso   1.00
N1000  N     0.56492   0.55183   0.69116   0.00000  Uiso   1.00
O1001  O     0.37291   0.43989   0.75000   0.00000  Uiso   1.00
O1002  O     0.62709   0.56011   0.75000   0.00000  Uiso   1.00
O1003  O     0.62706   0.43988   0.75001   0.00000  Uiso   1.00
O1004  O     0.37294   0.56012   0.75000   0.00000  Uiso   1.00
O1005  O     0.35186   0.50001   0.81492   0.00000  Uiso   1.00
O1006  O     0.64814   0.49999   0.68509   0.00000  Uiso   1.00
O1007  O     0.60600   0.50000   0.81492   0.00000  Uiso   1.00
O1008  O     0.39400   0.50000   0.68508   0.00000  Uiso   1.00
C1009  C     0.66672   0.42074   0.75028   0.00000  Uiso   1.00
C1010  C     0.71059   0.35450   0.73730   0.00000  Uiso   1.00
C1011  C     0.99987   0.62390   0.75062   0.00000  Uiso   1.00
C1012  C     0.66680   0.37612   0.75080   0.00000  Uiso   1.00
C1013  C     0.85073   0.47452   0.77816   0.00000  Uiso   1.00
C1014  C     0.81616   0.52505   0.72140   0.00000  Uiso   1.00
C1015  C     0.80080   0.47460   0.77883   0.00000  Uiso   1.00
C1016  C     0.86570   0.52560   0.72163   0.00000  Uiso   1.00
C1017  C     0.97279   0.50007   0.83612   0.00000  Uiso   1.00
C1018  C     0.69385   0.50049   0.66390   0.00000  Uiso   1.00
C1019  C     0.95757   0.49955   0.88543   0.00000  Uiso   1.00
C1020  C     0.99987   0.57927   0.75018   0.00000  Uiso   1.00
C1021  C     0.70909   0.50439   0.61477   0.00000  Uiso   1.00
C1022  C     0.97461   0.48831   0.95721   0.00000  Uiso   1.00
C1023  C     0.69430   0.52684   0.54466   0.00000  Uiso   1.00
C1024  C     0.99070   0.49244   0.91081   0.00000  Uiso   1.00
C1025  C     0.67732   0.51867   0.59040   0.00000  Uiso   1.00
C1026  C     0.90847   0.50479   0.90718   0.00000  Uiso   1.00
C1027  C     0.75770   0.49728   0.59267   0.00000  Uiso   1.00
C1028  C     0.89154   0.50294   0.95422   0.00000  Uiso   1.00
C1029  C     0.77621   0.50656   0.54677   0.00000  Uiso   1.00
C1030  C     0.92542   0.49327   0.97906   0.00000  Uiso   1.00
C1031  C     0.86149   0.49276   0.54769   0.00000  Uiso   1.00
C1032  C     0.74326   0.52075   0.52265   0.00000  Uiso   1.00
C1033  C     0.84190   0.50933   0.97705   0.00000  Uiso   1.00
C1034  C     0.82630   0.50243   0.52432   0.00000  Uiso   1.00
C1035  C     0.77421   0.44034   0.85243   0.00000  Uiso   1.00
C1036  C     0.88698   0.59539   0.69588   0.00000  Uiso   1.00
C1037  C     0.80763   0.52337   0.95440   0.00000  Uiso   1.00
C1038  C     0.91000   0.48854   0.52542   0.00000  Uiso   1.00
C1039  C     0.75945   0.52920   0.97693   0.00000  Uiso   1.00
C1040  C     0.95628   0.35486   0.76481   0.00000  Uiso   1.00
C1041  C     0.71045   0.64516   0.73706   0.00000  Uiso   1.00
C1042  C     0.95623   0.64552   0.76507   0.00000  Uiso   1.00
Cu1043 Cu    0.71355   0.50001   0.75000   0.00000  Uiso   1.00
Cu1044 Cu    0.95311   0.49999   0.75000   0.00000  Uiso   1.00
H1045  H     0.97307   0.52450   0.60675   0.00000  Uiso   1.00
H1046  H     0.88390   0.50911   0.88650   0.00000  Uiso   1.00
H1047  H     0.85317   0.48933   0.58360   0.00000  Uiso   1.00
H1048  H     0.81699   0.53161   0.91932   0.00000  Uiso   1.00
H1049  H     0.92217   0.37117   0.77607   0.00000  Uiso   1.00
H1050  H     0.74458   0.62887   0.72588   0.00000  Uiso   1.00
H1051  H     0.86429   0.45383   0.79978   0.00000  Uiso   1.00
H1052  H     0.80346   0.54476   0.69829   0.00000  Uiso   1.00
H1053  H     0.76508   0.41940   0.79220   0.00000  Uiso   1.00
H1054  H     0.80532   0.41946   0.85171   0.00000  Uiso   1.00
H1055  H     0.74122   0.42547   0.87373   0.00000  Uiso   1.00
H1056  H     0.69543   0.48909   0.89478   0.00000  Uiso   1.00
H1057  H     0.77962   0.47020   0.86762   0.00000  Uiso   1.00
H1058  H     0.90350   0.54260   0.65847   0.00000  Uiso   1.00
H1059  H     0.85675   0.60334   0.68090   0.00000  Uiso   1.00
H1060  H     0.91925   0.61345   0.67820   0.00000  Uiso   1.00
H1061  H     0.87667   0.60406   0.73177   0.00000  Uiso   1.00
H1062  H     0.66731   0.48082   0.97598   0.00000  Uiso   1.00
H1063  H     0.66925   0.53869   0.52660   0.00000  Uiso   1.00
H1064  H     0.92225   0.62950   0.77719   0.00000  Uiso   1.00
H1065  H     0.74477   0.37052   0.72632   0.00000  Uiso   1.00
H1066  H     0.93562   0.48120   0.54473   0.00000  Uiso   1.00
H1067  H     0.73461   0.54045   0.95829   0.00000  Uiso   1.00
H1068  H     0.78028   0.48435   0.61231   0.00000  Uiso   1.00
N1069  N     0.78403   0.50001   0.74999   0.00000  Uiso   1.00
N1070  N     0.88264   0.49999   0.75001   0.00000  Uiso   1.00
N1071  N     0.76840   0.44676   0.80763   0.00000  Uiso   1.00
N1072  N     0.89825   0.55183   0.69116   0.00000  Uiso   1.00
O1073  O     0.70625   0.43989   0.75000   0.00000  Uiso   1.00
O1074  O     0.96042   0.56011   0.75000   0.00000  Uiso   1.00
O1075  O     0.96039   0.43988   0.75001   0.00000  Uiso   1.00
O1076  O     0.70628   0.56012   0.75000   0.00000  Uiso   1.00
O1077  O     0.68519   0.50001   0.81492   0.00000  Uiso   1.00
O1078  O     0.98148   0.49999   0.68509   0.00000  Uiso   1.00
O1079  O     0.93933   0.50000   0.81492   0.00000  Uiso   1.00
O1080  O     0.72733   0.50000   0.68508   0.00000  Uiso   1.00
C1081  C     0.00006   0.75407   0.75028   0.00000  Uiso   1.00
C1082  C     0.04392   0.68783   0.73730   0.00000  Uiso   1.00
C1083  C     0.33321   0.95723   0.75062   0.00000  Uiso   1.00
C1084  C     0.00013   0.70945   0.75080   0.00000  Uiso   1.00
C1085  C     0.18407   0.80786   0.77816   0.00000  Uiso   1.00
C1086  C     0.14949   0.85839   0.72140   0.00000  Uiso   1.00
C1087  C     0.13413   0.80793   0.77883   0.00000  Uiso   1.00
C1088  C     0.19904   0.85894   0.72163   0.00000  Uiso   1.00
C1089  C     0.30612   0.83341   0.83612   0.00000  Uiso   1.00
C1090  C     0.02718   0.83382   0.66390   0.00000  Uiso   1.00
C1091  C     0.29090   0.83289   0.88543   0.00000  Uiso   1.00
C1092  C     0.33320   0.91260   0.75018   0.00000  Uiso   1.00
C1093  C     0.04243   0.83772   0.61477   0.00000  Uiso   1.00
C1094  C     0.30794   0.82164   0.95721   0.00000  Uiso   1.00
C1095  C     0.02764   0.86017   0.54466   0.00000  Uiso   1.00
C1096  C     0.32403   0.82577   0.91081   0.00000  Uiso   1.00
C1097  C     0.01066   0.85200   0.59040   0.00000  Uiso   1.00
C1098  C     0.24180   0.83812   0.90718   0.00000  Uiso   1.00
C1099  C     0.09103   0.83062   0.59267   0.00000  Uiso   1.00
C1100  C     0.22487   0.83628   0.95422   0.00000  Uiso   1.00
C1101  C     0.10954   0.83989   0.54677   0.00000  Uiso   1.00
C1102  C     0.25875   0.82660   0.97906   0.00000  Uiso   1.00
C1103  C     0.19482   0.82609   0.54769   0.00000  Uiso   1.00
C1104  C     0.07659   0.85408   0.52265   0.00000  Uiso   1.00
C1105  C     0.17524   0.84266   0.97705   0.00000  Uiso   1.00
C1106  C     0.15964   0.83576   0.52432   0.00000  Uiso   1.00
C1107  C     0.10755   0.77368   0.85243   0.00000  Uiso   1.00
C1108  C     0.22031   0.92872   0.69588   0.00000  Uiso   1.00
C1109  C     0.14096   0.85670   0.95440   0.00000  Uiso   1.00
C1110  C     0.24333   0.82187   0.52542   0.00000  Uiso   1.00
C1111  C     0.09278   0.86253   0.97693   0.00000  Uiso   1.00
C1112  C     0.28962   0.68819   0.76481   0.00000  Uiso   1.00
C1113  C     0.04379   0.97849   0.73706   0.00000  Uiso   1.00
C1114  C     0.28956   0.97885   0.76507   0.00000  Uiso   1.00
Cu1115 Cu    0.04689   0.83334   0.75000   0.00000  Uiso   1.00
Cu1116 Cu    0.28645   0.83333   0.75000   0.00000  Uiso   1.00
H1117  H     0.30641   0.85783   0.60675   0.00000  Uiso   1.00
H1118  H     0.21724   0.84244   0.88650   0.00000  Uiso   1.00
H1119  H     0.18650   0.82266   0.58360   0.00000  Uiso   1.00
H1120  H     0.15033   0.86494   0.91932   0.00000  Uiso   1.00
H1121  H     0.25551   0.70450   0.77607   0.00000  Uiso   1.00
H1122  H     0.07792   0.96220   0.72588   0.00000  Uiso   1.00
H1123  H     0.19762   0.78716   0.79978   0.00000  Uiso   1.00
H1124  H     0.13680   0.87810   0.69829   0.00000  Uiso   1.00
H1125  H     0.09842   0.75273   0.79220   0.00000  Uiso   1.00
H1126  H     0.13865   0.75280   0.85171   0.00000  Uiso   1.00
H1127  H     0.07456   0.75880   0.87373   0.00000  Uiso   1.00
H1128  H     0.02877   0.82242   0.89478   0.00000  Uiso   1.00
H1129  H     0.11295   0.80354   0.86762   0.00000  Uiso   1.00
H1130  H     0.23683   0.87593   0.65847   0.00000  Uiso   1.00
H1131  H     0.19008   0.93667   0.68090   0.00000  Uiso   1.00
H1132  H     0.25259   0.94679   0.67820   0.00000  Uiso   1.00
H1133  H     0.21000   0.93739   0.73177   0.00000  Uiso   1.00
H1134  H     0.00064   0.81415   0.97598   0.00000  Uiso   1.00
H1135  H     0.00258   0.87202   0.52660   0.00000  Uiso   1.00
H1136  H     0.25559   0.96284   0.77719   0.00000  Uiso   1.00
H1137  H     0.07810   0.70386   0.72632   0.00000  Uiso   1.00
H1138  H     0.26895   0.81453   0.54473   0.00000  Uiso   1.00
H1139  H     0.06794   0.87378   0.95829   0.00000  Uiso   1.00
H1140  H     0.11361   0.81769   0.61231   0.00000  Uiso   1.00
N1141  N     0.11736   0.83334   0.74999   0.00000  Uiso   1.00
N1142  N     0.21597   0.83332   0.75001   0.00000  Uiso   1.00
N1143  N     0.10174   0.78010   0.80763   0.00000  Uiso   1.00
N1144  N     0.23159   0.88516   0.69116   0.00000  Uiso   1.00
O1145  O     0.03958   0.77322   0.75000   0.00000  Uiso   1.00
O1146  O     0.29375   0.89345   0.75000   0.00000  Uiso   1.00
O1147  O     0.29372   0.77321   0.75001   0.00000  Uiso   1.00
O1148  O     0.03961   0.89346   0.75000   0.00000  Uiso   1.00
O1149  O     0.01852   0.83334   0.81492   0.00000  Uiso   1.00
O1150  O     0.31481   0.83332   0.68509   0.00000  Uiso   1.00
O1151  O     0.27267   0.83333   0.81492   0.00000  Uiso   1.00
O1152  O     0.06067   0.83333   0.68508   0.00000  Uiso   1.00
C1153  C     0.33339   0.75407   0.75028   0.00000  Uiso   1.00
C1154  C     0.37726   0.68783   0.73730   0.00000  Uiso   1.00
C1155  C     0.66654   0.95723   0.75062   0.00000  Uiso   1.00
C1156  C     0.33346   0.70945   0.75080   0.00000  Uiso   1.00
C1157  C     0.51740   0.80786   0.77816   0.00000  Uiso   1.00
C1158  C     0.48282   0.85839   0.72140   0.00000  Uiso   1.00
C1159  C     0.46746   0.80793   0.77883   0.00000  Uiso   1.00
C1160  C     0.53237   0.85894   0.72163   0.00000  Uiso   1.00
C1161  C     0.63946   0.83341   0.83612   0.00000  Uiso   1.00
C1162  C     0.36051   0.83382   0.66390   0.00000  Uiso   1.00
C1163  C     0.62424   0.83289   0.88543   0.00000  Uiso   1.00
C1164  C     0.66654   0.91260   0.75018   0.00000  Uiso   1.00
C1165  C     0.37576   0.83772   0.61477   0.00000  Uiso   1.00
C1166  C     0.64127   0.82164   0.95721   0.00000  Uiso   1.00
C1167  C     0.36097   0.86017   0.54466   0.00000  Uiso   1.00
C1168  C     0.65736   0.82577   0.91081   0.00000  Uiso   1.00
C1169  C     0.34399   0.85200   0.59040   0.00000  Uiso   1.00
C1170  C     0.57514   0.83812   0.90718   0.00000  Uiso   1.00
C1171  C     0.42437   0.83062   0.59267   0.00000  Uiso   1.00
C1172  C     0.55820   0.83628   0.95422   0.00000  Uiso   1.00
C1173  C     0.44287   0.83989   0.54677   0.00000  Uiso   1.00
C1174  C     0.59208   0.82660   0.97906   0.00000  Uiso   1.00
C1175  C     0.52815   0.82609   0.54769   0.00000  Uiso   1.00
C1176  C     0.40993   0.85408   0.52265   0.00000  Uiso   1.00
C1177  C     0.50857   0.84266   0.97705   0.00000  Uiso   1.00
C1178  C     0.49297   0.83576   0.52432   0.00000  Uiso   1.00
C1179  C     0.44088   0.77368   0.85243   0.00000  Uiso   1.00
C1180  C     0.55365   0.92872   0.69588   0.00000  Uiso   1.00
C1181  C     0.47430   0.85670   0.95440   0.00000  Uiso   1.00
C1182  C     0.57666   0.82187   0.52542   0.00000  Uiso   1.00
C1183  C     0.42611   0.86253   0.97693   0.00000  Uiso   1.00
C1184  C     0.62295   0.68819   0.76481   0.00000  Uiso   1.00
C1185  C     0.37712   0.97849   0.73706   0.00000  Uiso   1.00
C1186  C     0.62289   0.97885   0.76507   0.00000  Uiso   1.00
Cu1187 Cu    0.38022   0.83334   0.75000   0.00000  Uiso   1.00
Cu1188 Cu    0.61978   0.83333   0.75000   0.00000  Uiso   1.00
H1189  H     0.63974   0.85783   0.60675   0.00000  Uiso   1.00
H1190  H     0.55057   0.84244   0.88650   0.00000  Uiso   1.00
H1191  H     0.51984   0.82266   0.58360   0.00000  Uiso   1.00
H1192  H     0.48366   0.86494   0.91932   0.00000  Uiso   1.00
H1193  H     0.58884   0.70450   0.77607   0.00000  Uiso   1.00
H1194  H     0.41125   0.96220   0.72588   0.00000  Uiso   1.00
H1195  H     0.53096   0.78716   0.79978   0.00000  Uiso   1.00
H1196  H     0.47013   0.87810   0.69829   0.00000  Uiso   1.00
H1197  H     0.43175   0.75273   0.79220   0.00000  Uiso   1.00
H1198  H     0.47198   0.75280   0.85171   0.00000  Uiso   1.00
H1199  H     0.40789   0.75880   0.87373   0.00000  Uiso   1.00
H1200  H     0.36210   0.82242   0.89478   0.00000  Uiso   1.00
H1201  H     0.44628   0.80354   0.86762   0.00000  Uiso   1.00
H1202  H     0.57017   0.87593   0.65847   0.00000  Uiso   1.00
H1203  H     0.52341   0.93667   0.68090   0.00000  Uiso   1.00
H1204  H     0.58592   0.94679   0.67820   0.00000  Uiso   1.00
H1205  H     0.54334   0.93739   0.73177   0.00000  Uiso   1.00
H1206  H     0.33398   0.81415   0.97598   0.00000  Uiso   1.00
H1207  H     0.33592   0.87202   0.52660   0.00000  Uiso   1.00
H1208  H     0.58892   0.96284   0.77719   0.00000  Uiso   1.00
H1209  H     0.41144   0.70386   0.72632   0.00000  Uiso   1.00
H1210  H     0.60229   0.81453   0.54473   0.00000  Uiso   1.00
H1211  H     0.40128   0.87378   0.95829   0.00000  Uiso   1.00
H1212  H     0.44694   0.81769   0.61231   0.00000  Uiso   1.00
N1213  N     0.45069   0.83334   0.74999   0.00000  Uiso   1.00
N1214  N     0.54931   0.83332   0.75001   0.00000  Uiso   1.00
N1215  N     0.43507   0.78010   0.80763   0.00000  Uiso   1.00
N1216  N     0.56492   0.88516   0.69116   0.00000  Uiso   1.00
O1217  O     0.37291   0.77322   0.75000   0.00000  Uiso   1.00
O1218  O     0.62709   0.89345   0.75000   0.00000  Uiso   1.00
O1219  O     0.62706   0.77321   0.75001   0.00000  Uiso   1.00
O1220  O     0.37294   0.89346   0.75000   0.00000  Uiso   1.00
O1221  O     0.35186   0.83334   0.81492   0.00000  Uiso   1.00
O1222  O     0.64814   0.83332   0.68509   0.00000  Uiso   1.00
O1223  O     0.60600   0.83333   0.81492   0.00000  Uiso   1.00
O1224  O     0.39400   0.83333   0.68508   0.00000  Uiso   1.00
C1225  C     0.66672   0.75407   0.75028   0.00000  Uiso   1.00
C1226  C     0.71059   0.68783   0.73730   0.00000  Uiso   1.00
C1227  C     0.99987   0.95723   0.75062   0.00000  Uiso   1.00
C1228  C     0.66680   0.70945   0.75080   0.00000  Uiso   1.00
C1229  C     0.85073   0.80786   0.77816   0.00000  Uiso   1.00
C1230  C     0.81616   0.85839   0.72140   0.00000  Uiso   1.00
C1231  C     0.80080   0.80793   0.77883   0.00000  Uiso   1.00
C1232  C     0.86570   0.85894   0.72163   0.00000  Uiso   1.00
C1233  C     0.97279   0.83341   0.83612   0.00000  Uiso   1.00
C1234  C     0.69385   0.83382   0.66390   0.00000  Uiso   1.00
C1235  C     0.95757   0.83289   0.88543   0.00000  Uiso   1.00
C1236  C     0.99987   0.91260   0.75018   0.00000  Uiso   1.00
C1237  C     0.70909   0.83772   0.61477   0.00000  Uiso   1.00
C1238  C     0.97461   0.82164   0.95721   0.00000  Uiso   1.00
C1239  C     0.69430   0.86017   0.54466   0.00000  Uiso   1.00
C1240  C     0.99070   0.82577   0.91081   0.00000  Uiso   1.00
C1241  C     0.67732   0.85200   0.59040   0.00000  Uiso   1.00
C1242  C     0.90847   0.83812   0.90718   0.00000  Uiso   1.00
C1243  C     0.75770   0.83062   0.59267   0.00000  Uiso   1.00
C1244  C     0.89154   0.83628   0.95422   0.00000  Uiso   1.00
C1245  C     0.77621   0.83989   0.54677   0.00000  Uiso   1.00
C1246  C     0.92542   0.82660   0.97906   0.00000  Uiso   1.00
C1247  C     0.86149   0.82609   0.54769   0.00000  Uiso   1.00
C1248  C     0.74326   0.85408   0.52265   0.00000  Uiso   1.00
C1249  C     0.84190   0.84266   0.97705   0.00000  Uiso   1.00
C1250  C     0.82630   0.83576   0.52432   0.00000  Uiso   1.00
C1251  C     0.77421   0.77368   0.85243   0.00000  Uiso   1.00
C1252  C     0.88698   0.92872   0.69588   0.00000  Uiso   1.00
C1253  C     0.80763   0.85670   0.95440   0.00000  Uiso   1.00
C1254  C     0.91000   0.82187   0.52542   0.00000  Uiso   1.00
C1255  C     0.75945   0.86253   0.97693   0.00000  Uiso   1.00
C1256  C     0.95628   0.68819   0.76481   0.00000  Uiso   1.00
C1257  C     0.71045   0.97849   0.73706   0.00000  Uiso   1.00
C1258  C     0.95623   0.97885   0.76507   0.00000  Uiso   1.00
Cu1259 Cu    0.71355   0.83334   0.75000   0.00000  Uiso   1.00
Cu1260 Cu    0.95311   0.83333   0.75000   0.00000  Uiso   1.00
H1261  H     0.97307   0.85783   0.60675   0.00000  Uiso   1.00
H1262  H     0.88390   0.84244   0.88650   0.00000  Uiso   1.00
H1263  H     0.85317   0.82266   0.58360   0.00000  Uiso   1.00
H1264  H     0.81699   0.86494   0.91932   0.00000  Uiso   1.00
H1265  H     0.92217   0.70450   0.77607   0.00000  Uiso   1.00
H1266  H     0.74458   0.96220   0.72588   0.00000  Uiso   1.00
H1267  H     0.86429   0.78716   0.79978   0.00000  Uiso   1.00
H1268  H     0.80346   0.87810   0.69829   0.00000  Uiso   1.00
H1269  H     0.76508   0.75273   0.79220   0.00000  Uiso   1.00
H1270  H     0.80532   0.75280   0.85171   0.00000  Uiso   1.00
H1271  H     0.74122   0.75880   0.87373   0.00000  Uiso   1.00
H1272  H     0.69543   0.82242   0.89478   0.00000  Uiso   1.00
H1273  H     0.77962   0.80354   0.86762   0.00000  Uiso   1.00
H1274  H     0.90350   0.87593   0.65847   0.00000  Uiso   1.00
H1275  H     0.85675   0.93667   0.68090   0.00000  Uiso   1.00
H1276  H     0.91925   0.94679   0.67820   0.00000  Uiso   1.00
H1277  H     0.87667   0.93739   0.73177   0.00000  Uiso   1.00
H1278  H     0.66731   0.81415   0.97598   0.00000  Uiso   1.00
H1279  H     0.66925   0.87202   0.52660   0.00000  Uiso   1.00
H1280  H     0.92225   0.96284   0.77719   0.00000  Uiso   1.00
H1281  H     0.74477   0.70386   0.72632   0.00000  Uiso   1.00
H1282  H     0.93562   0.81453   0.54473   0.00000  Uiso   1.00
H1283  H     0.73461   0.87378   0.95829   0.00000  Uiso   1.00
H1284  H     0.78028   0.81769   0.61231   0.00000  Uiso   1.00
N1285  N     0.78403   0.83334   0.74999   0.00000  Uiso   1.00
N1286  N     0.88264   0.83332   0.75001   0.00000  Uiso   1.00
N1287  N     0.76840   0.78010   0.80763   0.00000  Uiso   1.00
N1288  N     0.89825   0.88516   0.69116   0.00000  Uiso   1.00
O1289  O     0.70625   0.77322   0.75000   0.00000  Uiso   1.00
O1290  O     0.96042   0.89345   0.75000   0.00000  Uiso   1.00
O1291  O     0.96039   0.77321   0.75001   0.00000  Uiso   1.00
O1292  O     0.70628   0.89346   0.75000   0.00000  Uiso   1.00
O1293  O     0.68519   0.83334   0.81492   0.00000  Uiso   1.00
O1294  O     0.98148   0.83332   0.68509   0.00000  Uiso   1.00
O1295  O     0.93933   0.83333   0.81492   0.00000  Uiso   1.00
O1296  O     0.72733   0.83333   0.68508   0.00000  Uiso   1.00
loop_
_geom_bond_atom_site_label_1
_geom_bond_atom_site_label_2
_geom_bond_distance
_geom_bond_site_symmetry_2
_ccdc_geom_bond_type
C1     O65     1.294   .     A
C1     C4      1.447   .     S
C1     O211    1.292   1_455 S
C2     C4      1.400   .     A
C2     H57     1.083   .     S
C2     C465    1.384   1_545 S
C3     C12     1.448   .     S
C3     C34     1.399   .     A
C3     C105    1.402   .     S
C4     C176    1.401   1_455 S
C5     N62     1.360   .     A
C5     H43     1.080   .     S
C5     C7      1.426   .     A
C6     N61     1.361   .     A
C6     H44     1.082   .     S
C6     C8      1.422   .     A
C7     N63     1.424   .     S
C7     N61     1.379   .     A
C8     N64     1.418   .     S
C8     N62     1.375   .     A
C9     C11     1.470   .     S
C9     O71     1.295   .     A
C9     O141    1.302   .     S
C10    O72     1.296   .     A
C10    C13     1.469   .     S
C10    O214    1.302   1_455 S
C11    C18     1.401   .     A
C11    C16     1.397   .     A
C12    O66     1.296   .     A
C12    O140    1.291   .     S
C13    C17     1.397   .     A
C13    C19     1.400   .     A
C14    C22     1.403   .     A
C14    C16     1.391   .     A
C14    H126    1.083   .     S
C15    C24     1.403   .     A
C15    C17     1.391   .     A
C15    H55     1.083   .     S
C16    H120    1.079   .     S
C17    H181    1.079   1_455 S
C18    H38     1.075   .     S
C18    C20     1.407   .     A
C19    H60     1.075   .     S
C19    C21     1.407   .     A
C20    C22     1.418   .     A
C20    C25     1.427   .     A
C21    C26     1.427   .     A
C21    C24     1.418   .     A
C22    C678    1.390   .     S
C23    C30     1.386   .     A
C23    C26     1.417   .     A
C23    H39     1.076   .     S
C24    C679    1.390   1_554 S
C25    C29     1.416   .     A
C25    C674    1.426   .     S
C26    C673    1.426   1_554 S
C27    N63     1.449   .     S
C27    H46     1.111   .     S
C27    H47     1.110   .     S
C27    H49     1.112   .     S
C28    H52     1.110   .     S
C28    H53     1.110   .     S
C28    H51     1.111   .     S
C28    N64     1.447   .     S
C29    H40     1.076   .     S
C29    C31     1.386   .     A
C30    H58     1.084   .     S
C30    C670    1.390   1_554 S
C31    H59     1.084   .     S
C31    C672    1.390   .     S
C32    H41     1.084   .     S
C32    C76     1.401   .     S
C32    C466    1.384   1_545 S
C33    H42     1.084   .     S
C33    C147    1.402   1_455 S
C33    C218    1.384   .     S
C34    H56     1.082   .     S
C34    C248    1.384   .     S
Cu35   O68     1.959   .     S
Cu35   O72     1.940   .     S
Cu35   O69     1.956   .     S
Cu35   N61     2.019   .     S
Cu35   O65     1.963   .     S
Cu35   Cu180   2.687   1_455 S
Cu36   O71     1.940   .     S
Cu36   N62     2.019   .     S
Cu36   O70     1.956   .     S
Cu36   O66     1.963   .     S
Cu36   O67     1.959   .     S
Cu36   Cu107   2.687   .     S
H37    C89     1.079   .     S
H45    N63     1.030   .     S
H48    C160    1.079   1_455 S
H50    N64     1.030   .     S
H54    C158    1.083   1_455 S
O67    C73     1.292   .     S
O68    C156    1.291   1_455 S
O69    C153    1.302   1_455 S
O70    C82     1.302   .     S
C73    O137    1.294   .     A
C73    C76     1.447   .     S
C74    C76     1.400   .     A
C74    H129    1.083   .     S
C74    C537    1.384   1_545 S
C75    C84     1.448   .     S
C75    C106    1.399   .     A
C75    C177    1.402   .     S
C77    N134    1.360   .     A
C77    H115    1.080   .     S
C77    C79     1.426   .     A
C78    N133    1.361   .     A
C78    H116    1.082   .     S
C78    C80     1.422   .     A
C79    N135    1.424   .     S
C79    N133    1.379   .     A
C80    N136    1.418   .     S
C80    N134    1.375   .     A
C81    C83     1.470   .     S
C81    O143    1.295   .     A
C81    O213    1.302   .     S
C82    O144    1.296   .     A
C82    C85     1.469   .     S
C83    C90     1.401   .     A
C83    C88     1.397   .     A
C84    O138    1.296   .     A
C84    O212    1.291   .     S
C85    C89     1.397   .     A
C85    C91     1.400   .     A
C86    C94     1.403   .     A
C86    C88     1.391   .     A
C86    H198    1.083   .     S
C87    C96     1.403   .     A
C87    C89     1.391   .     A
C87    H127    1.083   .     S
C88    H192    1.079   .     S
C90    H110    1.075   .     S
C90    C92     1.407   .     A
C91    H132    1.075   .     S
C91    C93     1.407   .     A
C92    C94     1.418   .     A
C92    C97     1.427   .     A
C93    C98     1.427   .     A
C93    C96     1.418   .     A
C94    C750    1.390   .     S
C95    C102    1.386   .     A
C95    C98     1.417   .     A
C95    H111    1.076   .     S
C96    C751    1.390   1_554 S
C97    C101    1.416   .     A
C97    C746    1.426   .     S
C98    C745    1.426   1_554 S
C99    N135    1.449   .     S
C99    H118    1.111   .     S
C99    H119    1.110   .     S
C99    H121    1.112   .     S
C100   H124    1.110   .     S
C100   H125    1.110   .     S
C100   H123    1.111   .     S
C100   N136    1.447   .     S
C101   H112    1.076   .     S
C101   C103    1.386   .     A
C102   H130    1.084   .     S
C102   C742    1.390   1_554 S
C103   H131    1.084   .     S
C103   C744    1.390   .     S
C104   H113    1.084   .     S
C104   C148    1.401   .     S
C104   C538    1.384   1_545 S
C105   H114    1.084   .     S
C105   C290    1.384   .     S
C106   H128    1.082   .     S
C106   C320    1.384   .     S
Cu107  O140    1.959   .     S
Cu107  O144    1.940   .     S
Cu107  O141    1.956   .     S
Cu107  N133    2.019   .     S
Cu107  O137    1.963   .     S
Cu108  O143    1.940   .     S
Cu108  N134    2.019   .     S
Cu108  O142    1.956   .     S
Cu108  O138    1.963   .     S
Cu108  O139    1.959   .     S
Cu108  Cu179   2.687   .     S
H109   C161    1.079   .     S
H117   N135    1.030   .     S
H122   N136    1.030   .     S
O139   C145    1.292   .     S
O142   C154    1.302   .     S
C145   O209    1.294   .     A
C145   C148    1.447   .     S
C146   C148    1.400   .     A
C146   H201    1.083   .     S
C146   C609    1.384   1_545 S
C147   C156    1.448   .     S
C147   C178    1.399   .     A
C147   C33     1.402   1_655 S
C149   N206    1.360   .     A
C149   H187    1.080   .     S
C149   C151    1.426   .     A
C150   N205    1.361   .     A
C150   H188    1.082   .     S
C150   C152    1.422   .     A
C151   N207    1.424   .     S
C151   N205    1.379   .     A
C152   N208    1.418   .     S
C152   N206    1.375   .     A
C153   C155    1.470   .     S
C153   O215    1.295   .     A
C153   O69     1.302   1_655 S
C154   O216    1.296   .     A
C154   C157    1.469   .     S
C155   C162    1.401   .     A
C155   C160    1.397   .     A
C156   O210    1.296   .     A
C156   O68     1.291   1_655 S
C157   C161    1.397   .     A
C157   C163    1.400   .     A
C158   C166    1.403   .     A
C158   C160    1.391   .     A
C158   H54     1.083   1_655 S
C159   C168    1.403   .     A
C159   C161    1.391   .     A
C159   H199    1.083   .     S
C160   H48     1.079   1_655 S
C162   H182    1.075   .     S
C162   C164    1.407   .     A
C163   H204    1.075   .     S
C163   C165    1.407   .     A
C164   C166    1.418   .     A
C164   C169    1.427   .     A
C165   C170    1.427   .     A
C165   C168    1.418   .     A
C166   C822    1.390   .     S
C167   C174    1.386   .     A
C167   C170    1.417   .     A
C167   H183    1.076   .     S
C168   C823    1.390   1_554 S
C169   C173    1.416   .     A
C169   C818    1.426   .     S
C170   C817    1.426   1_554 S
C171   N207    1.449   .     S
C171   H190    1.111   .     S
C171   H191    1.110   .     S
C171   H193    1.112   .     S
C172   H196    1.110   .     S
C172   H197    1.110   .     S
C172   H195    1.111   .     S
C172   N208    1.447   .     S
C173   H184    1.076   .     S
C173   C175    1.386   .     A
C174   H202    1.084   .     S
C174   C814    1.390   1_554 S
C175   H203    1.084   .     S
C175   C816    1.390   .     S
C176   H185    1.084   .     S
C176   C4      1.401   1_655 S
C176   C610    1.384   1_545 S
C177   H186    1.084   .     S
C177   C362    1.384   .     S
C178   H200    1.082   .     S
C178   C392    1.384   .     S
Cu179  O212    1.959   .     S
Cu179  O216    1.940   .     S
Cu179  O213    1.956   .     S
Cu179  N205    2.019   .     S
Cu179  O209    1.963   .     S
Cu180  O215    1.940   .     S
Cu180  N206    2.019   .     S
Cu180  O214    1.956   .     S
Cu180  O210    1.963   .     S
Cu180  O211    1.959   .     S
Cu180  Cu35    2.687   1_655 S
H181   C17     1.079   1_655 S
H189   N207    1.030   .     S
H194   N208    1.030   .     S
O211   C1      1.292   1_655 S
O214   C10     1.302   1_655 S
C217   O281    1.294   .     A
C217   C220    1.447   .     S
C217   O427    1.292   1_455 S
C218   C220    1.400   .     A
C218   H273    1.083   .     S
C219   C228    1.448   .     S
C219   C250    1.399   .     A
C219   C321    1.402   .     S
C220   C392    1.401   1_455 S
C221   N278    1.360   .     A
C221   H259    1.080   .     S
C221   C223    1.426   .     A
C222   N277    1.361   .     A
C222   H260    1.082   .     S
C222   C224    1.422   .     A
C223   N279    1.424   .     S
C223   N277    1.379   .     A
C224   N280    1.418   .     S
C224   N278    1.375   .     A
C225   C227    1.470   .     S
C225   O287    1.295   .     A
C225   O357    1.302   .     S
C226   O288    1.296   .     A
C226   C229    1.469   .     S
C226   O430    1.302   1_455 S
C227   C234    1.401   .     A
C227   C232    1.397   .     A
C228   O282    1.296   .     A
C228   O356    1.291   .     S
C229   C233    1.397   .     A
C229   C235    1.400   .     A
C230   C238    1.403   .     A
C230   C232    1.391   .     A
C230   H342    1.083   .     S
C231   C240    1.403   .     A
C231   C233    1.391   .     A
C231   H271    1.083   .     S
C232   H336    1.079   .     S
C233   H397    1.079   1_455 S
C234   H254    1.075   .     S
C234   C236    1.407   .     A
C235   H276    1.075   .     S
C235   C237    1.407   .     A
C236   C238    1.418   .     A
C236   C241    1.427   .     A
C237   C242    1.427   .     A
C237   C240    1.418   .     A
C238   C894    1.390   .     S
C239   C246    1.386   .     A
C239   C242    1.417   .     A
C239   H255    1.076   .     S
C240   C895    1.390   1_554 S
C241   C245    1.416   .     A
C241   C890    1.426   .     S
C242   C889    1.426   1_554 S
C243   N279    1.449   .     S
C243   H262    1.111   .     S
C243   H263    1.110   .     S
C243   H265    1.112   .     S
C244   H268    1.110   .     S
C244   H269    1.110   .     S
C244   H267    1.111   .     S
C244   N280    1.447   .     S
C245   H256    1.076   .     S
C245   C247    1.386   .     A
C246   H274    1.084   .     S
C246   C886    1.390   1_554 S
C247   H275    1.084   .     S
C247   C888    1.390   .     S
C248   H257    1.084   .     S
C248   C292    1.401   .     S
C249   H258    1.084   .     S
C249   C363    1.402   1_455 S
C249   C434    1.384   .     S
C250   H272    1.082   .     S
C250   C464    1.384   .     S
Cu251  O284    1.959   .     S
Cu251  O288    1.940   .     S
Cu251  O285    1.956   .     S
Cu251  N277    2.019   .     S
Cu251  O281    1.963   .     S
Cu251  Cu396   2.687   1_455 S
Cu252  O287    1.940   .     S
Cu252  N278    2.019   .     S
Cu252  O286    1.956   .     S
Cu252  O282    1.963   .     S
Cu252  O283    1.959   .     S
Cu252  Cu323   2.687   .     S
H253   C305    1.079   .     S
H261   N279    1.030   .     S
H264   C376    1.079   1_455 S
H266   N280    1.030   .     S
H270   C374    1.083   1_455 S
O283   C289    1.292   .     S
O284   C372    1.291   1_455 S
O285   C369    1.302   1_455 S
O286   C298    1.302   .     S
C289   O353    1.294   .     A
C289   C292    1.447   .     S
C290   C292    1.400   .     A
C290   H345    1.083   .     S
C291   C300    1.448   .     S
C291   C322    1.399   .     A
C291   C393    1.402   .     S
C293   N350    1.360   .     A
C293   H331    1.080   .     S
C293   C295    1.426   .     A
C294   N349    1.361   .     A
C294   H332    1.082   .     S
C294   C296    1.422   .     A
C295   N351    1.424   .     S
C295   N349    1.379   .     A
C296   N352    1.418   .     S
C296   N350    1.375   .     A
C297   C299    1.470   .     S
C297   O359    1.295   .     A
C297   O429    1.302   .     S
C298   O360    1.296   .     A
C298   C301    1.469   .     S
C299   C306    1.401   .     A
C299   C304    1.397   .     A
C300   O354    1.296   .     A
C300   O428    1.291   .     S
C301   C305    1.397   .     A
C301   C307    1.400   .     A
C302   C310    1.403   .     A
C302   C304    1.391   .     A
C302   H414    1.083   .     S
C303   C312    1.403   .     A
C303   C305    1.391   .     A
C303   H343    1.083   .     S
C304   H408    1.079   .     S
C306   H326    1.075   .     S
C306   C308    1.407   .     A
C307   H348    1.075   .     S
C307   C309    1.407   .     A
C308   C310    1.418   .     A
C308   C313    1.427   .     A
C309   C314    1.427   .     A
C309   C312    1.418   .     A
C310   C966    1.390   .     S
C311   C318    1.386   .     A
C311   C314    1.417   .     A
C311   H327    1.076   .     S
C312   C967    1.390   1_554 S
C313   C317    1.416   .     A
C313   C962    1.426   .     S
C314   C961    1.426   1_554 S
C315   N351    1.449   .     S
C315   H334    1.111   .     S
C315   H335    1.110   .     S
C315   H337    1.112   .     S
C316   H340    1.110   .     S
C316   H341    1.110   .     S
C316   H339    1.111   .     S
C316   N352    1.447   .     S
C317   H328    1.076   .     S
C317   C319    1.386   .     A
C318   H346    1.084   .     S
C318   C958    1.390   1_554 S
C319   H347    1.084   .     S
C319   C960    1.390   .     S
C320   H329    1.084   .     S
C320   C364    1.401   .     S
C321   H330    1.084   .     S
C321   C506    1.384   .     S
C322   H344    1.082   .     S
C322   C536    1.384   .     S
Cu323  O356    1.959   .     S
Cu323  O360    1.940   .     S
Cu323  O357    1.956   .     S
Cu323  N349    2.019   .     S
Cu323  O353    1.963   .     S
Cu324  O359    1.940   .     S
Cu324  N350    2.019   .     S
Cu324  O358    1.956   .     S
Cu324  O354    1.963   .     S
Cu324  O355    1.959   .     S
Cu324  Cu395   2.687   .     S
H325   C377    1.079   .     S
H333   N351    1.030   .     S
H338   N352    1.030   .     S
O355   C361    1.292   .     S
O358   C370    1.302   .     S
C361   O425    1.294   .     A
C361   C364    1.447   .     S
C362   C364    1.400   .     A
C362   H417    1.083   .     S
C363   C372    1.448   .     S
C363   C394    1.399   .     A
C363   C249    1.402   1_655 S
C365   N422    1.360   .     A
C365   H403    1.080   .     S
C365   C367    1.426   .     A
C366   N421    1.361   .     A
C366   H404    1.082   .     S
C366   C368    1.422   .     A
C367   N423    1.424   .     S
C367   N421    1.379   .     A
C368   N424    1.418   .     S
C368   N422    1.375   .     A
C369   C371    1.470   .     S
C369   O431    1.295   .     A
C369   O285    1.302   1_655 S
C370   O432    1.296   .     A
C370   C373    1.469   .     S
C371   C378    1.401   .     A
C371   C376    1.397   .     A
C372   O426    1.296   .     A
C372   O284    1.291   1_655 S
C373   C377    1.397   .     A
C373   C379    1.400   .     A
C374   C382    1.403   .     A
C374   C376    1.391   .     A
C374   H270    1.083   1_655 S
C375   C384    1.403   .     A
C375   C377    1.391   .     A
C375   H415    1.083   .     S
C376   H264    1.079   1_655 S
C378   H398    1.075   .     S
C378   C380    1.407   .     A
C379   H420    1.075   .     S
C379   C381    1.407   .     A
C380   C382    1.418   .     A
C380   C385    1.427   .     A
C381   C386    1.427   .     A
C381   C384    1.418   .     A
C382   C1038   1.390   .     S
C383   C390    1.386   .     A
C383   C386    1.417   .     A
C383   H399    1.076   .     S
C384   C1039   1.390   1_554 S
C385   C389    1.416   .     A
C385   C1034   1.426   .     S
C386   C1033   1.426   1_554 S
C387   N423    1.449   .     S
C387   H406    1.111   .     S
C387   H407    1.110   .     S
C387   H409    1.112   .     S
C388   H412    1.110   .     S
C388   H413    1.110   .     S
C388   H411    1.111   .     S
C388   N424    1.447   .     S
C389   H400    1.076   .     S
C389   C391    1.386   .     A
C390   H418    1.084   .     S
C390   C1030   1.390   1_554 S
C391   H419    1.084   .     S
C391   C1032   1.390   .     S
C392   H401    1.084   .     S
C392   C220    1.401   1_655 S
C393   H402    1.084   .     S
C393   C578    1.384   .     S
C394   H416    1.082   .     S
C394   C608    1.384   .     S
Cu395  O428    1.959   .     S
Cu395  O432    1.940   .     S
Cu395  O429    1.956   .     S
Cu395  N421    2.019   .     S
Cu395  O425    1.963   .     S
Cu396  O431    1.940   .     S
Cu396  N422    2.019   .     S
Cu396  O430    1.956   .     S
Cu396  O426    1.963   .     S
Cu396  O427    1.959   .     S
Cu396  Cu251   2.687   1_655 S
H397   C233    1.079   1_655 S
H405   N423    1.030   .     S
H410   N424    1.030   .     S
O427   C217    1.292   1_655 S
O430   C226    1.302   1_655 S
C433   O497    1.294   .     A
C433   C436    1.447   .     S
C433   O643    1.292   1_455 S
C434   C436    1.400   .     A
C434   H489    1.083   .     S
C435   C444    1.448   .     S
C435   C466    1.399   .     A
C435   C537    1.402   .     S
C436   C608    1.401   1_455 S
C437   N494    1.360   .     A
C437   H475    1.080   .     S
C437   C439    1.426   .     A
C438   N493    1.361   .     A
C438   H476    1.082   .     S
C438   C440    1.422   .     A
C439   N495    1.424   .     S
C439   N493    1.379   .     A
C440   N496    1.418   .     S
C440   N494    1.375   .     A
C441   C443    1.470   .     S
C441   O503    1.295   .     A
C441   O573    1.302   .     S
C442   O504    1.296   .     A
C442   C445    1.469   .     S
C442   O646    1.302   1_455 S
C443   C450    1.401   .     A
C443   C448    1.397   .     A
C444   O498    1.296   .     A
C444   O572    1.291   .     S
C445   C449    1.397   .     A
C445   C451    1.400   .     A
C446   C454    1.403   .     A
C446   C448    1.391   .     A
C446   H558    1.083   .     S
C447   C456    1.403   .     A
C447   C449    1.391   .     A
C447   H487    1.083   .     S
C448   H552    1.079   .     S
C449   H613    1.079   1_455 S
C450   H470    1.075   .     S
C450   C452    1.407   .     A
C451   H492    1.075   .     S
C451   C453    1.407   .     A
C452   C454    1.418   .     A
C452   C457    1.427   .     A
C453   C458    1.427   .     A
C453   C456    1.418   .     A
C454   C1110   1.390   .     S
C455   C462    1.386   .     A
C455   C458    1.417   .     A
C455   H471    1.076   .     S
C456   C1111   1.390   1_554 S
C457   C461    1.416   .     A
C457   C1106   1.426   .     S
C458   C1105   1.426   1_554 S
C459   N495    1.449   .     S
C459   H478    1.111   .     S
C459   H479    1.110   .     S
C459   H481    1.112   .     S
C460   H484    1.110   .     S
C460   H485    1.110   .     S
C460   H483    1.111   .     S
C460   N496    1.447   .     S
C461   H472    1.076   .     S
C461   C463    1.386   .     A
C462   H490    1.084   .     S
C462   C1102   1.390   1_554 S
C463   H491    1.084   .     S
C463   C1104   1.390   .     S
C464   H473    1.084   .     S
C464   C508    1.401   .     S
C465   H474    1.084   .     S
C465   C579    1.402   1_455 S
C465   C2      1.384   1_565 S
C466   H488    1.082   .     S
C466   C32     1.384   1_565 S
Cu467  O500    1.959   .     S
Cu467  O504    1.940   .     S
Cu467  O501    1.956   .     S
Cu467  N493    2.019   .     S
Cu467  O497    1.963   .     S
Cu467  Cu612   2.687   1_455 S
Cu468  O503    1.940   .     S
Cu468  N494    2.019   .     S
Cu468  O502    1.956   .     S
Cu468  O498    1.963   .     S
Cu468  O499    1.959   .     S
Cu468  Cu539   2.687   .     S
H469   C521    1.079   .     S
H477   N495    1.030   .     S
H480   C592    1.079   1_455 S
H482   N496    1.030   .     S
H486   C590    1.083   1_455 S
O499   C505    1.292   .     S
O500   C588    1.291   1_455 S
O501   C585    1.302   1_455 S
O502   C514    1.302   .     S
C505   O569    1.294   .     A
C505   C508    1.447   .     S
C506   C508    1.400   .     A
C506   H561    1.083   .     S
C507   C516    1.448   .     S
C507   C538    1.399   .     A
C507   C609    1.402   .     S
C509   N566    1.360   .     A
C509   H547    1.080   .     S
C509   C511    1.426   .     A
C510   N565    1.361   .     A
C510   H548    1.082   .     S
C510   C512    1.422   .     A
C511   N567    1.424   .     S
C511   N565    1.379   .     A
C512   N568    1.418   .     S
C512   N566    1.375   .     A
C513   C515    1.470   .     S
C513   O575    1.295   .     A
C513   O645    1.302   .     S
C514   O576    1.296   .     A
C514   C517    1.469   .     S
C515   C522    1.401   .     A
C515   C520    1.397   .     A
C516   O570    1.296   .     A
C516   O644    1.291   .     S
C517   C521    1.397   .     A
C517   C523    1.400   .     A
C518   C526    1.403   .     A
C518   C520    1.391   .     A
C518   H630    1.083   .     S
C519   C528    1.403   .     A
C519   C521    1.391   .     A
C519   H559    1.083   .     S
C520   H624    1.079   .     S
C522   H542    1.075   .     S
C522   C524    1.407   .     A
C523   H564    1.075   .     S
C523   C525    1.407   .     A
C524   C526    1.418   .     A
C524   C529    1.427   .     A
C525   C530    1.427   .     A
C525   C528    1.418   .     A
C526   C1182   1.390   .     S
C527   C534    1.386   .     A
C527   C530    1.417   .     A
C527   H543    1.076   .     S
C528   C1183   1.390   1_554 S
C529   C533    1.416   .     A
C529   C1178   1.426   .     S
C530   C1177   1.426   1_554 S
C531   N567    1.449   .     S
C531   H550    1.111   .     S
C531   H551    1.110   .     S
C531   H553    1.112   .     S
C532   H556    1.110   .     S
C532   H557    1.110   .     S
C532   H555    1.111   .     S
C532   N568    1.447   .     S
C533   H544    1.076   .     S
C533   C535    1.386   .     A
C534   H562    1.084   .     S
C534   C1174   1.390   1_554 S
C535   H563    1.084   .     S
C535   C1176   1.390   .     S
C536   H545    1.084   .     S
C536   C580    1.401   .     S
C537   H546    1.084   .     S
C537   C74     1.384   1_565 S
C538   H560    1.082   .     S
C538   C104    1.384   1_565 S
Cu539  O572    1.959   .     S
Cu539  O576    1.940   .     S
Cu539  O573    1.956   .     S
Cu539  N565    2.019   .     S
Cu539  O569    1.963   .     S
Cu540  O575    1.940   .     S
Cu540  N566    2.019   .     S
Cu540  O574    1.956   .     S
Cu540  O570    1.963   .     S
Cu540  O571    1.959   .     S
Cu540  Cu611   2.687   .     S
H541   C593    1.079   .     S
H549   N567    1.030   .     S
H554   N568    1.030   .     S
O571   C577    1.292   .     S
O574   C586    1.302   .     S
C577   O641    1.294   .     A
C577   C580    1.447   .     S
C578   C580    1.400   .     A
C578   H633    1.083   .     S
C579   C588    1.448   .     S
C579   C610    1.399   .     A
C579   C465    1.402   1_655 S
C581   N638    1.360   .     A
C581   H619    1.080   .     S
C581   C583    1.426   .     A
C582   N637    1.361   .     A
C582   H620    1.082   .     S
C582   C584    1.422   .     A
C583   N639    1.424   .     S
C583   N637    1.379   .     A
C584   N640    1.418   .     S
C584   N638    1.375   .     A
C585   C587    1.470   .     S
C585   O647    1.295   .     A
C585   O501    1.302   1_655 S
C586   O648    1.296   .     A
C586   C589    1.469   .     S
C587   C594    1.401   .     A
C587   C592    1.397   .     A
C588   O642    1.296   .     A
C588   O500    1.291   1_655 S
C589   C593    1.397   .     A
C589   C595    1.400   .     A
C590   C598    1.403   .     A
C590   C592    1.391   .     A
C590   H486    1.083   1_655 S
C591   C600    1.403   .     A
C591   C593    1.391   .     A
C591   H631    1.083   .     S
C592   H480    1.079   1_655 S
C594   H614    1.075   .     S
C594   C596    1.407   .     A
C595   H636    1.075   .     S
C595   C597    1.407   .     A
C596   C598    1.418   .     A
C596   C601    1.427   .     A
C597   C602    1.427   .     A
C597   C600    1.418   .     A
C598   C1254   1.390   .     S
C599   C606    1.386   .     A
C599   C602    1.417   .     A
C599   H615    1.076   .     S
C600   C1255   1.390   1_554 S
C601   C605    1.416   .     A
C601   C1250   1.426   .     S
C602   C1249   1.426   1_554 S
C603   N639    1.449   .     S
C603   H622    1.111   .     S
C603   H623    1.110   .     S
C603   H625    1.112   .     S
C604   H628    1.110   .     S
C604   H629    1.110   .     S
C604   H627    1.111   .     S
C604   N640    1.447   .     S
C605   H616    1.076   .     S
C605   C607    1.386   .     A
C606   H634    1.084   .     S
C606   C1246   1.390   1_554 S
C607   H635    1.084   .     S
C607   C1248   1.390   .     S
C608   H617    1.084   .     S
C608   C436    1.401   1_655 S
C609   H618    1.084   .     S
C609   C146    1.384   1_565 S
C610   H632    1.082   .     S
C610   C176    1.384   1_565 S
Cu611  O644    1.959   .     S
Cu611  O648    1.940   .     S
Cu611  O645    1.956   .     S
Cu611  N637    2.019   .     S
Cu611  O641    1.963   .     S
Cu612  O647    1.940   .     S
Cu612  N638    2.019   .     S
Cu612  O646    1.956   .     S
Cu612  O642    1.963   .     S
Cu612  O643    1.959   .     S
Cu612  Cu467   2.687   1_655 S
H613   C449    1.079   1_655 S
H621   N639    1.030   .     S
H626   N640    1.030   .     S
O643   C433    1.292   1_655 S
O646   C442    1.302   1_655 S
C649   O713    1.294   .     A
C649   C652    1.447   .     S
C649   O859    1.292   1_455 S
C650   C652    1.400   .     A
C650   H705    1.083   .     S
C650   C1113   1.384   1_545 S
C651   C660    1.448   .     S
C651   C682    1.399   .     A
C651   C753    1.402   .     S
C652   C824    1.401   1_455 S
C653   N710    1.360   .     A
C653   H691    1.080   .     S
C653   C655    1.426   .     A
C654   N709    1.361   .     A
C654   H692    1.082   .     S
C654   C656    1.422   .     A
C655   N711    1.424   .     S
C655   N709    1.379   .     A
C656   N712    1.418   .     S
C656   N710    1.375   .     A
C657   C659    1.470   .     S
C657   O719    1.295   .     A
C657   O789    1.302   .     S
C658   O720    1.296   .     A
C658   C661    1.469   .     S
C658   O862    1.302   1_455 S
C659   C666    1.401   .     A
C659   C664    1.397   .     A
C660   O714    1.296   .     A
C660   O788    1.291   .     S
C661   C665    1.397   .     A
C661   C667    1.400   .     A
C662   C670    1.403   .     A
C662   C664    1.391   .     A
C662   H774    1.083   .     S
C663   C672    1.403   .     A
C663   C665    1.391   .     A
C663   H703    1.083   .     S
C664   H768    1.079   .     S
C665   H829    1.079   1_455 S
C666   H686    1.075   .     S
C666   C668    1.407   .     A
C667   H708    1.075   .     S
C667   C669    1.407   .     A
C668   C670    1.418   .     A
C668   C673    1.427   .     A
C669   C674    1.427   .     A
C669   C672    1.418   .     A
C670   C30     1.390   1_556 S
C671   C678    1.386   .     A
C671   C674    1.417   .     A
C671   H687    1.076   .     S
C673   C677    1.416   .     A
C673   C26     1.426   1_556 S
C675   N711    1.449   .     S
C675   H694    1.111   .     S
C675   H695    1.110   .     S
C675   H697    1.112   .     S
C676   H700    1.110   .     S
C676   H701    1.110   .     S
C676   H699    1.111   .     S
C676   N712    1.447   .     S
C677   H688    1.076   .     S
C677   C679    1.386   .     A
C678   H706    1.084   .     S
C679   H707    1.084   .     S
C679   C24     1.390   1_556 S
C680   H689    1.084   .     S
C680   C724    1.401   .     S
C680   C1114   1.384   1_545 S
C681   H690    1.084   .     S
C681   C795    1.402   1_455 S
C681   C866    1.384   .     S
C682   H704    1.082   .     S
C682   C896    1.384   .     S
Cu683  O716    1.959   .     S
Cu683  O720    1.940   .     S
Cu683  O717    1.956   .     S
Cu683  N709    2.019   .     S
Cu683  O713    1.963   .     S
Cu683  Cu828   2.687   1_455 S
Cu684  O719    1.940   .     S
Cu684  N710    2.019   .     S
Cu684  O718    1.956   .     S
Cu684  O714    1.963   .     S
Cu684  O715    1.959   .     S
Cu684  Cu755   2.687   .     S
H685   C737    1.079   .     S
H693   N711    1.030   .     S
H696   C808    1.079   1_455 S
H698   N712    1.030   .     S
H702   C806    1.083   1_455 S
O715   C721    1.292   .     S
O716   C804    1.291   1_455 S
O717   C801    1.302   1_455 S
O718   C730    1.302   .     S
C721   O785    1.294   .     A
C721   C724    1.447   .     S
C722   C724    1.400   .     A
C722   H777    1.083   .     S
C722   C1185   1.384   1_545 S
C723   C732    1.448   .     S
C723   C754    1.399   .     A
C723   C825    1.402   .     S
C725   N782    1.360   .     A
C725   H763    1.080   .     S
C725   C727    1.426   .     A
C726   N781    1.361   .     A
C726   H764    1.082   .     S
C726   C728    1.422   .     A
C727   N783    1.424   .     S
C727   N781    1.379   .     A
C728   N784    1.418   .     S
C728   N782    1.375   .     A
C729   C731    1.470   .     S
C729   O791    1.295   .     A
C729   O861    1.302   .     S
C730   O792    1.296   .     A
C730   C733    1.469   .     S
C731   C738    1.401   .     A
C731   C736    1.397   .     A
C732   O786    1.296   .     A
C732   O860    1.291   .     S
C733   C737    1.397   .     A
C733   C739    1.400   .     A
C734   C742    1.403   .     A
C734   C736    1.391   .     A
C734   H846    1.083   .     S
C735   C744    1.403   .     A
C735   C737    1.391   .     A
C735   H775    1.083   .     S
C736   H840    1.079   .     S
C738   H758    1.075   .     S
C738   C740    1.407   .     A
C739   H780    1.075   .     S
C739   C741    1.407   .     A
C740   C742    1.418   .     A
C740   C745    1.427   .     A
C741   C746    1.427   .     A
C741   C744    1.418   .     A
C742   C102    1.390   1_556 S
C743   C750    1.386   .     A
C743   C746    1.417   .     A
C743   H759    1.076   .     S
C745   C749    1.416   .     A
C745   C98     1.426   1_556 S
C747   N783    1.449   .     S
C747   H766    1.111   .     S
C747   H767    1.110   .     S
C747   H769    1.112   .     S
C748   H772    1.110   .     S
C748   H773    1.110   .     S
C748   H771    1.111   .     S
C748   N784    1.447   .     S
C749   H760    1.076   .     S
C749   C751    1.386   .     A
C750   H778    1.084   .     S
C751   H779    1.084   .     S
C751   C96     1.390   1_556 S
C752   H761    1.084   .     S
C752   C796    1.401   .     S
C752   C1186   1.384   1_545 S
C753   H762    1.084   .     S
C753   C938    1.384   .     S
C754   H776    1.082   .     S
C754   C968    1.384   .     S
Cu755  O788    1.959   .     S
Cu755  O792    1.940   .     S
Cu755  O789    1.956   .     S
Cu755  N781    2.019   .     S
Cu755  O785    1.963   .     S
Cu756  O791    1.940   .     S
Cu756  N782    2.019   .     S
Cu756  O790    1.956   .     S
Cu756  O786    1.963   .     S
Cu756  O787    1.959   .     S
Cu756  Cu827   2.687   .     S
H757   C809    1.079   .     S
H765   N783    1.030   .     S
H770   N784    1.030   .     S
O787   C793    1.292   .     S
O790   C802    1.302   .     S
C793   O857    1.294   .     A
C793   C796    1.447   .     S
C794   C796    1.400   .     A
C794   H849    1.083   .     S
C794   C1257   1.384   1_545 S
C795   C804    1.448   .     S
C795   C826    1.399   .     A
C795   C681    1.402   1_655 S
C797   N854    1.360   .     A
C797   H835    1.080   .     S
C797   C799    1.426   .     A
C798   N853    1.361   .     A
C798   H836    1.082   .     S
C798   C800    1.422   .     A
C799   N855    1.424   .     S
C799   N853    1.379   .     A
C800   N856    1.418   .     S
C800   N854    1.375   .     A
C801   C803    1.470   .     S
C801   O863    1.295   .     A
C801   O717    1.302   1_655 S
C802   O864    1.296   .     A
C802   C805    1.469   .     S
C803   C810    1.401   .     A
C803   C808    1.397   .     A
C804   O858    1.296   .     A
C804   O716    1.291   1_655 S
C805   C809    1.397   .     A
C805   C811    1.400   .     A
C806   C814    1.403   .     A
C806   C808    1.391   .     A
C806   H702    1.083   1_655 S
C807   C816    1.403   .     A
C807   C809    1.391   .     A
C807   H847    1.083   .     S
C808   H696    1.079   1_655 S
C810   H830    1.075   .     S
C810   C812    1.407   .     A
C811   H852    1.075   .     S
C811   C813    1.407   .     A
C812   C814    1.418   .     A
C812   C817    1.427   .     A
C813   C818    1.427   .     A
C813   C816    1.418   .     A
C814   C174    1.390   1_556 S
C815   C822    1.386   .     A
C815   C818    1.417   .     A
C815   H831    1.076   .     S
C817   C821    1.416   .     A
C817   C170    1.426   1_556 S
C819   N855    1.449   .     S
C819   H838    1.111   .     S
C819   H839    1.110   .     S
C819   H841    1.112   .     S
C820   H844    1.110   .     S
C820   H845    1.110   .     S
C820   H843    1.111   .     S
C820   N856    1.447   .     S
C821   H832    1.076   .     S
C821   C823    1.386   .     A
C822   H850    1.084   .     S
C823   H851    1.084   .     S
C823   C168    1.390   1_556 S
C824   H833    1.084   .     S
C824   C652    1.401   1_655 S
C824   C1258   1.384   1_545 S
C825   H834    1.084   .     S
C825   C1010   1.384   .     S
C826   H848    1.082   .     S
C826   C1040   1.384   .     S
Cu827  O860    1.959   .     S
Cu827  O864    1.940   .     S
Cu827  O861    1.956   .     S
Cu827  N853    2.019   .     S
Cu827  O857    1.963   .     S
Cu828  O863    1.940   .     S
Cu828  N854    2.019   .     S
Cu828  O862    1.956   .     S
Cu828  O858    1.963   .     S
Cu828  O859    1.959   .     S
Cu828  Cu683   2.687   1_655 S
H829   C665    1.079   1_655 S
H837   N855    1.030   .     S
H842   N856    1.030   .     S
O859   C649    1.292   1_655 S
O862   C658    1.302   1_655 S
C865   O929    1.294   .     A
C865   C868    1.447   .     S
C865   O1075   1.292   1_455 S
C866   C868    1.400   .     A
C866   H921    1.083   .     S
C867   C876    1.448   .     S
C867   C898    1.399   .     A
C867   C969    1.402   .     S
C868   C1040   1.401   1_455 S
C869   N926    1.360   .     A
C869   H907    1.080   .     S
C869   C871    1.426   .     A
C870   N925    1.361   .     A
C870   H908    1.082   .     S
C870   C872    1.422   .     A
C871   N927    1.424   .     S
C871   N925    1.379   .     A
C872   N928    1.418   .     S
C872   N926    1.375   .     A
C873   C875    1.470   .     S
C873   O935    1.295   .     A
C873   O1005   1.302   .     S
C874   O936    1.296   .     A
C874   C877    1.469   .     S
C874   O1078   1.302   1_455 S
C875   C882    1.401   .     A
C875   C880    1.397   .     A
C876   O930    1.296   .     A
C876   O1004   1.291   .     S
C877   C881    1.397   .     A
C877   C883    1.400   .     A
C878   C886    1.403   .     A
C878   C880    1.391   .     A
C878   H990    1.083   .     S
C879   C888    1.403   .     A
C879   C881    1.391   .     A
C879   H919    1.083   .     S
C880   H984    1.079   .     S
C881   H1045   1.079   1_455 S
C882   H902    1.075   .     S
C882   C884    1.407   .     A
C883   H924    1.075   .     S
C883   C885    1.407   .     A
C884   C886    1.418   .     A
C884   C889    1.427   .     A
C885   C890    1.427   .     A
C885   C888    1.418   .     A
C886   C246    1.390   1_556 S
C887   C894    1.386   .     A
C887   C890    1.417   .     A
C887   H903    1.076   .     S
C889   C893    1.416   .     A
C889   C242    1.426   1_556 S
C891   N927    1.449   .     S
C891   H910    1.111   .     S
C891   H911    1.110   .     S
C891   H913    1.112   .     S
C892   H916    1.110   .     S
C892   H917    1.110   .     S
C892   H915    1.111   .     S
C892   N928    1.447   .     S
C893   H904    1.076   .     S
C893   C895    1.386   .     A
C894   H922    1.084   .     S
C895   H923    1.084   .     S
C895   C240    1.390   1_556 S
C896   H905    1.084   .     S
C896   C940    1.401   .     S
C897   H906    1.084   .     S
C897   C1011   1.402   1_455 S
C897   C1082   1.384   .     S
C898   H920    1.082   .     S
C898   C1112   1.384   .     S
Cu899  O932    1.959   .     S
Cu899  O936    1.940   .     S
Cu899  O933    1.956   .     S
Cu899  N925    2.019   .     S
Cu899  O929    1.963   .     S
Cu899  Cu1044  2.687   1_455 S
Cu900  O935    1.940   .     S
Cu900  N926    2.019   .     S
Cu900  O934    1.956   .     S
Cu900  O930    1.963   .     S
Cu900  O931    1.959   .     S
Cu900  Cu971   2.687   .     S
H901   C953    1.079   .     S
H909   N927    1.030   .     S
H912   C1024   1.079   1_455 S
H914   N928    1.030   .     S
H918   C1022   1.083   1_455 S
O931   C937    1.292   .     S
O932   C1020   1.291   1_455 S
O933   C1017   1.302   1_455 S
O934   C946    1.302   .     S
C937   O1001   1.294   .     A
C937   C940    1.447   .     S
C938   C940    1.400   .     A
C938   H993    1.083   .     S
C939   C948    1.448   .     S
C939   C970    1.399   .     A
C939   C1041   1.402   .     S
C941   N998    1.360   .     A
C941   H979    1.080   .     S
C941   C943    1.426   .     A
C942   N997    1.361   .     A
C942   H980    1.082   .     S
C942   C944    1.422   .     A
C943   N999    1.424   .     S
C943   N997    1.379   .     A
C944   N1000   1.418   .     S
C944   N998    1.375   .     A
C945   C947    1.470   .     S
C945   O1007   1.295   .     A
C945   O1077   1.302   .     S
C946   O1008   1.296   .     A
C946   C949    1.469   .     S
C947   C954    1.401   .     A
C947   C952    1.397   .     A
C948   O1002   1.296   .     A
C948   O1076   1.291   .     S
C949   C953    1.397   .     A
C949   C955    1.400   .     A
C950   C958    1.403   .     A
C950   C952    1.391   .     A
C950   H1062   1.083   .     S
C951   C960    1.403   .     A
C951   C953    1.391   .     A
C951   H991    1.083   .     S
C952   H1056   1.079   .     S
C954   H974    1.075   .     S
C954   C956    1.407   .     A
C955   H996    1.075   .     S
C955   C957    1.407   .     A
C956   C958    1.418   .     A
C956   C961    1.427   .     A
C957   C962    1.427   .     A
C957   C960    1.418   .     A
C958   C318    1.390   1_556 S
C959   C966    1.386   .     A
C959   C962    1.417   .     A
C959   H975    1.076   .     S
C961   C965    1.416   .     A
C961   C314    1.426   1_556 S
C963   N999    1.449   .     S
C963   H982    1.111   .     S
C963   H983    1.110   .     S
C963   H985    1.112   .     S
C964   H988    1.110   .     S
C964   H989    1.110   .     S
C964   H987    1.111   .     S
C964   N1000   1.447   .     S
C965   H976    1.076   .     S
C965   C967    1.386   .     A
C966   H994    1.084   .     S
C967   H995    1.084   .     S
C967   C312    1.390   1_556 S
C968   H977    1.084   .     S
C968   C1012   1.401   .     S
C969   H978    1.084   .     S
C969   C1154   1.384   .     S
C970   H992    1.082   .     S
C970   C1184   1.384   .     S
Cu971  O1004   1.959   .     S
Cu971  O1008   1.940   .     S
Cu971  O1005   1.956   .     S
Cu971  N997    2.019   .     S
Cu971  O1001   1.963   .     S
Cu972  O1007   1.940   .     S
Cu972  N998    2.019   .     S
Cu972  O1006   1.956   .     S
Cu972  O1002   1.963   .     S
Cu972  O1003   1.959   .     S
Cu972  Cu1043  2.687   .     S
H973   C1025   1.079   .     S
H981   N999    1.030   .     S
H986   N1000   1.030   .     S
O1003  C1009   1.292   .     S
O1006  C1018   1.302   .     S
C1009  O1073   1.294   .     A
C1009  C1012   1.447   .     S
C1010  C1012   1.400   .     A
C1010  H1065   1.083   .     S
C1011  C1020   1.448   .     S
C1011  C1042   1.399   .     A
C1011  C897    1.402   1_655 S
C1013  N1070   1.360   .     A
C1013  H1051   1.080   .     S
C1013  C1015   1.426   .     A
C1014  N1069   1.361   .     A
C1014  H1052   1.082   .     S
C1014  C1016   1.422   .     A
C1015  N1071   1.424   .     S
C1015  N1069   1.379   .     A
C1016  N1072   1.418   .     S
C1016  N1070   1.375   .     A
C1017  C1019   1.470   .     S
C1017  O1079   1.295   .     A
C1017  O933    1.302   1_655 S
C1018  O1080   1.296   .     A
C1018  C1021   1.469   .     S
C1019  C1026   1.401   .     A
C1019  C1024   1.397   .     A
C1020  O1074   1.296   .     A
C1020  O932    1.291   1_655 S
C1021  C1025   1.397   .     A
C1021  C1027   1.400   .     A
C1022  C1030   1.403   .     A
C1022  C1024   1.391   .     A
C1022  H918    1.083   1_655 S
C1023  C1032   1.403   .     A
C1023  C1025   1.391   .     A
C1023  H1063   1.083   .     S
C1024  H912    1.079   1_655 S
C1026  H1046   1.075   .     S
C1026  C1028   1.407   .     A
C1027  H1068   1.075   .     S
C1027  C1029   1.407   .     A
C1028  C1030   1.418   .     A
C1028  C1033   1.427   .     A
C1029  C1034   1.427   .     A
C1029  C1032   1.418   .     A
C1030  C390    1.390   1_556 S
C1031  C1038   1.386   .     A
C1031  C1034   1.417   .     A
C1031  H1047   1.076   .     S
C1033  C1037   1.416   .     A
C1033  C386    1.426   1_556 S
C1035  N1071   1.449   .     S
C1035  H1054   1.111   .     S
C1035  H1055   1.110   .     S
C1035  H1057   1.112   .     S
C1036  H1060   1.110   .     S
C1036  H1061   1.110   .     S
C1036  H1059   1.111   .     S
C1036  N1072   1.447   .     S
C1037  H1048   1.076   .     S
C1037  C1039   1.386   .     A
C1038  H1066   1.084   .     S
C1039  H1067   1.084   .     S
C1039  C384    1.390   1_556 S
C1040  H1049   1.084   .     S
C1040  C868    1.401   1_655 S
C1041  H1050   1.084   .     S
C1041  C1226   1.384   .     S
C1042  H1064   1.082   .     S
C1042  C1256   1.384   .     S
Cu1043 O1076   1.959   .     S
Cu1043 O1080   1.940   .     S
Cu1043 O1077   1.956   .     S
Cu1043 N1069   2.019   .     S
Cu1043 O1073   1.963   .     S
Cu1044 O1079   1.940   .     S
Cu1044 N1070   2.019   .     S
Cu1044 O1078   1.956   .     S
Cu1044 O1074   1.963   .     S
Cu1044 O1075   1.959   .     S
Cu1044 Cu899   2.687   1_655 S
H1045  C881    1.079   1_655 S
H1053  N1071   1.030   .     S
H1058  N1072   1.030   .     S
O1075  C865    1.292   1_655 S
O1078  C874    1.302   1_655 S
C1081  O1145   1.294   .     A
C1081  C1084   1.447   .     S
C1081  O1291   1.292   1_455 S
C1082  C1084   1.400   .     A
C1082  H1137   1.083   .     S
C1083  C1092   1.448   .     S
C1083  C1114   1.399   .     A
C1083  C1185   1.402   .     S
C1084  C1256   1.401   1_455 S
C1085  N1142   1.360   .     A
C1085  H1123   1.080   .     S
C1085  C1087   1.426   .     A
C1086  N1141   1.361   .     A
C1086  H1124   1.082   .     S
C1086  C1088   1.422   .     A
C1087  N1143   1.424   .     S
C1087  N1141   1.379   .     A
C1088  N1144   1.418   .     S
C1088  N1142   1.375   .     A
C1089  C1091   1.470   .     S
C1089  O1151   1.295   .     A
C1089  O1221   1.302   .     S
C1090  O1152   1.296   .     A
C1090  C1093   1.469   .     S
C1090  O1294   1.302   1_455 S
C1091  C1098   1.401   .     A
C1091  C1096   1.397   .     A
C1092  O1146   1.296   .     A
C1092  O1220   1.291   .     S
C1093  C1097   1.397   .     A
C1093  C1099   1.400   .     A
C1094  C1102   1.403   .     A
C1094  C1096   1.391   .     A
C1094  H1206   1.083   .     S
C1095  C1104   1.403   .     A
C1095  C1097   1.391   .     A
C1095  H1135   1.083   .     S
C1096  H1200   1.079   .     S
C1097  H1261   1.079   1_455 S
C1098  H1118   1.075   .     S
C1098  C1100   1.407   .     A
C1099  H1140   1.075   .     S
C1099  C1101   1.407   .     A
C1100  C1102   1.418   .     A
C1100  C1105   1.427   .     A
C1101  C1106   1.427   .     A
C1101  C1104   1.418   .     A
C1102  C462    1.390   1_556 S
C1103  C1110   1.386   .     A
C1103  C1106   1.417   .     A
C1103  H1119   1.076   .     S
C1105  C1109   1.416   .     A
C1105  C458    1.426   1_556 S
C1107  N1143   1.449   .     S
C1107  H1126   1.111   .     S
C1107  H1127   1.110   .     S
C1107  H1129   1.112   .     S
C1108  H1132   1.110   .     S
C1108  H1133   1.110   .     S
C1108  H1131   1.111   .     S
C1108  N1144   1.447   .     S
C1109  H1120   1.076   .     S
C1109  C1111   1.386   .     A
C1110  H1138   1.084   .     S
C1111  H1139   1.084   .     S
C1111  C456    1.390   1_556 S
C1112  H1121   1.084   .     S
C1112  C1156   1.401   .     S
C1113  H1122   1.084   .     S
C1113  C1227   1.402   1_455 S
C1113  C650    1.384   1_565 S
C1114  H1136   1.082   .     S
C1114  C680    1.384   1_565 S
Cu1115 O1148   1.959   .     S
Cu1115 O1152   1.940   .     S
Cu1115 O1149   1.956   .     S
Cu1115 N1141   2.019   .     S
Cu1115 O1145   1.963   .     S
Cu1115 Cu1260  2.687   1_455 S
Cu1116 O1151   1.940   .     S
Cu1116 N1142   2.019   .     S
Cu1116 O1150   1.956   .     S
Cu1116 O1146   1.963   .     S
Cu1116 O1147   1.959   .     S
Cu1116 Cu1187  2.687   .     S
H1117  C1169   1.079   .     S
H1125  N1143   1.030   .     S
H1128  C1240   1.079   1_455 S
H1130  N1144   1.030   .     S
H1134  C1238   1.083   1_455 S
O1147  C1153   1.292   .     S
O1148  C1236   1.291   1_455 S
O1149  C1233   1.302   1_455 S
O1150  C1162   1.302   .     S
C1153  O1217   1.294   .     A
C1153  C1156   1.447   .     S
C1154  C1156   1.400   .     A
C1154  H1209   1.083   .     S
C1155  C1164   1.448   .     S
C1155  C1186   1.399   .     A
C1155  C1257   1.402   .     S
C1157  N1214   1.360   .     A
C1157  H1195   1.080   .     S
C1157  C1159   1.426   .     A
C1158  N1213   1.361   .     A
C1158  H1196   1.082   .     S
C1158  C1160   1.422   .     A
C1159  N1215   1.424   .     S
C1159  N1213   1.379   .     A
C1160  N1216   1.418   .     S
C1160  N1214   1.375   .     A
C1161  C1163   1.470   .     S
C1161  O1223   1.295   .     A
C1161  O1293   1.302   .     S
C1162  O1224   1.296   .     A
C1162  C1165   1.469   .     S
C1163  C1170   1.401   .     A
C1163  C1168   1.397   .     A
C1164  O1218   1.296   .     A
C1164  O1292   1.291   .     S
C1165  C1169   1.397   .     A
C1165  C1171   1.400   .     A
C1166  C1174   1.403   .     A
C1166  C1168   1.391   .     A
C1166  H1278   1.083   .     S
C1167  C1176   1.403   .     A
C1167  C1169   1.391   .     A
C1167  H1207   1.083   .     S
C1168  H1272   1.079   .     S
C1170  H1190   1.075   .     S
C1170  C1172   1.407   .     A
C1171  H1212   1.075   .     S
C1171  C1173   1.407   .     A
C1172  C1174   1.418   .     A
C1172  C1177   1.427   .     A
C1173  C1178   1.427   .     A
C1173  C1176   1.418   .     A
C1174  C534    1.390   1_556 S
C1175  C1182   1.386   .     A
C1175  C1178   1.417   .     A
C1175  H1191   1.076   .     S
C1177  C1181   1.416   .     A
C1177  C530    1.426   1_556 S
C1179  N1215   1.449   .     S
C1179  H1198   1.111   .     S
C1179  H1199   1.110   .     S
C1179  H1201   1.112   .     S
C1180  H1204   1.110   .     S
C1180  H1205   1.110   .     S
C1180  H1203   1.111   .     S
C1180  N1216   1.447   .     S
C1181  H1192   1.076   .     S
C1181  C1183   1.386   .     A
C1182  H1210   1.084   .     S
C1183  H1211   1.084   .     S
C1183  C528    1.390   1_556 S
C1184  H1193   1.084   .     S
C1184  C1228   1.401   .     S
C1185  H1194   1.084   .     S
C1185  C722    1.384   1_565 S
C1186  H1208   1.082   .     S
C1186  C752    1.384   1_565 S
Cu1187 O1220   1.959   .     S
Cu1187 O1224   1.940   .     S
Cu1187 O1221   1.956   .     S
Cu1187 N1213   2.019   .     S
Cu1187 O1217   1.963   .     S
Cu1188 O1223   1.940   .     S
Cu1188 N1214   2.019   .     S
Cu1188 O1222   1.956   .     S
Cu1188 O1218   1.963   .     S
Cu1188 O1219   1.959   .     S
Cu1188 Cu1259  2.687   .     S
H1189  C1241   1.079   .     S
H1197  N1215   1.030   .     S
H1202  N1216   1.030   .     S
O1219  C1225   1.292   .     S
O1222  C1234   1.302   .     S
C1225  O1289   1.294   .     A
C1225  C1228   1.447   .     S
C1226  C1228   1.400   .     A
C1226  H1281   1.083   .     S
C1227  C1236   1.448   .     S
C1227  C1258   1.399   .     A
C1227  C1113   1.402   1_655 S
C1229  N1286   1.360   .     A
C1229  H1267   1.080   .     S
C1229  C1231   1.426   .     A
C1230  N1285   1.361   .     A
C1230  H1268   1.082   .     S
C1230  C1232   1.422   .     A
C1231  N1287   1.424   .     S
C1231  N1285   1.379   .     A
C1232  N1288   1.418   .     S
C1232  N1286   1.375   .     A
C1233  C1235   1.470   .     S
C1233  O1295   1.295   .     A
C1233  O1149   1.302   1_655 S
C1234  O1296   1.296   .     A
C1234  C1237   1.469   .     S
C1235  C1242   1.401   .     A
C1235  C1240   1.397   .     A
C1236  O1290   1.296   .     A
C1236  O1148   1.291   1_655 S
C1237  C1241   1.397   .     A
C1237  C1243   1.400   .     A
C1238  C1246   1.403   .     A
C1238  C1240   1.391   .     A
C1238  H1134   1.083   1_655 S
C1239  C1248   1.403   .     A
C1239  C1241   1.391   .     A
C1239  H1279   1.083   .     S
C1240  H1128   1.079   1_655 S
C1242  H1262   1.075   .     S
C1242  C1244   1.407   .     A
C1243  H1284   1.075   .     S
C1243  C1245   1.407   .     A
C1244  C1246   1.418   .     A
C1244  C1249   1.427   .     A
C1245  C1250   1.427   .     A
C1245  C1248   1.418   .     A
C1246  C606    1.390   1_556 S
C1247  C1254   1.386   .     A
C1247  C1250   1.417   .     A
C1247  H1263   1.076   .     S
C1249  C1253   1.416   .     A
C1249  C602    1.426   1_556 S
C1251  N1287   1.449   .     S
C1251  H1270   1.111   .     S
C1251  H1271   1.110   .     S
C1251  H1273   1.112   .     S
C1252  H1276   1.110   .     S
C1252  H1277   1.110   .     S
C1252  H1275   1.111   .     S
C1252  N1288   1.447   .     S
C1253  H1264   1.076   .     S
C1253  C1255   1.386   .     A
C1254  H1282   1.084   .     S
C1255  H1283   1.084   .     S
C1255  C600    1.390   1_556 S
C1256  H1265   1.084   .     S
C1256  C1084   1.401   1_655 S
C1257  H1266   1.084   .     S
C1257  C794    1.384   1_565 S
C1258  H1280   1.082   .     S
C1258  C824    1.384   1_565 S
Cu1259 O1292   1.959   .     S
Cu1259 O1296   1.940   .     S
Cu1259 O1293   1.956   .     S
Cu1259 N1285   2.019   .     S
Cu1259 O1289   1.963   .     S
Cu1260 O1295   1.940   .     S
Cu1260 N1286   2.019   .     S
Cu1260 O1294   1.956   .     S
Cu1260 O1290   1.963   .     S
Cu1260 O1291   1.959   .     S
Cu1260 Cu1115  2.687   1_655 S
H1261  C1097   1.079   1_655 S
H1269  N1287   1.030   .     S
H1274  N1288   1.030   .     S
O1291  C1081   1.292   1_655 S
O1294  C1090   1.302   1_655 S
