data_str_m2_o5_o17_pcu_sym.35
_audit_creation_date              2020-01-03
_audit_creation_method            'Materials Studio'
_symmetry_space_group_name_H-M    'P1'
_symmetry_Int_Tables_number       1
_symmetry_cell_setting            triclinic
loop_
_symmetry_equiv_pos_as_xyz
  x,y,z
_cell_length_a                    30.0889
_cell_length_b                    27.8330
_cell_length_c                    23.3561
_cell_angle_alpha                 90.0173
_cell_angle_beta                  89.7583
_cell_angle_gamma                 89.3150
loop_
_atom_site_label
_atom_site_type_symbol
_atom_site_fract_x
_atom_site_fract_y
_atom_site_fract_z
_atom_site_U_iso_or_equiv
_atom_site_adp_type
_atom_site_occupancy
O1     O     0.25000   0.09613   0.21425   0.00000  Uiso   1.00
O2     O     0.25000   0.23720   0.11908   0.00000  Uiso   1.00
O3     O     0.25000   0.23720   0.21425   0.00000  Uiso   1.00
O4     O     0.25000   0.09613   0.11908   0.00000  Uiso   1.00
C5     C     0.25010   0.07324   0.16666   0.00000  Uiso   1.00
C6     C     0.24990   0.26009   0.16668   0.00000  Uiso   1.00
O7     O     0.18513   0.16667   0.21427   0.00000  Uiso   1.00
O8     O     0.31487   0.16667   0.11907   0.00000  Uiso   1.00
O9     O     0.31487   0.16667   0.21427   0.00000  Uiso   1.00
O10    O     0.18513   0.16667   0.11907   0.00000  Uiso   1.00
C11    C     0.16430   0.16741   0.16676   0.00000  Uiso   1.00
C12    C     0.33571   0.16605   0.16647   0.00000  Uiso   1.00
Cu13   Cu    0.25000   0.16667   0.22303   0.00000  Uiso   1.00
Cu14   Cu    0.25000   0.16667   0.11031   0.00000  Uiso   1.00
N15    N     0.25000   0.16667   0.02561   0.00000  Uiso   1.00
N16    N     0.25000   0.16667   0.30773   0.00000  Uiso   1.00
C17    C     0.40549   0.20917   0.15059   0.00000  Uiso   1.00
C18    C     0.09383   0.12414   0.16874   0.00000  Uiso   1.00
C19    C     0.40774   0.12342   0.17302   0.00000  Uiso   1.00
C20    C     0.09294   0.21145   0.15896   0.00000  Uiso   1.00
C21    C     0.38390   0.16649   0.16511   0.00000  Uiso   1.00
C22    C     0.11612   0.16789   0.16661   0.00000  Uiso   1.00
C23    C     0.45405   0.12268   0.16322   0.00000  Uiso   1.00
C24    C     0.04594   0.21150   0.15883   0.00000  Uiso   1.00
C25    C     0.45229   0.20940   0.14813   0.00000  Uiso   1.00
C26    C     0.04756   0.12369   0.16094   0.00000  Uiso   1.00
C27    C     0.47648   0.16659   0.15807   0.00000  Uiso   1.00
C28    C     0.02343   0.16727   0.15983   0.00000  Uiso   1.00
C29    C     0.47857   0.07990   0.15343   0.00000  Uiso   1.00
C30    C     0.02044   0.25387   0.15213   0.00000  Uiso   1.00
C31    C     0.47606   0.25080   0.13499   0.00000  Uiso   1.00
C32    C     0.02516   0.08140   0.14793   0.00000  Uiso   1.00
C33    C     0.25004   0.02167   0.16666   0.00000  Uiso   1.00
C34    C     0.24996   0.31167   0.16668   0.00000  Uiso   1.00
O35    O     0.45792   0.03732   0.14272   0.00000  Uiso   1.00
H36    H     0.43302   0.04434   0.11618   0.00000  Uiso   1.00
O37    O     0.03554   0.29809   0.16813   0.00000  Uiso   1.00
H38    H     0.05443   0.29353   0.20247   0.00000  Uiso   1.00
O39    O     0.45709   0.28551   0.10086   0.00000  Uiso   1.00
H40    H     0.48126   0.30182   0.07983   0.00000  Uiso   1.00
O41    O     0.04852   0.04555   0.11996   0.00000  Uiso   1.00
H42    H     0.02838   0.02976   0.09258   0.00000  Uiso   1.00
Br43   Br    0.37009   0.26766   0.14425   0.00000  Uiso   1.00
Br44   Br    0.12713   0.06598   0.18618   0.00000  Uiso   1.00
Br45   Br    0.37664   0.06829   0.20338   0.00000  Uiso   1.00
Br46   Br    0.12703   0.26799   0.13971   0.00000  Uiso   1.00
O47    O     0.75000   0.09613   0.21425   0.00000  Uiso   1.00
O48    O     0.75000   0.23720   0.11908   0.00000  Uiso   1.00
O49    O     0.75000   0.23720   0.21425   0.00000  Uiso   1.00
O50    O     0.75000   0.09613   0.11908   0.00000  Uiso   1.00
C51    C     0.75010   0.07324   0.16666   0.00000  Uiso   1.00
C52    C     0.74990   0.26009   0.16668   0.00000  Uiso   1.00
O53    O     0.68513   0.16667   0.21427   0.00000  Uiso   1.00
O54    O     0.81487   0.16667   0.11907   0.00000  Uiso   1.00
O55    O     0.81487   0.16667   0.21427   0.00000  Uiso   1.00
O56    O     0.68513   0.16667   0.11907   0.00000  Uiso   1.00
C57    C     0.66430   0.16741   0.16676   0.00000  Uiso   1.00
C58    C     0.83571   0.16605   0.16647   0.00000  Uiso   1.00
Cu59   Cu    0.75000   0.16667   0.22303   0.00000  Uiso   1.00
Cu60   Cu    0.75000   0.16667   0.11031   0.00000  Uiso   1.00
N61    N     0.75000   0.16667   0.02561   0.00000  Uiso   1.00
N62    N     0.75000   0.16667   0.30773   0.00000  Uiso   1.00
C63    C     0.90549   0.20917   0.15059   0.00000  Uiso   1.00
C64    C     0.59383   0.12414   0.16874   0.00000  Uiso   1.00
C65    C     0.90774   0.12342   0.17302   0.00000  Uiso   1.00
C66    C     0.59294   0.21145   0.15896   0.00000  Uiso   1.00
C67    C     0.88390   0.16649   0.16511   0.00000  Uiso   1.00
C68    C     0.61612   0.16789   0.16661   0.00000  Uiso   1.00
C69    C     0.95405   0.12268   0.16322   0.00000  Uiso   1.00
C70    C     0.54594   0.21150   0.15883   0.00000  Uiso   1.00
C71    C     0.95229   0.20940   0.14813   0.00000  Uiso   1.00
C72    C     0.54756   0.12369   0.16094   0.00000  Uiso   1.00
C73    C     0.97648   0.16659   0.15807   0.00000  Uiso   1.00
C74    C     0.52343   0.16727   0.15983   0.00000  Uiso   1.00
C75    C     0.97857   0.07990   0.15343   0.00000  Uiso   1.00
C76    C     0.52044   0.25387   0.15213   0.00000  Uiso   1.00
C77    C     0.97606   0.25080   0.13499   0.00000  Uiso   1.00
C78    C     0.52516   0.08140   0.14793   0.00000  Uiso   1.00
C79    C     0.75004   0.02167   0.16666   0.00000  Uiso   1.00
C80    C     0.74996   0.31167   0.16668   0.00000  Uiso   1.00
O81    O     0.95792   0.03732   0.14272   0.00000  Uiso   1.00
H82    H     0.93302   0.04434   0.11618   0.00000  Uiso   1.00
O83    O     0.53554   0.29809   0.16813   0.00000  Uiso   1.00
H84    H     0.55443   0.29353   0.20247   0.00000  Uiso   1.00
O85    O     0.95709   0.28551   0.10086   0.00000  Uiso   1.00
H86    H     0.98126   0.30182   0.07983   0.00000  Uiso   1.00
O87    O     0.54852   0.04555   0.11996   0.00000  Uiso   1.00
H88    H     0.52838   0.02976   0.09258   0.00000  Uiso   1.00
Br89   Br    0.87009   0.26766   0.14425   0.00000  Uiso   1.00
Br90   Br    0.62713   0.06598   0.18618   0.00000  Uiso   1.00
Br91   Br    0.87664   0.06829   0.20338   0.00000  Uiso   1.00
Br92   Br    0.62703   0.26799   0.13971   0.00000  Uiso   1.00
O93    O     0.25000   0.42946   0.21425   0.00000  Uiso   1.00
O94    O     0.25000   0.57054   0.11908   0.00000  Uiso   1.00
O95    O     0.25000   0.57054   0.21425   0.00000  Uiso   1.00
O96    O     0.25000   0.42946   0.11908   0.00000  Uiso   1.00
C97    C     0.25010   0.40658   0.16666   0.00000  Uiso   1.00
C98    C     0.24990   0.59342   0.16668   0.00000  Uiso   1.00
O99    O     0.18513   0.50000   0.21427   0.00000  Uiso   1.00
O100   O     0.31487   0.50000   0.11907   0.00000  Uiso   1.00
O101   O     0.31487   0.50000   0.21427   0.00000  Uiso   1.00
O102   O     0.18513   0.50000   0.11907   0.00000  Uiso   1.00
C103   C     0.16430   0.50074   0.16676   0.00000  Uiso   1.00
C104   C     0.33571   0.49939   0.16647   0.00000  Uiso   1.00
Cu105  Cu    0.25000   0.50000   0.22303   0.00000  Uiso   1.00
Cu106  Cu    0.25000   0.50000   0.11031   0.00000  Uiso   1.00
N107   N     0.25000   0.50000   0.02561   0.00000  Uiso   1.00
N108   N     0.25000   0.50000   0.30773   0.00000  Uiso   1.00
C109   C     0.40549   0.54251   0.15059   0.00000  Uiso   1.00
C110   C     0.09383   0.45748   0.16874   0.00000  Uiso   1.00
C111   C     0.40774   0.45676   0.17302   0.00000  Uiso   1.00
C112   C     0.09294   0.54479   0.15896   0.00000  Uiso   1.00
C113   C     0.38390   0.49982   0.16511   0.00000  Uiso   1.00
C114   C     0.11612   0.50122   0.16661   0.00000  Uiso   1.00
C115   C     0.45405   0.45601   0.16322   0.00000  Uiso   1.00
C116   C     0.04594   0.54484   0.15883   0.00000  Uiso   1.00
C117   C     0.45229   0.54274   0.14813   0.00000  Uiso   1.00
C118   C     0.04756   0.45702   0.16094   0.00000  Uiso   1.00
C119   C     0.47648   0.49992   0.15807   0.00000  Uiso   1.00
C120   C     0.02343   0.50061   0.15983   0.00000  Uiso   1.00
C121   C     0.47857   0.41323   0.15343   0.00000  Uiso   1.00
C122   C     0.02044   0.58720   0.15213   0.00000  Uiso   1.00
C123   C     0.47606   0.58413   0.13499   0.00000  Uiso   1.00
C124   C     0.02516   0.41473   0.14793   0.00000  Uiso   1.00
C125   C     0.25004   0.35500   0.16666   0.00000  Uiso   1.00
C126   C     0.24996   0.64500   0.16668   0.00000  Uiso   1.00
O127   O     0.45792   0.37066   0.14272   0.00000  Uiso   1.00
H128   H     0.43302   0.37767   0.11618   0.00000  Uiso   1.00
O129   O     0.03554   0.63142   0.16813   0.00000  Uiso   1.00
H130   H     0.05443   0.62686   0.20247   0.00000  Uiso   1.00
O131   O     0.45709   0.61884   0.10086   0.00000  Uiso   1.00
H132   H     0.48126   0.63515   0.07983   0.00000  Uiso   1.00
O133   O     0.04852   0.37888   0.11996   0.00000  Uiso   1.00
H134   H     0.02838   0.36309   0.09258   0.00000  Uiso   1.00
Br135  Br    0.37009   0.60099   0.14425   0.00000  Uiso   1.00
Br136  Br    0.12713   0.39931   0.18618   0.00000  Uiso   1.00
Br137  Br    0.37664   0.40162   0.20338   0.00000  Uiso   1.00
Br138  Br    0.12703   0.60132   0.13971   0.00000  Uiso   1.00
O139   O     0.75000   0.42946   0.21425   0.00000  Uiso   1.00
O140   O     0.75000   0.57054   0.11908   0.00000  Uiso   1.00
O141   O     0.75000   0.57054   0.21425   0.00000  Uiso   1.00
O142   O     0.75000   0.42946   0.11908   0.00000  Uiso   1.00
C143   C     0.75010   0.40658   0.16666   0.00000  Uiso   1.00
C144   C     0.74990   0.59342   0.16668   0.00000  Uiso   1.00
O145   O     0.68513   0.50000   0.21427   0.00000  Uiso   1.00
O146   O     0.81487   0.50000   0.11907   0.00000  Uiso   1.00
O147   O     0.81487   0.50000   0.21427   0.00000  Uiso   1.00
O148   O     0.68513   0.50000   0.11907   0.00000  Uiso   1.00
C149   C     0.66430   0.50074   0.16676   0.00000  Uiso   1.00
C150   C     0.83571   0.49939   0.16647   0.00000  Uiso   1.00
Cu151  Cu    0.75000   0.50000   0.22303   0.00000  Uiso   1.00
Cu152  Cu    0.75000   0.50000   0.11031   0.00000  Uiso   1.00
N153   N     0.75000   0.50000   0.02561   0.00000  Uiso   1.00
N154   N     0.75000   0.50000   0.30773   0.00000  Uiso   1.00
C155   C     0.90549   0.54251   0.15059   0.00000  Uiso   1.00
C156   C     0.59383   0.45748   0.16874   0.00000  Uiso   1.00
C157   C     0.90774   0.45676   0.17302   0.00000  Uiso   1.00
C158   C     0.59294   0.54479   0.15896   0.00000  Uiso   1.00
C159   C     0.88390   0.49982   0.16511   0.00000  Uiso   1.00
C160   C     0.61612   0.50122   0.16661   0.00000  Uiso   1.00
C161   C     0.95405   0.45601   0.16322   0.00000  Uiso   1.00
C162   C     0.54594   0.54484   0.15883   0.00000  Uiso   1.00
C163   C     0.95229   0.54274   0.14813   0.00000  Uiso   1.00
C164   C     0.54756   0.45702   0.16094   0.00000  Uiso   1.00
C165   C     0.97648   0.49992   0.15807   0.00000  Uiso   1.00
C166   C     0.52343   0.50061   0.15983   0.00000  Uiso   1.00
C167   C     0.97857   0.41323   0.15343   0.00000  Uiso   1.00
C168   C     0.52044   0.58720   0.15213   0.00000  Uiso   1.00
C169   C     0.97606   0.58413   0.13499   0.00000  Uiso   1.00
C170   C     0.52516   0.41473   0.14793   0.00000  Uiso   1.00
C171   C     0.75004   0.35500   0.16666   0.00000  Uiso   1.00
C172   C     0.74996   0.64500   0.16668   0.00000  Uiso   1.00
O173   O     0.95792   0.37066   0.14272   0.00000  Uiso   1.00
H174   H     0.93302   0.37767   0.11618   0.00000  Uiso   1.00
O175   O     0.53554   0.63142   0.16813   0.00000  Uiso   1.00
H176   H     0.55443   0.62686   0.20247   0.00000  Uiso   1.00
O177   O     0.95709   0.61884   0.10086   0.00000  Uiso   1.00
H178   H     0.98126   0.63515   0.07983   0.00000  Uiso   1.00
O179   O     0.54852   0.37888   0.11996   0.00000  Uiso   1.00
H180   H     0.52838   0.36309   0.09258   0.00000  Uiso   1.00
Br181  Br    0.87009   0.60099   0.14425   0.00000  Uiso   1.00
Br182  Br    0.62713   0.39931   0.18618   0.00000  Uiso   1.00
Br183  Br    0.87664   0.40162   0.20338   0.00000  Uiso   1.00
Br184  Br    0.62703   0.60132   0.13971   0.00000  Uiso   1.00
O185   O     0.25000   0.76280   0.21425   0.00000  Uiso   1.00
O186   O     0.25000   0.90387   0.11908   0.00000  Uiso   1.00
O187   O     0.25000   0.90387   0.21425   0.00000  Uiso   1.00
O188   O     0.25000   0.76280   0.11908   0.00000  Uiso   1.00
C189   C     0.25010   0.73991   0.16666   0.00000  Uiso   1.00
C190   C     0.24990   0.92676   0.16668   0.00000  Uiso   1.00
O191   O     0.18513   0.83333   0.21427   0.00000  Uiso   1.00
O192   O     0.31487   0.83333   0.11907   0.00000  Uiso   1.00
O193   O     0.31487   0.83333   0.21427   0.00000  Uiso   1.00
O194   O     0.18513   0.83333   0.11907   0.00000  Uiso   1.00
C195   C     0.16430   0.83408   0.16676   0.00000  Uiso   1.00
C196   C     0.33571   0.83272   0.16647   0.00000  Uiso   1.00
Cu197  Cu    0.25000   0.83333   0.22303   0.00000  Uiso   1.00
Cu198  Cu    0.25000   0.83333   0.11031   0.00000  Uiso   1.00
N199   N     0.25000   0.83333   0.02561   0.00000  Uiso   1.00
N200   N     0.25000   0.83333   0.30773   0.00000  Uiso   1.00
C201   C     0.40549   0.87584   0.15059   0.00000  Uiso   1.00
C202   C     0.09383   0.79081   0.16874   0.00000  Uiso   1.00
C203   C     0.40774   0.79009   0.17302   0.00000  Uiso   1.00
C204   C     0.09294   0.87812   0.15896   0.00000  Uiso   1.00
C205   C     0.38390   0.83315   0.16511   0.00000  Uiso   1.00
C206   C     0.11612   0.83456   0.16661   0.00000  Uiso   1.00
C207   C     0.45405   0.78934   0.16322   0.00000  Uiso   1.00
C208   C     0.04594   0.87817   0.15883   0.00000  Uiso   1.00
C209   C     0.45229   0.87607   0.14813   0.00000  Uiso   1.00
C210   C     0.04756   0.79036   0.16094   0.00000  Uiso   1.00
C211   C     0.47648   0.83325   0.15807   0.00000  Uiso   1.00
C212   C     0.02343   0.83394   0.15983   0.00000  Uiso   1.00
C213   C     0.47857   0.74656   0.15343   0.00000  Uiso   1.00
C214   C     0.02044   0.92054   0.15213   0.00000  Uiso   1.00
C215   C     0.47606   0.91746   0.13499   0.00000  Uiso   1.00
C216   C     0.02516   0.74807   0.14793   0.00000  Uiso   1.00
C217   C     0.25004   0.68833   0.16666   0.00000  Uiso   1.00
C218   C     0.24996   0.97834   0.16668   0.00000  Uiso   1.00
O219   O     0.45792   0.70399   0.14272   0.00000  Uiso   1.00
H220   H     0.43302   0.71100   0.11618   0.00000  Uiso   1.00
O221   O     0.03554   0.96475   0.16813   0.00000  Uiso   1.00
H222   H     0.05443   0.96019   0.20247   0.00000  Uiso   1.00
O223   O     0.45709   0.95218   0.10086   0.00000  Uiso   1.00
H224   H     0.48126   0.96849   0.07983   0.00000  Uiso   1.00
O225   O     0.04852   0.71222   0.11996   0.00000  Uiso   1.00
H226   H     0.02838   0.69643   0.09258   0.00000  Uiso   1.00
Br227  Br    0.37009   0.93433   0.14425   0.00000  Uiso   1.00
Br228  Br    0.12713   0.73264   0.18618   0.00000  Uiso   1.00
Br229  Br    0.37664   0.73496   0.20338   0.00000  Uiso   1.00
Br230  Br    0.12703   0.93466   0.13971   0.00000  Uiso   1.00
O231   O     0.75000   0.76280   0.21425   0.00000  Uiso   1.00
O232   O     0.75000   0.90387   0.11908   0.00000  Uiso   1.00
O233   O     0.75000   0.90387   0.21425   0.00000  Uiso   1.00
O234   O     0.75000   0.76280   0.11908   0.00000  Uiso   1.00
C235   C     0.75010   0.73991   0.16666   0.00000  Uiso   1.00
C236   C     0.74990   0.92676   0.16668   0.00000  Uiso   1.00
O237   O     0.68513   0.83333   0.21427   0.00000  Uiso   1.00
O238   O     0.81487   0.83333   0.11907   0.00000  Uiso   1.00
O239   O     0.81487   0.83333   0.21427   0.00000  Uiso   1.00
O240   O     0.68513   0.83333   0.11907   0.00000  Uiso   1.00
C241   C     0.66430   0.83408   0.16676   0.00000  Uiso   1.00
C242   C     0.83571   0.83272   0.16647   0.00000  Uiso   1.00
Cu243  Cu    0.75000   0.83333   0.22303   0.00000  Uiso   1.00
Cu244  Cu    0.75000   0.83333   0.11031   0.00000  Uiso   1.00
N245   N     0.75000   0.83333   0.02561   0.00000  Uiso   1.00
N246   N     0.75000   0.83333   0.30773   0.00000  Uiso   1.00
C247   C     0.90549   0.87584   0.15059   0.00000  Uiso   1.00
C248   C     0.59383   0.79081   0.16874   0.00000  Uiso   1.00
C249   C     0.90774   0.79009   0.17302   0.00000  Uiso   1.00
C250   C     0.59294   0.87812   0.15896   0.00000  Uiso   1.00
C251   C     0.88390   0.83315   0.16511   0.00000  Uiso   1.00
C252   C     0.61612   0.83456   0.16661   0.00000  Uiso   1.00
C253   C     0.95405   0.78934   0.16322   0.00000  Uiso   1.00
C254   C     0.54594   0.87817   0.15883   0.00000  Uiso   1.00
C255   C     0.95229   0.87607   0.14813   0.00000  Uiso   1.00
C256   C     0.54756   0.79036   0.16094   0.00000  Uiso   1.00
C257   C     0.97648   0.83325   0.15807   0.00000  Uiso   1.00
C258   C     0.52343   0.83394   0.15983   0.00000  Uiso   1.00
C259   C     0.97857   0.74656   0.15343   0.00000  Uiso   1.00
C260   C     0.52044   0.92054   0.15213   0.00000  Uiso   1.00
C261   C     0.97606   0.91746   0.13499   0.00000  Uiso   1.00
C262   C     0.52516   0.74807   0.14793   0.00000  Uiso   1.00
C263   C     0.75004   0.68833   0.16666   0.00000  Uiso   1.00
C264   C     0.74996   0.97834   0.16668   0.00000  Uiso   1.00
O265   O     0.95792   0.70399   0.14272   0.00000  Uiso   1.00
H266   H     0.93302   0.71100   0.11618   0.00000  Uiso   1.00
O267   O     0.53554   0.96475   0.16813   0.00000  Uiso   1.00
H268   H     0.55443   0.96019   0.20247   0.00000  Uiso   1.00
O269   O     0.95709   0.95218   0.10086   0.00000  Uiso   1.00
H270   H     0.98126   0.96849   0.07983   0.00000  Uiso   1.00
O271   O     0.54852   0.71222   0.11996   0.00000  Uiso   1.00
H272   H     0.52838   0.69643   0.09258   0.00000  Uiso   1.00
Br273  Br    0.87009   0.93433   0.14425   0.00000  Uiso   1.00
Br274  Br    0.62713   0.73264   0.18618   0.00000  Uiso   1.00
Br275  Br    0.87664   0.73496   0.20338   0.00000  Uiso   1.00
Br276  Br    0.62703   0.93466   0.13971   0.00000  Uiso   1.00
O277   O     0.25000   0.09613   0.54759   0.00000  Uiso   1.00
O278   O     0.25000   0.23720   0.45241   0.00000  Uiso   1.00
O279   O     0.25000   0.23720   0.54759   0.00000  Uiso   1.00
O280   O     0.25000   0.09613   0.45241   0.00000  Uiso   1.00
C281   C     0.25010   0.07324   0.49999   0.00000  Uiso   1.00
C282   C     0.24990   0.26009   0.50001   0.00000  Uiso   1.00
O283   O     0.18513   0.16667   0.54760   0.00000  Uiso   1.00
O284   O     0.31487   0.16667   0.45240   0.00000  Uiso   1.00
O285   O     0.31487   0.16667   0.54760   0.00000  Uiso   1.00
O286   O     0.18513   0.16667   0.45240   0.00000  Uiso   1.00
C287   C     0.16430   0.16741   0.50010   0.00000  Uiso   1.00
C288   C     0.33571   0.16605   0.49981   0.00000  Uiso   1.00
Cu289  Cu    0.25000   0.16667   0.55636   0.00000  Uiso   1.00
Cu290  Cu    0.25000   0.16667   0.44364   0.00000  Uiso   1.00
N291   N     0.25000   0.16667   0.35894   0.00000  Uiso   1.00
N292   N     0.25000   0.16667   0.64106   0.00000  Uiso   1.00
C293   C     0.40549   0.20917   0.48392   0.00000  Uiso   1.00
C294   C     0.09383   0.12414   0.50207   0.00000  Uiso   1.00
C295   C     0.40774   0.12342   0.50636   0.00000  Uiso   1.00
C296   C     0.09294   0.21145   0.49230   0.00000  Uiso   1.00
C297   C     0.38390   0.16649   0.49844   0.00000  Uiso   1.00
C298   C     0.11612   0.16789   0.49994   0.00000  Uiso   1.00
C299   C     0.45405   0.12268   0.49655   0.00000  Uiso   1.00
C300   C     0.04594   0.21150   0.49216   0.00000  Uiso   1.00
C301   C     0.45229   0.20940   0.48146   0.00000  Uiso   1.00
C302   C     0.04756   0.12369   0.49428   0.00000  Uiso   1.00
C303   C     0.47648   0.16659   0.49141   0.00000  Uiso   1.00
C304   C     0.02343   0.16727   0.49316   0.00000  Uiso   1.00
C305   C     0.47857   0.07990   0.48676   0.00000  Uiso   1.00
C306   C     0.02044   0.25387   0.48547   0.00000  Uiso   1.00
C307   C     0.47606   0.25080   0.46832   0.00000  Uiso   1.00
C308   C     0.02516   0.08140   0.48126   0.00000  Uiso   1.00
C309   C     0.25004   0.02167   0.49999   0.00000  Uiso   1.00
C310   C     0.24996   0.31167   0.50001   0.00000  Uiso   1.00
O311   O     0.45792   0.03732   0.47605   0.00000  Uiso   1.00
H312   H     0.43302   0.04434   0.44951   0.00000  Uiso   1.00
O313   O     0.03554   0.29809   0.50146   0.00000  Uiso   1.00
H314   H     0.05443   0.29353   0.53580   0.00000  Uiso   1.00
O315   O     0.45709   0.28551   0.43419   0.00000  Uiso   1.00
H316   H     0.48126   0.30182   0.41317   0.00000  Uiso   1.00
O317   O     0.04852   0.04555   0.45330   0.00000  Uiso   1.00
H318   H     0.02838   0.02976   0.42592   0.00000  Uiso   1.00
Br319  Br    0.37009   0.26766   0.47758   0.00000  Uiso   1.00
Br320  Br    0.12713   0.06598   0.51952   0.00000  Uiso   1.00
Br321  Br    0.37664   0.06829   0.53671   0.00000  Uiso   1.00
Br322  Br    0.12703   0.26799   0.47304   0.00000  Uiso   1.00
O323   O     0.75000   0.09613   0.54759   0.00000  Uiso   1.00
O324   O     0.75000   0.23720   0.45241   0.00000  Uiso   1.00
O325   O     0.75000   0.23720   0.54759   0.00000  Uiso   1.00
O326   O     0.75000   0.09613   0.45241   0.00000  Uiso   1.00
C327   C     0.75010   0.07324   0.49999   0.00000  Uiso   1.00
C328   C     0.74990   0.26009   0.50001   0.00000  Uiso   1.00
O329   O     0.68513   0.16667   0.54760   0.00000  Uiso   1.00
O330   O     0.81487   0.16667   0.45240   0.00000  Uiso   1.00
O331   O     0.81487   0.16667   0.54760   0.00000  Uiso   1.00
O332   O     0.68513   0.16667   0.45240   0.00000  Uiso   1.00
C333   C     0.66430   0.16741   0.50010   0.00000  Uiso   1.00
C334   C     0.83571   0.16605   0.49981   0.00000  Uiso   1.00
Cu335  Cu    0.75000   0.16667   0.55636   0.00000  Uiso   1.00
Cu336  Cu    0.75000   0.16667   0.44364   0.00000  Uiso   1.00
N337   N     0.75000   0.16667   0.35894   0.00000  Uiso   1.00
N338   N     0.75000   0.16667   0.64106   0.00000  Uiso   1.00
C339   C     0.90549   0.20917   0.48392   0.00000  Uiso   1.00
C340   C     0.59383   0.12414   0.50207   0.00000  Uiso   1.00
C341   C     0.90774   0.12342   0.50636   0.00000  Uiso   1.00
C342   C     0.59294   0.21145   0.49230   0.00000  Uiso   1.00
C343   C     0.88390   0.16649   0.49844   0.00000  Uiso   1.00
C344   C     0.61612   0.16789   0.49994   0.00000  Uiso   1.00
C345   C     0.95405   0.12268   0.49655   0.00000  Uiso   1.00
C346   C     0.54594   0.21150   0.49216   0.00000  Uiso   1.00
C347   C     0.95229   0.20940   0.48146   0.00000  Uiso   1.00
C348   C     0.54756   0.12369   0.49428   0.00000  Uiso   1.00
C349   C     0.97648   0.16659   0.49141   0.00000  Uiso   1.00
C350   C     0.52343   0.16727   0.49316   0.00000  Uiso   1.00
C351   C     0.97857   0.07990   0.48676   0.00000  Uiso   1.00
C352   C     0.52044   0.25387   0.48547   0.00000  Uiso   1.00
C353   C     0.97606   0.25080   0.46832   0.00000  Uiso   1.00
C354   C     0.52516   0.08140   0.48126   0.00000  Uiso   1.00
C355   C     0.75004   0.02167   0.49999   0.00000  Uiso   1.00
C356   C     0.74996   0.31167   0.50001   0.00000  Uiso   1.00
O357   O     0.95792   0.03732   0.47605   0.00000  Uiso   1.00
H358   H     0.93302   0.04434   0.44951   0.00000  Uiso   1.00
O359   O     0.53554   0.29809   0.50146   0.00000  Uiso   1.00
H360   H     0.55443   0.29353   0.53580   0.00000  Uiso   1.00
O361   O     0.95709   0.28551   0.43419   0.00000  Uiso   1.00
H362   H     0.98126   0.30182   0.41317   0.00000  Uiso   1.00
O363   O     0.54852   0.04555   0.45330   0.00000  Uiso   1.00
H364   H     0.52838   0.02976   0.42592   0.00000  Uiso   1.00
Br365  Br    0.87009   0.26766   0.47758   0.00000  Uiso   1.00
Br366  Br    0.62713   0.06598   0.51952   0.00000  Uiso   1.00
Br367  Br    0.87664   0.06829   0.53671   0.00000  Uiso   1.00
Br368  Br    0.62703   0.26799   0.47304   0.00000  Uiso   1.00
O369   O     0.25000   0.42946   0.54759   0.00000  Uiso   1.00
O370   O     0.25000   0.57054   0.45241   0.00000  Uiso   1.00
O371   O     0.25000   0.57054   0.54759   0.00000  Uiso   1.00
O372   O     0.25000   0.42946   0.45241   0.00000  Uiso   1.00
C373   C     0.25010   0.40658   0.49999   0.00000  Uiso   1.00
C374   C     0.24990   0.59342   0.50001   0.00000  Uiso   1.00
O375   O     0.18513   0.50000   0.54760   0.00000  Uiso   1.00
O376   O     0.31487   0.50000   0.45240   0.00000  Uiso   1.00
O377   O     0.31487   0.50000   0.54760   0.00000  Uiso   1.00
O378   O     0.18513   0.50000   0.45240   0.00000  Uiso   1.00
C379   C     0.16430   0.50074   0.50010   0.00000  Uiso   1.00
C380   C     0.33571   0.49939   0.49981   0.00000  Uiso   1.00
Cu381  Cu    0.25000   0.50000   0.55636   0.00000  Uiso   1.00
Cu382  Cu    0.25000   0.50000   0.44364   0.00000  Uiso   1.00
N383   N     0.25000   0.50000   0.35894   0.00000  Uiso   1.00
N384   N     0.25000   0.50000   0.64106   0.00000  Uiso   1.00
C385   C     0.40549   0.54251   0.48392   0.00000  Uiso   1.00
C386   C     0.09383   0.45748   0.50207   0.00000  Uiso   1.00
C387   C     0.40774   0.45676   0.50636   0.00000  Uiso   1.00
C388   C     0.09294   0.54479   0.49230   0.00000  Uiso   1.00
C389   C     0.38390   0.49982   0.49844   0.00000  Uiso   1.00
C390   C     0.11612   0.50122   0.49994   0.00000  Uiso   1.00
C391   C     0.45405   0.45601   0.49655   0.00000  Uiso   1.00
C392   C     0.04594   0.54484   0.49216   0.00000  Uiso   1.00
C393   C     0.45229   0.54274   0.48146   0.00000  Uiso   1.00
C394   C     0.04756   0.45702   0.49428   0.00000  Uiso   1.00
C395   C     0.47648   0.49992   0.49141   0.00000  Uiso   1.00
C396   C     0.02343   0.50061   0.49316   0.00000  Uiso   1.00
C397   C     0.47857   0.41323   0.48676   0.00000  Uiso   1.00
C398   C     0.02044   0.58720   0.48547   0.00000  Uiso   1.00
C399   C     0.47606   0.58413   0.46832   0.00000  Uiso   1.00
C400   C     0.02516   0.41473   0.48126   0.00000  Uiso   1.00
C401   C     0.25004   0.35500   0.49999   0.00000  Uiso   1.00
C402   C     0.24996   0.64500   0.50001   0.00000  Uiso   1.00
O403   O     0.45792   0.37066   0.47605   0.00000  Uiso   1.00
H404   H     0.43302   0.37767   0.44951   0.00000  Uiso   1.00
O405   O     0.03554   0.63142   0.50146   0.00000  Uiso   1.00
H406   H     0.05443   0.62686   0.53580   0.00000  Uiso   1.00
O407   O     0.45709   0.61884   0.43419   0.00000  Uiso   1.00
H408   H     0.48126   0.63515   0.41317   0.00000  Uiso   1.00
O409   O     0.04852   0.37888   0.45330   0.00000  Uiso   1.00
H410   H     0.02838   0.36309   0.42592   0.00000  Uiso   1.00
Br411  Br    0.37009   0.60099   0.47758   0.00000  Uiso   1.00
Br412  Br    0.12713   0.39931   0.51952   0.00000  Uiso   1.00
Br413  Br    0.37664   0.40162   0.53671   0.00000  Uiso   1.00
Br414  Br    0.12703   0.60132   0.47304   0.00000  Uiso   1.00
O415   O     0.75000   0.42946   0.54759   0.00000  Uiso   1.00
O416   O     0.75000   0.57054   0.45241   0.00000  Uiso   1.00
O417   O     0.75000   0.57054   0.54759   0.00000  Uiso   1.00
O418   O     0.75000   0.42946   0.45241   0.00000  Uiso   1.00
C419   C     0.75010   0.40658   0.49999   0.00000  Uiso   1.00
C420   C     0.74990   0.59342   0.50001   0.00000  Uiso   1.00
O421   O     0.68513   0.50000   0.54760   0.00000  Uiso   1.00
O422   O     0.81487   0.50000   0.45240   0.00000  Uiso   1.00
O423   O     0.81487   0.50000   0.54760   0.00000  Uiso   1.00
O424   O     0.68513   0.50000   0.45240   0.00000  Uiso   1.00
C425   C     0.66430   0.50074   0.50010   0.00000  Uiso   1.00
C426   C     0.83571   0.49939   0.49981   0.00000  Uiso   1.00
Cu427  Cu    0.75000   0.50000   0.55636   0.00000  Uiso   1.00
Cu428  Cu    0.75000   0.50000   0.44364   0.00000  Uiso   1.00
N429   N     0.75000   0.50000   0.35894   0.00000  Uiso   1.00
N430   N     0.75000   0.50000   0.64106   0.00000  Uiso   1.00
C431   C     0.90549   0.54251   0.48392   0.00000  Uiso   1.00
C432   C     0.59383   0.45748   0.50207   0.00000  Uiso   1.00
C433   C     0.90774   0.45676   0.50636   0.00000  Uiso   1.00
C434   C     0.59294   0.54479   0.49230   0.00000  Uiso   1.00
C435   C     0.88390   0.49982   0.49844   0.00000  Uiso   1.00
C436   C     0.61612   0.50122   0.49994   0.00000  Uiso   1.00
C437   C     0.95405   0.45601   0.49655   0.00000  Uiso   1.00
C438   C     0.54594   0.54484   0.49216   0.00000  Uiso   1.00
C439   C     0.95229   0.54274   0.48146   0.00000  Uiso   1.00
C440   C     0.54756   0.45702   0.49428   0.00000  Uiso   1.00
C441   C     0.97648   0.49992   0.49141   0.00000  Uiso   1.00
C442   C     0.52343   0.50061   0.49316   0.00000  Uiso   1.00
C443   C     0.97857   0.41323   0.48676   0.00000  Uiso   1.00
C444   C     0.52044   0.58720   0.48547   0.00000  Uiso   1.00
C445   C     0.97606   0.58413   0.46832   0.00000  Uiso   1.00
C446   C     0.52516   0.41473   0.48126   0.00000  Uiso   1.00
C447   C     0.75004   0.35500   0.49999   0.00000  Uiso   1.00
C448   C     0.74996   0.64500   0.50001   0.00000  Uiso   1.00
O449   O     0.95792   0.37066   0.47605   0.00000  Uiso   1.00
H450   H     0.93302   0.37767   0.44951   0.00000  Uiso   1.00
O451   O     0.53554   0.63142   0.50146   0.00000  Uiso   1.00
H452   H     0.55443   0.62686   0.53580   0.00000  Uiso   1.00
O453   O     0.95709   0.61884   0.43419   0.00000  Uiso   1.00
H454   H     0.98126   0.63515   0.41317   0.00000  Uiso   1.00
O455   O     0.54852   0.37888   0.45330   0.00000  Uiso   1.00
H456   H     0.52838   0.36309   0.42592   0.00000  Uiso   1.00
Br457  Br    0.87009   0.60099   0.47758   0.00000  Uiso   1.00
Br458  Br    0.62713   0.39931   0.51952   0.00000  Uiso   1.00
Br459  Br    0.87664   0.40162   0.53671   0.00000  Uiso   1.00
Br460  Br    0.62703   0.60132   0.47304   0.00000  Uiso   1.00
O461   O     0.25000   0.76280   0.54759   0.00000  Uiso   1.00
O462   O     0.25000   0.90387   0.45241   0.00000  Uiso   1.00
O463   O     0.25000   0.90387   0.54759   0.00000  Uiso   1.00
O464   O     0.25000   0.76280   0.45241   0.00000  Uiso   1.00
C465   C     0.25010   0.73991   0.49999   0.00000  Uiso   1.00
C466   C     0.24990   0.92676   0.50001   0.00000  Uiso   1.00
O467   O     0.18513   0.83333   0.54760   0.00000  Uiso   1.00
O468   O     0.31487   0.83333   0.45240   0.00000  Uiso   1.00
O469   O     0.31487   0.83333   0.54760   0.00000  Uiso   1.00
O470   O     0.18513   0.83333   0.45240   0.00000  Uiso   1.00
C471   C     0.16430   0.83408   0.50010   0.00000  Uiso   1.00
C472   C     0.33571   0.83272   0.49981   0.00000  Uiso   1.00
Cu473  Cu    0.25000   0.83333   0.55636   0.00000  Uiso   1.00
Cu474  Cu    0.25000   0.83333   0.44364   0.00000  Uiso   1.00
N475   N     0.25000   0.83333   0.35894   0.00000  Uiso   1.00
N476   N     0.25000   0.83333   0.64106   0.00000  Uiso   1.00
C477   C     0.40549   0.87584   0.48392   0.00000  Uiso   1.00
C478   C     0.09383   0.79081   0.50207   0.00000  Uiso   1.00
C479   C     0.40774   0.79009   0.50636   0.00000  Uiso   1.00
C480   C     0.09294   0.87812   0.49230   0.00000  Uiso   1.00
C481   C     0.38390   0.83315   0.49844   0.00000  Uiso   1.00
C482   C     0.11612   0.83456   0.49994   0.00000  Uiso   1.00
C483   C     0.45405   0.78934   0.49655   0.00000  Uiso   1.00
C484   C     0.04594   0.87817   0.49216   0.00000  Uiso   1.00
C485   C     0.45229   0.87607   0.48146   0.00000  Uiso   1.00
C486   C     0.04756   0.79036   0.49428   0.00000  Uiso   1.00
C487   C     0.47648   0.83325   0.49141   0.00000  Uiso   1.00
C488   C     0.02343   0.83394   0.49316   0.00000  Uiso   1.00
C489   C     0.47857   0.74656   0.48676   0.00000  Uiso   1.00
C490   C     0.02044   0.92054   0.48547   0.00000  Uiso   1.00
C491   C     0.47606   0.91746   0.46832   0.00000  Uiso   1.00
C492   C     0.02516   0.74807   0.48126   0.00000  Uiso   1.00
C493   C     0.25004   0.68833   0.49999   0.00000  Uiso   1.00
C494   C     0.24996   0.97834   0.50001   0.00000  Uiso   1.00
O495   O     0.45792   0.70399   0.47605   0.00000  Uiso   1.00
H496   H     0.43302   0.71100   0.44951   0.00000  Uiso   1.00
O497   O     0.03554   0.96475   0.50146   0.00000  Uiso   1.00
H498   H     0.05443   0.96019   0.53580   0.00000  Uiso   1.00
O499   O     0.45709   0.95218   0.43419   0.00000  Uiso   1.00
H500   H     0.48126   0.96849   0.41317   0.00000  Uiso   1.00
O501   O     0.04852   0.71222   0.45330   0.00000  Uiso   1.00
H502   H     0.02838   0.69643   0.42592   0.00000  Uiso   1.00
Br503  Br    0.37009   0.93433   0.47758   0.00000  Uiso   1.00
Br504  Br    0.12713   0.73264   0.51952   0.00000  Uiso   1.00
Br505  Br    0.37664   0.73496   0.53671   0.00000  Uiso   1.00
Br506  Br    0.12703   0.93466   0.47304   0.00000  Uiso   1.00
O507   O     0.75000   0.76280   0.54759   0.00000  Uiso   1.00
O508   O     0.75000   0.90387   0.45241   0.00000  Uiso   1.00
O509   O     0.75000   0.90387   0.54759   0.00000  Uiso   1.00
O510   O     0.75000   0.76280   0.45241   0.00000  Uiso   1.00
C511   C     0.75010   0.73991   0.49999   0.00000  Uiso   1.00
C512   C     0.74990   0.92676   0.50001   0.00000  Uiso   1.00
O513   O     0.68513   0.83333   0.54760   0.00000  Uiso   1.00
O514   O     0.81487   0.83333   0.45240   0.00000  Uiso   1.00
O515   O     0.81487   0.83333   0.54760   0.00000  Uiso   1.00
O516   O     0.68513   0.83333   0.45240   0.00000  Uiso   1.00
C517   C     0.66430   0.83408   0.50010   0.00000  Uiso   1.00
C518   C     0.83571   0.83272   0.49981   0.00000  Uiso   1.00
Cu519  Cu    0.75000   0.83333   0.55636   0.00000  Uiso   1.00
Cu520  Cu    0.75000   0.83333   0.44364   0.00000  Uiso   1.00
N521   N     0.75000   0.83333   0.35894   0.00000  Uiso   1.00
N522   N     0.75000   0.83333   0.64106   0.00000  Uiso   1.00
C523   C     0.90549   0.87584   0.48392   0.00000  Uiso   1.00
C524   C     0.59383   0.79081   0.50207   0.00000  Uiso   1.00
C525   C     0.90774   0.79009   0.50636   0.00000  Uiso   1.00
C526   C     0.59294   0.87812   0.49230   0.00000  Uiso   1.00
C527   C     0.88390   0.83315   0.49844   0.00000  Uiso   1.00
C528   C     0.61612   0.83456   0.49994   0.00000  Uiso   1.00
C529   C     0.95405   0.78934   0.49655   0.00000  Uiso   1.00
C530   C     0.54594   0.87817   0.49216   0.00000  Uiso   1.00
C531   C     0.95229   0.87607   0.48146   0.00000  Uiso   1.00
C532   C     0.54756   0.79036   0.49428   0.00000  Uiso   1.00
C533   C     0.97648   0.83325   0.49141   0.00000  Uiso   1.00
C534   C     0.52343   0.83394   0.49316   0.00000  Uiso   1.00
C535   C     0.97857   0.74656   0.48676   0.00000  Uiso   1.00
C536   C     0.52044   0.92054   0.48547   0.00000  Uiso   1.00
C537   C     0.97606   0.91746   0.46832   0.00000  Uiso   1.00
C538   C     0.52516   0.74807   0.48126   0.00000  Uiso   1.00
C539   C     0.75004   0.68833   0.49999   0.00000  Uiso   1.00
C540   C     0.74996   0.97834   0.50001   0.00000  Uiso   1.00
O541   O     0.95792   0.70399   0.47605   0.00000  Uiso   1.00
H542   H     0.93302   0.71100   0.44951   0.00000  Uiso   1.00
O543   O     0.53554   0.96475   0.50146   0.00000  Uiso   1.00
H544   H     0.55443   0.96019   0.53580   0.00000  Uiso   1.00
O545   O     0.95709   0.95218   0.43419   0.00000  Uiso   1.00
H546   H     0.98126   0.96849   0.41317   0.00000  Uiso   1.00
O547   O     0.54852   0.71222   0.45330   0.00000  Uiso   1.00
H548   H     0.52838   0.69643   0.42592   0.00000  Uiso   1.00
Br549  Br    0.87009   0.93433   0.47758   0.00000  Uiso   1.00
Br550  Br    0.62713   0.73264   0.51952   0.00000  Uiso   1.00
Br551  Br    0.87664   0.73496   0.53671   0.00000  Uiso   1.00
Br552  Br    0.62703   0.93466   0.47304   0.00000  Uiso   1.00
O553   O     0.25000   0.09613   0.88092   0.00000  Uiso   1.00
O554   O     0.25000   0.23720   0.78575   0.00000  Uiso   1.00
O555   O     0.25000   0.23720   0.88092   0.00000  Uiso   1.00
O556   O     0.25000   0.09613   0.78575   0.00000  Uiso   1.00
C557   C     0.25010   0.07324   0.83333   0.00000  Uiso   1.00
C558   C     0.24990   0.26009   0.83334   0.00000  Uiso   1.00
O559   O     0.18513   0.16667   0.88093   0.00000  Uiso   1.00
O560   O     0.31487   0.16667   0.78573   0.00000  Uiso   1.00
O561   O     0.31487   0.16667   0.88093   0.00000  Uiso   1.00
O562   O     0.18513   0.16667   0.78573   0.00000  Uiso   1.00
C563   C     0.16430   0.16741   0.83343   0.00000  Uiso   1.00
C564   C     0.33571   0.16605   0.83314   0.00000  Uiso   1.00
Cu565  Cu    0.25000   0.16667   0.88969   0.00000  Uiso   1.00
Cu566  Cu    0.25000   0.16667   0.77697   0.00000  Uiso   1.00
N567   N     0.25000   0.16667   0.69227   0.00000  Uiso   1.00
N568   N     0.25000   0.16667   0.97439   0.00000  Uiso   1.00
C569   C     0.40549   0.20917   0.81725   0.00000  Uiso   1.00
C570   C     0.09383   0.12414   0.83541   0.00000  Uiso   1.00
C571   C     0.40774   0.12342   0.83969   0.00000  Uiso   1.00
C572   C     0.09294   0.21145   0.82563   0.00000  Uiso   1.00
C573   C     0.38390   0.16649   0.83177   0.00000  Uiso   1.00
C574   C     0.11612   0.16789   0.83327   0.00000  Uiso   1.00
C575   C     0.45405   0.12268   0.82988   0.00000  Uiso   1.00
C576   C     0.04594   0.21150   0.82549   0.00000  Uiso   1.00
C577   C     0.45229   0.20940   0.81479   0.00000  Uiso   1.00
C578   C     0.04756   0.12369   0.82761   0.00000  Uiso   1.00
C579   C     0.47648   0.16659   0.82474   0.00000  Uiso   1.00
C580   C     0.02343   0.16727   0.82650   0.00000  Uiso   1.00
C581   C     0.47857   0.07990   0.82009   0.00000  Uiso   1.00
C582   C     0.02044   0.25387   0.81880   0.00000  Uiso   1.00
C583   C     0.47606   0.25080   0.80165   0.00000  Uiso   1.00
C584   C     0.02516   0.08140   0.81460   0.00000  Uiso   1.00
C585   C     0.25004   0.02167   0.83333   0.00000  Uiso   1.00
C586   C     0.24996   0.31167   0.83335   0.00000  Uiso   1.00
O587   O     0.45792   0.03732   0.80939   0.00000  Uiso   1.00
H588   H     0.43302   0.04434   0.78284   0.00000  Uiso   1.00
O589   O     0.03554   0.29809   0.83480   0.00000  Uiso   1.00
H590   H     0.05443   0.29353   0.86913   0.00000  Uiso   1.00
O591   O     0.45709   0.28551   0.76752   0.00000  Uiso   1.00
H592   H     0.48126   0.30182   0.74650   0.00000  Uiso   1.00
O593   O     0.04852   0.04555   0.78663   0.00000  Uiso   1.00
H594   H     0.02838   0.02976   0.75925   0.00000  Uiso   1.00
Br595  Br    0.37009   0.26766   0.81092   0.00000  Uiso   1.00
Br596  Br    0.12713   0.06598   0.85285   0.00000  Uiso   1.00
Br597  Br    0.37664   0.06829   0.87004   0.00000  Uiso   1.00
Br598  Br    0.12703   0.26799   0.80637   0.00000  Uiso   1.00
O599   O     0.75000   0.09613   0.88092   0.00000  Uiso   1.00
O600   O     0.75000   0.23720   0.78575   0.00000  Uiso   1.00
O601   O     0.75000   0.23720   0.88092   0.00000  Uiso   1.00
O602   O     0.75000   0.09613   0.78575   0.00000  Uiso   1.00
C603   C     0.75010   0.07324   0.83333   0.00000  Uiso   1.00
C604   C     0.74990   0.26009   0.83334   0.00000  Uiso   1.00
O605   O     0.68513   0.16667   0.88093   0.00000  Uiso   1.00
O606   O     0.81487   0.16667   0.78573   0.00000  Uiso   1.00
O607   O     0.81487   0.16667   0.88093   0.00000  Uiso   1.00
O608   O     0.68513   0.16667   0.78573   0.00000  Uiso   1.00
C609   C     0.66430   0.16741   0.83343   0.00000  Uiso   1.00
C610   C     0.83571   0.16605   0.83314   0.00000  Uiso   1.00
Cu611  Cu    0.75000   0.16667   0.88969   0.00000  Uiso   1.00
Cu612  Cu    0.75000   0.16667   0.77697   0.00000  Uiso   1.00
N613   N     0.75000   0.16667   0.69227   0.00000  Uiso   1.00
N614   N     0.75000   0.16667   0.97439   0.00000  Uiso   1.00
C615   C     0.90549   0.20917   0.81725   0.00000  Uiso   1.00
C616   C     0.59383   0.12414   0.83541   0.00000  Uiso   1.00
C617   C     0.90774   0.12342   0.83969   0.00000  Uiso   1.00
C618   C     0.59294   0.21145   0.82563   0.00000  Uiso   1.00
C619   C     0.88390   0.16649   0.83177   0.00000  Uiso   1.00
C620   C     0.61612   0.16789   0.83327   0.00000  Uiso   1.00
C621   C     0.95405   0.12268   0.82988   0.00000  Uiso   1.00
C622   C     0.54594   0.21150   0.82549   0.00000  Uiso   1.00
C623   C     0.95229   0.20940   0.81479   0.00000  Uiso   1.00
C624   C     0.54756   0.12369   0.82761   0.00000  Uiso   1.00
C625   C     0.97648   0.16659   0.82474   0.00000  Uiso   1.00
C626   C     0.52343   0.16727   0.82650   0.00000  Uiso   1.00
C627   C     0.97857   0.07990   0.82009   0.00000  Uiso   1.00
C628   C     0.52044   0.25387   0.81880   0.00000  Uiso   1.00
C629   C     0.97606   0.25080   0.80165   0.00000  Uiso   1.00
C630   C     0.52516   0.08140   0.81460   0.00000  Uiso   1.00
C631   C     0.75004   0.02167   0.83333   0.00000  Uiso   1.00
C632   C     0.74996   0.31167   0.83335   0.00000  Uiso   1.00
O633   O     0.95792   0.03732   0.80939   0.00000  Uiso   1.00
H634   H     0.93302   0.04434   0.78284   0.00000  Uiso   1.00
O635   O     0.53554   0.29809   0.83480   0.00000  Uiso   1.00
H636   H     0.55443   0.29353   0.86913   0.00000  Uiso   1.00
O637   O     0.95709   0.28551   0.76752   0.00000  Uiso   1.00
H638   H     0.98126   0.30182   0.74650   0.00000  Uiso   1.00
O639   O     0.54852   0.04555   0.78663   0.00000  Uiso   1.00
H640   H     0.52838   0.02976   0.75925   0.00000  Uiso   1.00
Br641  Br    0.87009   0.26766   0.81092   0.00000  Uiso   1.00
Br642  Br    0.62713   0.06598   0.85285   0.00000  Uiso   1.00
Br643  Br    0.87664   0.06829   0.87004   0.00000  Uiso   1.00
Br644  Br    0.62703   0.26799   0.80637   0.00000  Uiso   1.00
O645   O     0.25000   0.42946   0.88092   0.00000  Uiso   1.00
O646   O     0.25000   0.57054   0.78575   0.00000  Uiso   1.00
O647   O     0.25000   0.57054   0.88092   0.00000  Uiso   1.00
O648   O     0.25000   0.42946   0.78575   0.00000  Uiso   1.00
C649   C     0.25010   0.40658   0.83333   0.00000  Uiso   1.00
C650   C     0.24990   0.59342   0.83334   0.00000  Uiso   1.00
O651   O     0.18513   0.50000   0.88093   0.00000  Uiso   1.00
O652   O     0.31487   0.50000   0.78573   0.00000  Uiso   1.00
O653   O     0.31487   0.50000   0.88093   0.00000  Uiso   1.00
O654   O     0.18513   0.50000   0.78573   0.00000  Uiso   1.00
C655   C     0.16430   0.50074   0.83343   0.00000  Uiso   1.00
C656   C     0.33571   0.49939   0.83314   0.00000  Uiso   1.00
Cu657  Cu    0.25000   0.50000   0.88969   0.00000  Uiso   1.00
Cu658  Cu    0.25000   0.50000   0.77697   0.00000  Uiso   1.00
N659   N     0.25000   0.50000   0.69227   0.00000  Uiso   1.00
N660   N     0.25000   0.50000   0.97439   0.00000  Uiso   1.00
C661   C     0.40549   0.54251   0.81725   0.00000  Uiso   1.00
C662   C     0.09383   0.45748   0.83541   0.00000  Uiso   1.00
C663   C     0.40774   0.45676   0.83969   0.00000  Uiso   1.00
C664   C     0.09294   0.54479   0.82563   0.00000  Uiso   1.00
C665   C     0.38390   0.49982   0.83177   0.00000  Uiso   1.00
C666   C     0.11612   0.50122   0.83327   0.00000  Uiso   1.00
C667   C     0.45405   0.45601   0.82988   0.00000  Uiso   1.00
C668   C     0.04594   0.54484   0.82549   0.00000  Uiso   1.00
C669   C     0.45229   0.54274   0.81479   0.00000  Uiso   1.00
C670   C     0.04756   0.45702   0.82761   0.00000  Uiso   1.00
C671   C     0.47648   0.49992   0.82474   0.00000  Uiso   1.00
C672   C     0.02343   0.50061   0.82650   0.00000  Uiso   1.00
C673   C     0.47857   0.41323   0.82009   0.00000  Uiso   1.00
C674   C     0.02044   0.58720   0.81880   0.00000  Uiso   1.00
C675   C     0.47606   0.58413   0.80165   0.00000  Uiso   1.00
C676   C     0.02516   0.41473   0.81460   0.00000  Uiso   1.00
C677   C     0.25004   0.35500   0.83333   0.00000  Uiso   1.00
C678   C     0.24996   0.64500   0.83335   0.00000  Uiso   1.00
O679   O     0.45792   0.37066   0.80939   0.00000  Uiso   1.00
H680   H     0.43302   0.37767   0.78284   0.00000  Uiso   1.00
O681   O     0.03554   0.63142   0.83480   0.00000  Uiso   1.00
H682   H     0.05443   0.62686   0.86913   0.00000  Uiso   1.00
O683   O     0.45709   0.61884   0.76752   0.00000  Uiso   1.00
H684   H     0.48126   0.63515   0.74650   0.00000  Uiso   1.00
O685   O     0.04852   0.37888   0.78663   0.00000  Uiso   1.00
H686   H     0.02838   0.36309   0.75925   0.00000  Uiso   1.00
Br687  Br    0.37009   0.60099   0.81092   0.00000  Uiso   1.00
Br688  Br    0.12713   0.39931   0.85285   0.00000  Uiso   1.00
Br689  Br    0.37664   0.40162   0.87004   0.00000  Uiso   1.00
Br690  Br    0.12703   0.60132   0.80637   0.00000  Uiso   1.00
O691   O     0.75000   0.42946   0.88092   0.00000  Uiso   1.00
O692   O     0.75000   0.57054   0.78575   0.00000  Uiso   1.00
O693   O     0.75000   0.57054   0.88092   0.00000  Uiso   1.00
O694   O     0.75000   0.42946   0.78575   0.00000  Uiso   1.00
C695   C     0.75010   0.40658   0.83333   0.00000  Uiso   1.00
C696   C     0.74990   0.59342   0.83334   0.00000  Uiso   1.00
O697   O     0.68513   0.50000   0.88093   0.00000  Uiso   1.00
O698   O     0.81487   0.50000   0.78573   0.00000  Uiso   1.00
O699   O     0.81487   0.50000   0.88093   0.00000  Uiso   1.00
O700   O     0.68513   0.50000   0.78573   0.00000  Uiso   1.00
C701   C     0.66430   0.50074   0.83343   0.00000  Uiso   1.00
C702   C     0.83571   0.49939   0.83314   0.00000  Uiso   1.00
Cu703  Cu    0.75000   0.50000   0.88969   0.00000  Uiso   1.00
Cu704  Cu    0.75000   0.50000   0.77697   0.00000  Uiso   1.00
N705   N     0.75000   0.50000   0.69227   0.00000  Uiso   1.00
N706   N     0.75000   0.50000   0.97439   0.00000  Uiso   1.00
C707   C     0.90549   0.54251   0.81725   0.00000  Uiso   1.00
C708   C     0.59383   0.45748   0.83541   0.00000  Uiso   1.00
C709   C     0.90774   0.45676   0.83969   0.00000  Uiso   1.00
C710   C     0.59294   0.54479   0.82563   0.00000  Uiso   1.00
C711   C     0.88390   0.49982   0.83177   0.00000  Uiso   1.00
C712   C     0.61612   0.50122   0.83327   0.00000  Uiso   1.00
C713   C     0.95405   0.45601   0.82988   0.00000  Uiso   1.00
C714   C     0.54594   0.54484   0.82549   0.00000  Uiso   1.00
C715   C     0.95229   0.54274   0.81479   0.00000  Uiso   1.00
C716   C     0.54756   0.45702   0.82761   0.00000  Uiso   1.00
C717   C     0.97648   0.49992   0.82474   0.00000  Uiso   1.00
C718   C     0.52343   0.50061   0.82650   0.00000  Uiso   1.00
C719   C     0.97857   0.41323   0.82009   0.00000  Uiso   1.00
C720   C     0.52044   0.58720   0.81880   0.00000  Uiso   1.00
C721   C     0.97606   0.58413   0.80165   0.00000  Uiso   1.00
C722   C     0.52516   0.41473   0.81460   0.00000  Uiso   1.00
C723   C     0.75004   0.35500   0.83333   0.00000  Uiso   1.00
C724   C     0.74996   0.64500   0.83335   0.00000  Uiso   1.00
O725   O     0.95792   0.37066   0.80939   0.00000  Uiso   1.00
H726   H     0.93302   0.37767   0.78284   0.00000  Uiso   1.00
O727   O     0.53554   0.63142   0.83480   0.00000  Uiso   1.00
H728   H     0.55443   0.62686   0.86913   0.00000  Uiso   1.00
O729   O     0.95709   0.61884   0.76752   0.00000  Uiso   1.00
H730   H     0.98126   0.63515   0.74650   0.00000  Uiso   1.00
O731   O     0.54852   0.37888   0.78663   0.00000  Uiso   1.00
H732   H     0.52838   0.36309   0.75925   0.00000  Uiso   1.00
Br733  Br    0.87009   0.60099   0.81092   0.00000  Uiso   1.00
Br734  Br    0.62713   0.39931   0.85285   0.00000  Uiso   1.00
Br735  Br    0.87664   0.40162   0.87004   0.00000  Uiso   1.00
Br736  Br    0.62703   0.60132   0.80637   0.00000  Uiso   1.00
O737   O     0.25000   0.76280   0.88092   0.00000  Uiso   1.00
O738   O     0.25000   0.90387   0.78575   0.00000  Uiso   1.00
O739   O     0.25000   0.90387   0.88092   0.00000  Uiso   1.00
O740   O     0.25000   0.76280   0.78575   0.00000  Uiso   1.00
C741   C     0.25010   0.73991   0.83333   0.00000  Uiso   1.00
C742   C     0.24990   0.92676   0.83334   0.00000  Uiso   1.00
O743   O     0.18513   0.83333   0.88093   0.00000  Uiso   1.00
O744   O     0.31487   0.83333   0.78573   0.00000  Uiso   1.00
O745   O     0.31487   0.83333   0.88093   0.00000  Uiso   1.00
O746   O     0.18513   0.83333   0.78573   0.00000  Uiso   1.00
C747   C     0.16430   0.83408   0.83343   0.00000  Uiso   1.00
C748   C     0.33571   0.83272   0.83314   0.00000  Uiso   1.00
Cu749  Cu    0.25000   0.83333   0.88969   0.00000  Uiso   1.00
Cu750  Cu    0.25000   0.83333   0.77697   0.00000  Uiso   1.00
N751   N     0.25000   0.83333   0.69227   0.00000  Uiso   1.00
N752   N     0.25000   0.83333   0.97439   0.00000  Uiso   1.00
C753   C     0.40549   0.87584   0.81725   0.00000  Uiso   1.00
C754   C     0.09383   0.79081   0.83541   0.00000  Uiso   1.00
C755   C     0.40774   0.79009   0.83969   0.00000  Uiso   1.00
C756   C     0.09294   0.87812   0.82563   0.00000  Uiso   1.00
C757   C     0.38390   0.83315   0.83177   0.00000  Uiso   1.00
C758   C     0.11612   0.83456   0.83327   0.00000  Uiso   1.00
C759   C     0.45405   0.78934   0.82988   0.00000  Uiso   1.00
C760   C     0.04594   0.87817   0.82549   0.00000  Uiso   1.00
C761   C     0.45229   0.87607   0.81479   0.00000  Uiso   1.00
C762   C     0.04756   0.79036   0.82761   0.00000  Uiso   1.00
C763   C     0.47648   0.83325   0.82474   0.00000  Uiso   1.00
C764   C     0.02343   0.83394   0.82650   0.00000  Uiso   1.00
C765   C     0.47857   0.74656   0.82009   0.00000  Uiso   1.00
C766   C     0.02044   0.92054   0.81880   0.00000  Uiso   1.00
C767   C     0.47606   0.91746   0.80165   0.00000  Uiso   1.00
C768   C     0.02516   0.74807   0.81460   0.00000  Uiso   1.00
C769   C     0.25004   0.68833   0.83333   0.00000  Uiso   1.00
C770   C     0.24996   0.97834   0.83335   0.00000  Uiso   1.00
O771   O     0.45792   0.70399   0.80939   0.00000  Uiso   1.00
H772   H     0.43302   0.71100   0.78284   0.00000  Uiso   1.00
O773   O     0.03554   0.96475   0.83480   0.00000  Uiso   1.00
H774   H     0.05443   0.96019   0.86913   0.00000  Uiso   1.00
O775   O     0.45709   0.95218   0.76752   0.00000  Uiso   1.00
H776   H     0.48126   0.96849   0.74650   0.00000  Uiso   1.00
O777   O     0.04852   0.71222   0.78663   0.00000  Uiso   1.00
H778   H     0.02838   0.69643   0.75925   0.00000  Uiso   1.00
Br779  Br    0.37009   0.93433   0.81092   0.00000  Uiso   1.00
Br780  Br    0.12713   0.73264   0.85285   0.00000  Uiso   1.00
Br781  Br    0.37664   0.73496   0.87004   0.00000  Uiso   1.00
Br782  Br    0.12703   0.93466   0.80637   0.00000  Uiso   1.00
O783   O     0.75000   0.76280   0.88092   0.00000  Uiso   1.00
O784   O     0.75000   0.90387   0.78575   0.00000  Uiso   1.00
O785   O     0.75000   0.90387   0.88092   0.00000  Uiso   1.00
O786   O     0.75000   0.76280   0.78575   0.00000  Uiso   1.00
C787   C     0.75010   0.73991   0.83333   0.00000  Uiso   1.00
C788   C     0.74990   0.92676   0.83334   0.00000  Uiso   1.00
O789   O     0.68513   0.83333   0.88093   0.00000  Uiso   1.00
O790   O     0.81487   0.83333   0.78573   0.00000  Uiso   1.00
O791   O     0.81487   0.83333   0.88093   0.00000  Uiso   1.00
O792   O     0.68513   0.83333   0.78573   0.00000  Uiso   1.00
C793   C     0.66430   0.83408   0.83343   0.00000  Uiso   1.00
C794   C     0.83571   0.83272   0.83314   0.00000  Uiso   1.00
Cu795  Cu    0.75000   0.83333   0.88969   0.00000  Uiso   1.00
Cu796  Cu    0.75000   0.83333   0.77697   0.00000  Uiso   1.00
N797   N     0.75000   0.83333   0.69227   0.00000  Uiso   1.00
N798   N     0.75000   0.83333   0.97439   0.00000  Uiso   1.00
C799   C     0.90549   0.87584   0.81725   0.00000  Uiso   1.00
C800   C     0.59383   0.79081   0.83541   0.00000  Uiso   1.00
C801   C     0.90774   0.79009   0.83969   0.00000  Uiso   1.00
C802   C     0.59294   0.87812   0.82563   0.00000  Uiso   1.00
C803   C     0.88390   0.83315   0.83177   0.00000  Uiso   1.00
C804   C     0.61612   0.83456   0.83327   0.00000  Uiso   1.00
C805   C     0.95405   0.78934   0.82988   0.00000  Uiso   1.00
C806   C     0.54594   0.87817   0.82549   0.00000  Uiso   1.00
C807   C     0.95229   0.87607   0.81479   0.00000  Uiso   1.00
C808   C     0.54756   0.79036   0.82761   0.00000  Uiso   1.00
C809   C     0.97648   0.83325   0.82474   0.00000  Uiso   1.00
C810   C     0.52343   0.83394   0.82650   0.00000  Uiso   1.00
C811   C     0.97857   0.74656   0.82009   0.00000  Uiso   1.00
C812   C     0.52044   0.92054   0.81880   0.00000  Uiso   1.00
C813   C     0.97606   0.91746   0.80165   0.00000  Uiso   1.00
C814   C     0.52516   0.74807   0.81460   0.00000  Uiso   1.00
C815   C     0.75004   0.68833   0.83333   0.00000  Uiso   1.00
C816   C     0.74996   0.97834   0.83335   0.00000  Uiso   1.00
O817   O     0.95792   0.70399   0.80939   0.00000  Uiso   1.00
H818   H     0.93302   0.71100   0.78284   0.00000  Uiso   1.00
O819   O     0.53554   0.96475   0.83480   0.00000  Uiso   1.00
H820   H     0.55443   0.96019   0.86913   0.00000  Uiso   1.00
O821   O     0.95709   0.95218   0.76752   0.00000  Uiso   1.00
H822   H     0.98126   0.96849   0.74650   0.00000  Uiso   1.00
O823   O     0.54852   0.71222   0.78663   0.00000  Uiso   1.00
H824   H     0.52838   0.69643   0.75925   0.00000  Uiso   1.00
Br825  Br    0.87009   0.93433   0.81092   0.00000  Uiso   1.00
Br826  Br    0.62713   0.73264   0.85285   0.00000  Uiso   1.00
Br827  Br    0.87664   0.73496   0.87004   0.00000  Uiso   1.00
Br828  Br    0.62703   0.93466   0.80637   0.00000  Uiso   1.00
loop_
_geom_bond_atom_site_label_1
_geom_bond_atom_site_label_2
_geom_bond_distance
_geom_bond_site_symmetry_2
_ccdc_geom_bond_type
O1     C5      1.281   .     A
O1     Cu13    1.974   .     S
O2     C6      1.281   .     A
O2     Cu14    1.974   .     S
O3     Cu13    1.974   .     S
O3     C6      1.281   .     A
O4     Cu14    1.974   .     S
O4     C5      1.281   .     A
C5     C33     1.436   .     S
C6     C34     1.436   .     S
O7     C11     1.277   .     A
O7     Cu13    1.963   .     S
O8     C12     1.275   .     A
O8     Cu14    1.963   .     S
O9     C12     1.278   .     A
O9     Cu13    1.962   .     S
O10    C11     1.276   .     A
O10    Cu14    1.962   .     S
C11    C22     1.450   .     S
C12    C21     1.450   .     S
Cu13   Cu14    2.633   .     S
Cu13   N16     1.978   .     S
Cu14   N15     1.978   .     S
N15    N568    1.196   1_554 S
N16    N291    1.196   .     S
C17    Br43    1.941   .     S
C17    C25     1.409   .     A
C17    C21     1.402   .     A
C18    Br44    1.938   .     S
C18    C22     1.398   .     A
C18    C26     1.405   .     A
C19    C23     1.411   .     A
C19    Br45    1.940   .     S
C19    C21     1.402   .     A
C20    C22     1.403   .     A
C20    C24     1.414   .     A
C20    Br46    1.941   .     S
C23    C29     1.411   .     A
C23    C27     1.408   .     A
C24    C30     1.408   .     A
C24    C28     1.412   .     A
C25    C31     1.397   .     A
C25    C27     1.409   .     A
C26    C32     1.397   .     A
C26    C28     1.407   .     A
C27    C74     1.414   .     S
C28    C73     1.414   1_455 S
C29    O35     1.368   .     S
C29    C78     1.408   .     S
C30    O37     1.369   .     S
C30    C77     1.399   1_455 S
C31    O39     1.373   .     S
C31    C76     1.399   .     S
C32    O41     1.377   .     S
C32    C75     1.408   1_455 S
C33    C218    1.206   1_545 S
C34    C125    1.206   .     S
O35    H36     0.992   .     S
O37    H38     0.992   .     S
O39    H40     0.991   .     S
O41    H42     0.989   .     S
O47    C51     1.281   .     A
O47    Cu59    1.974   .     S
O48    C52     1.281   .     A
O48    Cu60    1.974   .     S
O49    Cu59    1.974   .     S
O49    C52     1.281   .     A
O50    Cu60    1.974   .     S
O50    C51     1.281   .     A
C51    C79     1.436   .     S
C52    C80     1.436   .     S
O53    C57     1.277   .     A
O53    Cu59    1.963   .     S
O54    C58     1.275   .     A
O54    Cu60    1.963   .     S
O55    C58     1.278   .     A
O55    Cu59    1.962   .     S
O56    C57     1.276   .     A
O56    Cu60    1.962   .     S
C57    C68     1.450   .     S
C58    C67     1.450   .     S
Cu59   Cu60    2.633   .     S
Cu59   N62     1.978   .     S
Cu60   N61     1.978   .     S
N61    N614    1.196   1_554 S
N62    N337    1.196   .     S
C63    Br89    1.941   .     S
C63    C71     1.409   .     A
C63    C67     1.402   .     A
C64    Br90    1.938   .     S
C64    C68     1.398   .     A
C64    C72     1.405   .     A
C65    C69     1.411   .     A
C65    Br91    1.940   .     S
C65    C67     1.402   .     A
C66    C68     1.403   .     A
C66    C70     1.414   .     A
C66    Br92    1.941   .     S
C69    C75     1.411   .     A
C69    C73     1.408   .     A
C70    C76     1.408   .     A
C70    C74     1.412   .     A
C71    C77     1.397   .     A
C71    C73     1.409   .     A
C72    C78     1.397   .     A
C72    C74     1.407   .     A
C73    C28     1.414   1_655 S
C75    O81     1.368   .     S
C75    C32     1.408   1_655 S
C76    O83     1.369   .     S
C77    O85     1.373   .     S
C77    C30     1.399   1_655 S
C78    O87     1.377   .     S
C79    C264    1.206   1_545 S
C80    C171    1.206   .     S
O81    H82     0.992   .     S
O83    H84     0.992   .     S
O85    H86     0.991   .     S
O87    H88     0.989   .     S
O93    C97     1.281   .     A
O93    Cu105   1.974   .     S
O94    C98     1.281   .     A
O94    Cu106   1.974   .     S
O95    Cu105   1.974   .     S
O95    C98     1.281   .     A
O96    Cu106   1.974   .     S
O96    C97     1.281   .     A
C97    C125    1.436   .     S
C98    C126    1.436   .     S
O99    C103    1.277   .     A
O99    Cu105   1.963   .     S
O100   C104    1.275   .     A
O100   Cu106   1.963   .     S
O101   C104    1.278   .     A
O101   Cu105   1.962   .     S
O102   C103    1.276   .     A
O102   Cu106   1.962   .     S
C103   C114    1.450   .     S
C104   C113    1.450   .     S
Cu105  Cu106   2.633   .     S
Cu105  N108    1.978   .     S
Cu106  N107    1.978   .     S
N107   N660    1.196   1_554 S
N108   N383    1.196   .     S
C109   Br135   1.941   .     S
C109   C117    1.409   .     A
C109   C113    1.402   .     A
C110   Br136   1.938   .     S
C110   C114    1.398   .     A
C110   C118    1.405   .     A
C111   C115    1.411   .     A
C111   Br137   1.940   .     S
C111   C113    1.402   .     A
C112   C114    1.403   .     A
C112   C116    1.414   .     A
C112   Br138   1.941   .     S
C115   C121    1.411   .     A
C115   C119    1.408   .     A
C116   C122    1.408   .     A
C116   C120    1.412   .     A
C117   C123    1.397   .     A
C117   C119    1.409   .     A
C118   C124    1.397   .     A
C118   C120    1.407   .     A
C119   C166    1.414   .     S
C120   C165    1.414   1_455 S
C121   O127    1.368   .     S
C121   C170    1.408   .     S
C122   O129    1.369   .     S
C122   C169    1.399   1_455 S
C123   O131    1.373   .     S
C123   C168    1.399   .     S
C124   O133    1.377   .     S
C124   C167    1.408   1_455 S
C126   C217    1.206   .     S
O127   H128    0.992   .     S
O129   H130    0.992   .     S
O131   H132    0.991   .     S
O133   H134    0.989   .     S
O139   C143    1.281   .     A
O139   Cu151   1.974   .     S
O140   C144    1.281   .     A
O140   Cu152   1.974   .     S
O141   Cu151   1.974   .     S
O141   C144    1.281   .     A
O142   Cu152   1.974   .     S
O142   C143    1.281   .     A
C143   C171    1.436   .     S
C144   C172    1.436   .     S
O145   C149    1.277   .     A
O145   Cu151   1.963   .     S
O146   C150    1.275   .     A
O146   Cu152   1.963   .     S
O147   C150    1.278   .     A
O147   Cu151   1.962   .     S
O148   C149    1.276   .     A
O148   Cu152   1.962   .     S
C149   C160    1.450   .     S
C150   C159    1.450   .     S
Cu151  Cu152   2.633   .     S
Cu151  N154    1.978   .     S
Cu152  N153    1.978   .     S
N153   N706    1.196   1_554 S
N154   N429    1.196   .     S
C155   Br181   1.941   .     S
C155   C163    1.409   .     A
C155   C159    1.402   .     A
C156   Br182   1.938   .     S
C156   C160    1.398   .     A
C156   C164    1.405   .     A
C157   C161    1.411   .     A
C157   Br183   1.940   .     S
C157   C159    1.402   .     A
C158   C160    1.403   .     A
C158   C162    1.414   .     A
C158   Br184   1.941   .     S
C161   C167    1.411   .     A
C161   C165    1.408   .     A
C162   C168    1.408   .     A
C162   C166    1.412   .     A
C163   C169    1.397   .     A
C163   C165    1.409   .     A
C164   C170    1.397   .     A
C164   C166    1.407   .     A
C165   C120    1.414   1_655 S
C167   O173    1.368   .     S
C167   C124    1.408   1_655 S
C168   O175    1.369   .     S
C169   O177    1.373   .     S
C169   C122    1.399   1_655 S
C170   O179    1.377   .     S
C172   C263    1.206   .     S
O173   H174    0.992   .     S
O175   H176    0.992   .     S
O177   H178    0.991   .     S
O179   H180    0.989   .     S
O185   C189    1.281   .     A
O185   Cu197   1.974   .     S
O186   C190    1.281   .     A
O186   Cu198   1.974   .     S
O187   Cu197   1.974   .     S
O187   C190    1.281   .     A
O188   Cu198   1.974   .     S
O188   C189    1.281   .     A
C189   C217    1.436   .     S
C190   C218    1.436   .     S
O191   C195    1.277   .     A
O191   Cu197   1.963   .     S
O192   C196    1.275   .     A
O192   Cu198   1.963   .     S
O193   C196    1.278   .     A
O193   Cu197   1.962   .     S
O194   C195    1.276   .     A
O194   Cu198   1.962   .     S
C195   C206    1.450   .     S
C196   C205    1.450   .     S
Cu197  Cu198   2.633   .     S
Cu197  N200    1.978   .     S
Cu198  N199    1.978   .     S
N199   N752    1.196   1_554 S
N200   N475    1.196   .     S
C201   Br227   1.941   .     S
C201   C209    1.409   .     A
C201   C205    1.402   .     A
C202   Br228   1.938   .     S
C202   C206    1.398   .     A
C202   C210    1.405   .     A
C203   C207    1.411   .     A
C203   Br229   1.940   .     S
C203   C205    1.402   .     A
C204   C206    1.403   .     A
C204   C208    1.414   .     A
C204   Br230   1.941   .     S
C207   C213    1.411   .     A
C207   C211    1.408   .     A
C208   C214    1.408   .     A
C208   C212    1.412   .     A
C209   C215    1.397   .     A
C209   C211    1.409   .     A
C210   C216    1.397   .     A
C210   C212    1.407   .     A
C211   C258    1.414   .     S
C212   C257    1.414   1_455 S
C213   O219    1.368   .     S
C213   C262    1.408   .     S
C214   O221    1.369   .     S
C214   C261    1.399   1_455 S
C215   O223    1.373   .     S
C215   C260    1.399   .     S
C216   O225    1.377   .     S
C216   C259    1.408   1_455 S
C218   C33     1.206   1_565 S
O219   H220    0.992   .     S
O221   H222    0.992   .     S
O223   H224    0.991   .     S
O225   H226    0.989   .     S
O231   C235    1.281   .     A
O231   Cu243   1.974   .     S
O232   C236    1.281   .     A
O232   Cu244   1.974   .     S
O233   Cu243   1.974   .     S
O233   C236    1.281   .     A
O234   Cu244   1.974   .     S
O234   C235    1.281   .     A
C235   C263    1.436   .     S
C236   C264    1.436   .     S
O237   C241    1.277   .     A
O237   Cu243   1.963   .     S
O238   C242    1.275   .     A
O238   Cu244   1.963   .     S
O239   C242    1.278   .     A
O239   Cu243   1.962   .     S
O240   C241    1.276   .     A
O240   Cu244   1.962   .     S
C241   C252    1.450   .     S
C242   C251    1.450   .     S
Cu243  Cu244   2.633   .     S
Cu243  N246    1.978   .     S
Cu244  N245    1.978   .     S
N245   N798    1.196   1_554 S
N246   N521    1.196   .     S
C247   Br273   1.941   .     S
C247   C255    1.409   .     A
C247   C251    1.402   .     A
C248   Br274   1.938   .     S
C248   C252    1.398   .     A
C248   C256    1.405   .     A
C249   C253    1.411   .     A
C249   Br275   1.940   .     S
C249   C251    1.402   .     A
C250   C252    1.403   .     A
C250   C254    1.414   .     A
C250   Br276   1.941   .     S
C253   C259    1.411   .     A
C253   C257    1.408   .     A
C254   C260    1.408   .     A
C254   C258    1.412   .     A
C255   C261    1.397   .     A
C255   C257    1.409   .     A
C256   C262    1.397   .     A
C256   C258    1.407   .     A
C257   C212    1.414   1_655 S
C259   O265    1.368   .     S
C259   C216    1.408   1_655 S
C260   O267    1.369   .     S
C261   O269    1.373   .     S
C261   C214    1.399   1_655 S
C262   O271    1.377   .     S
C264   C79     1.206   1_565 S
O265   H266    0.992   .     S
O267   H268    0.992   .     S
O269   H270    0.991   .     S
O271   H272    0.989   .     S
O277   C281    1.281   .     A
O277   Cu289   1.974   .     S
O278   C282    1.281   .     A
O278   Cu290   1.974   .     S
O279   Cu289   1.974   .     S
O279   C282    1.281   .     A
O280   Cu290   1.974   .     S
O280   C281    1.281   .     A
C281   C309    1.436   .     S
C282   C310    1.436   .     S
O283   C287    1.277   .     A
O283   Cu289   1.963   .     S
O284   C288    1.275   .     A
O284   Cu290   1.963   .     S
O285   C288    1.278   .     A
O285   Cu289   1.962   .     S
O286   C287    1.276   .     A
O286   Cu290   1.962   .     S
C287   C298    1.450   .     S
C288   C297    1.450   .     S
Cu289  Cu290   2.633   .     S
Cu289  N292    1.978   .     S
Cu290  N291    1.978   .     S
N292   N567    1.196   .     S
C293   Br319   1.941   .     S
C293   C301    1.409   .     A
C293   C297    1.402   .     A
C294   Br320   1.938   .     S
C294   C298    1.398   .     A
C294   C302    1.405   .     A
C295   C299    1.411   .     A
C295   Br321   1.940   .     S
C295   C297    1.402   .     A
C296   C298    1.403   .     A
C296   C300    1.414   .     A
C296   Br322   1.941   .     S
C299   C305    1.411   .     A
C299   C303    1.408   .     A
C300   C306    1.408   .     A
C300   C304    1.412   .     A
C301   C307    1.397   .     A
C301   C303    1.409   .     A
C302   C308    1.397   .     A
C302   C304    1.407   .     A
C303   C350    1.414   .     S
C304   C349    1.414   1_455 S
C305   O311    1.368   .     S
C305   C354    1.408   .     S
C306   O313    1.369   .     S
C306   C353    1.399   1_455 S
C307   O315    1.373   .     S
C307   C352    1.399   .     S
C308   O317    1.377   .     S
C308   C351    1.408   1_455 S
C309   C494    1.206   1_545 S
C310   C401    1.206   .     S
O311   H312    0.992   .     S
O313   H314    0.992   .     S
O315   H316    0.991   .     S
O317   H318    0.989   .     S
O323   C327    1.281   .     A
O323   Cu335   1.974   .     S
O324   C328    1.281   .     A
O324   Cu336   1.974   .     S
O325   Cu335   1.974   .     S
O325   C328    1.281   .     A
O326   Cu336   1.974   .     S
O326   C327    1.281   .     A
C327   C355    1.436   .     S
C328   C356    1.436   .     S
O329   C333    1.277   .     A
O329   Cu335   1.963   .     S
O330   C334    1.275   .     A
O330   Cu336   1.963   .     S
O331   C334    1.278   .     A
O331   Cu335   1.962   .     S
O332   C333    1.276   .     A
O332   Cu336   1.962   .     S
C333   C344    1.450   .     S
C334   C343    1.450   .     S
Cu335  Cu336   2.633   .     S
Cu335  N338    1.978   .     S
Cu336  N337    1.978   .     S
N338   N613    1.196   .     S
C339   Br365   1.941   .     S
C339   C347    1.409   .     A
C339   C343    1.402   .     A
C340   Br366   1.938   .     S
C340   C344    1.398   .     A
C340   C348    1.405   .     A
C341   C345    1.411   .     A
C341   Br367   1.940   .     S
C341   C343    1.402   .     A
C342   C344    1.403   .     A
C342   C346    1.414   .     A
C342   Br368   1.941   .     S
C345   C351    1.411   .     A
C345   C349    1.408   .     A
C346   C352    1.408   .     A
C346   C350    1.412   .     A
C347   C353    1.397   .     A
C347   C349    1.409   .     A
C348   C354    1.397   .     A
C348   C350    1.407   .     A
C349   C304    1.414   1_655 S
C351   O357    1.368   .     S
C351   C308    1.408   1_655 S
C352   O359    1.369   .     S
C353   O361    1.373   .     S
C353   C306    1.399   1_655 S
C354   O363    1.377   .     S
C355   C540    1.206   1_545 S
C356   C447    1.206   .     S
O357   H358    0.992   .     S
O359   H360    0.992   .     S
O361   H362    0.991   .     S
O363   H364    0.989   .     S
O369   C373    1.281   .     A
O369   Cu381   1.974   .     S
O370   C374    1.281   .     A
O370   Cu382   1.974   .     S
O371   Cu381   1.974   .     S
O371   C374    1.281   .     A
O372   Cu382   1.974   .     S
O372   C373    1.281   .     A
C373   C401    1.436   .     S
C374   C402    1.436   .     S
O375   C379    1.277   .     A
O375   Cu381   1.963   .     S
O376   C380    1.275   .     A
O376   Cu382   1.963   .     S
O377   C380    1.278   .     A
O377   Cu381   1.962   .     S
O378   C379    1.276   .     A
O378   Cu382   1.962   .     S
C379   C390    1.450   .     S
C380   C389    1.450   .     S
Cu381  Cu382   2.633   .     S
Cu381  N384    1.978   .     S
Cu382  N383    1.978   .     S
N384   N659    1.196   .     S
C385   Br411   1.941   .     S
C385   C393    1.409   .     A
C385   C389    1.402   .     A
C386   Br412   1.938   .     S
C386   C390    1.398   .     A
C386   C394    1.405   .     A
C387   C391    1.411   .     A
C387   Br413   1.940   .     S
C387   C389    1.402   .     A
C388   C390    1.403   .     A
C388   C392    1.414   .     A
C388   Br414   1.941   .     S
C391   C397    1.411   .     A
C391   C395    1.408   .     A
C392   C398    1.408   .     A
C392   C396    1.412   .     A
C393   C399    1.397   .     A
C393   C395    1.409   .     A
C394   C400    1.397   .     A
C394   C396    1.407   .     A
C395   C442    1.414   .     S
C396   C441    1.414   1_455 S
C397   O403    1.368   .     S
C397   C446    1.408   .     S
C398   O405    1.369   .     S
C398   C445    1.399   1_455 S
C399   O407    1.373   .     S
C399   C444    1.399   .     S
C400   O409    1.377   .     S
C400   C443    1.408   1_455 S
C402   C493    1.206   .     S
O403   H404    0.992   .     S
O405   H406    0.992   .     S
O407   H408    0.991   .     S
O409   H410    0.989   .     S
O415   C419    1.281   .     A
O415   Cu427   1.974   .     S
O416   C420    1.281   .     A
O416   Cu428   1.974   .     S
O417   Cu427   1.974   .     S
O417   C420    1.281   .     A
O418   Cu428   1.974   .     S
O418   C419    1.281   .     A
C419   C447    1.436   .     S
C420   C448    1.436   .     S
O421   C425    1.277   .     A
O421   Cu427   1.963   .     S
O422   C426    1.275   .     A
O422   Cu428   1.963   .     S
O423   C426    1.278   .     A
O423   Cu427   1.962   .     S
O424   C425    1.276   .     A
O424   Cu428   1.962   .     S
C425   C436    1.450   .     S
C426   C435    1.450   .     S
Cu427  Cu428   2.633   .     S
Cu427  N430    1.978   .     S
Cu428  N429    1.978   .     S
N430   N705    1.196   .     S
C431   Br457   1.941   .     S
C431   C439    1.409   .     A
C431   C435    1.402   .     A
C432   Br458   1.938   .     S
C432   C436    1.398   .     A
C432   C440    1.405   .     A
C433   C437    1.411   .     A
C433   Br459   1.940   .     S
C433   C435    1.402   .     A
C434   C436    1.403   .     A
C434   C438    1.414   .     A
C434   Br460   1.941   .     S
C437   C443    1.411   .     A
C437   C441    1.408   .     A
C438   C444    1.408   .     A
C438   C442    1.412   .     A
C439   C445    1.397   .     A
C439   C441    1.409   .     A
C440   C446    1.397   .     A
C440   C442    1.407   .     A
C441   C396    1.414   1_655 S
C443   O449    1.368   .     S
C443   C400    1.408   1_655 S
C444   O451    1.369   .     S
C445   O453    1.373   .     S
C445   C398    1.399   1_655 S
C446   O455    1.377   .     S
C448   C539    1.206   .     S
O449   H450    0.992   .     S
O451   H452    0.992   .     S
O453   H454    0.991   .     S
O455   H456    0.989   .     S
O461   C465    1.281   .     A
O461   Cu473   1.974   .     S
O462   C466    1.281   .     A
O462   Cu474   1.974   .     S
O463   Cu473   1.974   .     S
O463   C466    1.281   .     A
O464   Cu474   1.974   .     S
O464   C465    1.281   .     A
C465   C493    1.436   .     S
C466   C494    1.436   .     S
O467   C471    1.277   .     A
O467   Cu473   1.963   .     S
O468   C472    1.275   .     A
O468   Cu474   1.963   .     S
O469   C472    1.278   .     A
O469   Cu473   1.962   .     S
O470   C471    1.276   .     A
O470   Cu474   1.962   .     S
C471   C482    1.450   .     S
C472   C481    1.450   .     S
Cu473  Cu474   2.633   .     S
Cu473  N476    1.978   .     S
Cu474  N475    1.978   .     S
N476   N751    1.196   .     S
C477   Br503   1.941   .     S
C477   C485    1.409   .     A
C477   C481    1.402   .     A
C478   Br504   1.938   .     S
C478   C482    1.398   .     A
C478   C486    1.405   .     A
C479   C483    1.411   .     A
C479   Br505   1.940   .     S
C479   C481    1.402   .     A
C480   C482    1.403   .     A
C480   C484    1.414   .     A
C480   Br506   1.941   .     S
C483   C489    1.411   .     A
C483   C487    1.408   .     A
C484   C490    1.408   .     A
C484   C488    1.412   .     A
C485   C491    1.397   .     A
C485   C487    1.409   .     A
C486   C492    1.397   .     A
C486   C488    1.407   .     A
C487   C534    1.414   .     S
C488   C533    1.414   1_455 S
C489   O495    1.368   .     S
C489   C538    1.408   .     S
C490   O497    1.369   .     S
C490   C537    1.399   1_455 S
C491   O499    1.373   .     S
C491   C536    1.399   .     S
C492   O501    1.377   .     S
C492   C535    1.408   1_455 S
C494   C309    1.206   1_565 S
O495   H496    0.992   .     S
O497   H498    0.992   .     S
O499   H500    0.991   .     S
O501   H502    0.989   .     S
O507   C511    1.281   .     A
O507   Cu519   1.974   .     S
O508   C512    1.281   .     A
O508   Cu520   1.974   .     S
O509   Cu519   1.974   .     S
O509   C512    1.281   .     A
O510   Cu520   1.974   .     S
O510   C511    1.281   .     A
C511   C539    1.436   .     S
C512   C540    1.436   .     S
O513   C517    1.277   .     A
O513   Cu519   1.963   .     S
O514   C518    1.275   .     A
O514   Cu520   1.963   .     S
O515   C518    1.278   .     A
O515   Cu519   1.962   .     S
O516   C517    1.276   .     A
O516   Cu520   1.962   .     S
C517   C528    1.450   .     S
C518   C527    1.450   .     S
Cu519  Cu520   2.633   .     S
Cu519  N522    1.978   .     S
Cu520  N521    1.978   .     S
N522   N797    1.196   .     S
C523   Br549   1.941   .     S
C523   C531    1.409   .     A
C523   C527    1.402   .     A
C524   Br550   1.938   .     S
C524   C528    1.398   .     A
C524   C532    1.405   .     A
C525   C529    1.411   .     A
C525   Br551   1.940   .     S
C525   C527    1.402   .     A
C526   C528    1.403   .     A
C526   C530    1.414   .     A
C526   Br552   1.941   .     S
C529   C535    1.411   .     A
C529   C533    1.408   .     A
C530   C536    1.408   .     A
C530   C534    1.412   .     A
C531   C537    1.397   .     A
C531   C533    1.409   .     A
C532   C538    1.397   .     A
C532   C534    1.407   .     A
C533   C488    1.414   1_655 S
C535   O541    1.368   .     S
C535   C492    1.408   1_655 S
C536   O543    1.369   .     S
C537   O545    1.373   .     S
C537   C490    1.399   1_655 S
C538   O547    1.377   .     S
C540   C355    1.206   1_565 S
O541   H542    0.992   .     S
O543   H544    0.992   .     S
O545   H546    0.991   .     S
O547   H548    0.989   .     S
O553   C557    1.281   .     A
O553   Cu565   1.974   .     S
O554   C558    1.281   .     A
O554   Cu566   1.974   .     S
O555   Cu565   1.974   .     S
O555   C558    1.281   .     A
O556   Cu566   1.974   .     S
O556   C557    1.281   .     A
C557   C585    1.436   .     S
C558   C586    1.436   .     S
O559   C563    1.277   .     A
O559   Cu565   1.963   .     S
O560   C564    1.275   .     A
O560   Cu566   1.963   .     S
O561   C564    1.278   .     A
O561   Cu565   1.962   .     S
O562   C563    1.276   .     A
O562   Cu566   1.962   .     S
C563   C574    1.450   .     S
C564   C573    1.450   .     S
Cu565  Cu566   2.633   .     S
Cu565  N568    1.978   .     S
Cu566  N567    1.978   .     S
N568   N15     1.196   1_556 S
C569   Br595   1.941   .     S
C569   C577    1.409   .     A
C569   C573    1.402   .     A
C570   Br596   1.938   .     S
C570   C574    1.398   .     A
C570   C578    1.405   .     A
C571   C575    1.411   .     A
C571   Br597   1.940   .     S
C571   C573    1.402   .     A
C572   C574    1.403   .     A
C572   C576    1.414   .     A
C572   Br598   1.941   .     S
C575   C581    1.411   .     A
C575   C579    1.408   .     A
C576   C582    1.408   .     A
C576   C580    1.412   .     A
C577   C583    1.397   .     A
C577   C579    1.409   .     A
C578   C584    1.397   .     A
C578   C580    1.407   .     A
C579   C626    1.414   .     S
C580   C625    1.414   1_455 S
C581   O587    1.368   .     S
C581   C630    1.408   .     S
C582   O589    1.369   .     S
C582   C629    1.399   1_455 S
C583   O591    1.373   .     S
C583   C628    1.399   .     S
C584   O593    1.377   .     S
C584   C627    1.408   1_455 S
C585   C770    1.206   1_545 S
C586   C677    1.206   .     S
O587   H588    0.992   .     S
O589   H590    0.992   .     S
O591   H592    0.991   .     S
O593   H594    0.989   .     S
O599   C603    1.281   .     A
O599   Cu611   1.974   .     S
O600   C604    1.281   .     A
O600   Cu612   1.974   .     S
O601   Cu611   1.974   .     S
O601   C604    1.281   .     A
O602   Cu612   1.974   .     S
O602   C603    1.281   .     A
C603   C631    1.436   .     S
C604   C632    1.436   .     S
O605   C609    1.277   .     A
O605   Cu611   1.963   .     S
O606   C610    1.275   .     A
O606   Cu612   1.963   .     S
O607   C610    1.278   .     A
O607   Cu611   1.962   .     S
O608   C609    1.276   .     A
O608   Cu612   1.962   .     S
C609   C620    1.450   .     S
C610   C619    1.450   .     S
Cu611  Cu612   2.633   .     S
Cu611  N614    1.978   .     S
Cu612  N613    1.978   .     S
N614   N61     1.196   1_556 S
C615   Br641   1.941   .     S
C615   C623    1.409   .     A
C615   C619    1.402   .     A
C616   Br642   1.938   .     S
C616   C620    1.398   .     A
C616   C624    1.405   .     A
C617   C621    1.411   .     A
C617   Br643   1.940   .     S
C617   C619    1.402   .     A
C618   C620    1.403   .     A
C618   C622    1.414   .     A
C618   Br644   1.941   .     S
C621   C627    1.411   .     A
C621   C625    1.408   .     A
C622   C628    1.408   .     A
C622   C626    1.412   .     A
C623   C629    1.397   .     A
C623   C625    1.409   .     A
C624   C630    1.397   .     A
C624   C626    1.407   .     A
C625   C580    1.414   1_655 S
C627   O633    1.368   .     S
C627   C584    1.408   1_655 S
C628   O635    1.369   .     S
C629   O637    1.373   .     S
C629   C582    1.399   1_655 S
C630   O639    1.377   .     S
C631   C816    1.206   1_545 S
C632   C723    1.206   .     S
O633   H634    0.992   .     S
O635   H636    0.992   .     S
O637   H638    0.991   .     S
O639   H640    0.989   .     S
O645   C649    1.281   .     A
O645   Cu657   1.974   .     S
O646   C650    1.281   .     A
O646   Cu658   1.974   .     S
O647   Cu657   1.974   .     S
O647   C650    1.281   .     A
O648   Cu658   1.974   .     S
O648   C649    1.281   .     A
C649   C677    1.436   .     S
C650   C678    1.436   .     S
O651   C655    1.277   .     A
O651   Cu657   1.963   .     S
O652   C656    1.275   .     A
O652   Cu658   1.963   .     S
O653   C656    1.278   .     A
O653   Cu657   1.962   .     S
O654   C655    1.276   .     A
O654   Cu658   1.962   .     S
C655   C666    1.450   .     S
C656   C665    1.450   .     S
Cu657  Cu658   2.633   .     S
Cu657  N660    1.978   .     S
Cu658  N659    1.978   .     S
N660   N107    1.196   1_556 S
C661   Br687   1.941   .     S
C661   C669    1.409   .     A
C661   C665    1.402   .     A
C662   Br688   1.938   .     S
C662   C666    1.398   .     A
C662   C670    1.405   .     A
C663   C667    1.411   .     A
C663   Br689   1.940   .     S
C663   C665    1.402   .     A
C664   C666    1.403   .     A
C664   C668    1.414   .     A
C664   Br690   1.941   .     S
C667   C673    1.411   .     A
C667   C671    1.408   .     A
C668   C674    1.408   .     A
C668   C672    1.412   .     A
C669   C675    1.397   .     A
C669   C671    1.409   .     A
C670   C676    1.397   .     A
C670   C672    1.407   .     A
C671   C718    1.414   .     S
C672   C717    1.414   1_455 S
C673   O679    1.368   .     S
C673   C722    1.408   .     S
C674   O681    1.369   .     S
C674   C721    1.399   1_455 S
C675   O683    1.373   .     S
C675   C720    1.399   .     S
C676   O685    1.377   .     S
C676   C719    1.408   1_455 S
C678   C769    1.206   .     S
O679   H680    0.992   .     S
O681   H682    0.992   .     S
O683   H684    0.991   .     S
O685   H686    0.989   .     S
O691   C695    1.281   .     A
O691   Cu703   1.974   .     S
O692   C696    1.281   .     A
O692   Cu704   1.974   .     S
O693   Cu703   1.974   .     S
O693   C696    1.281   .     A
O694   Cu704   1.974   .     S
O694   C695    1.281   .     A
C695   C723    1.436   .     S
C696   C724    1.436   .     S
O697   C701    1.277   .     A
O697   Cu703   1.963   .     S
O698   C702    1.275   .     A
O698   Cu704   1.963   .     S
O699   C702    1.278   .     A
O699   Cu703   1.962   .     S
O700   C701    1.276   .     A
O700   Cu704   1.962   .     S
C701   C712    1.450   .     S
C702   C711    1.450   .     S
Cu703  Cu704   2.633   .     S
Cu703  N706    1.978   .     S
Cu704  N705    1.978   .     S
N706   N153    1.196   1_556 S
C707   Br733   1.941   .     S
C707   C715    1.409   .     A
C707   C711    1.402   .     A
C708   Br734   1.938   .     S
C708   C712    1.398   .     A
C708   C716    1.405   .     A
C709   C713    1.411   .     A
C709   Br735   1.940   .     S
C709   C711    1.402   .     A
C710   C712    1.403   .     A
C710   C714    1.414   .     A
C710   Br736   1.941   .     S
C713   C719    1.411   .     A
C713   C717    1.408   .     A
C714   C720    1.408   .     A
C714   C718    1.412   .     A
C715   C721    1.397   .     A
C715   C717    1.409   .     A
C716   C722    1.397   .     A
C716   C718    1.407   .     A
C717   C672    1.414   1_655 S
C719   O725    1.368   .     S
C719   C676    1.408   1_655 S
C720   O727    1.369   .     S
C721   O729    1.373   .     S
C721   C674    1.399   1_655 S
C722   O731    1.377   .     S
C724   C815    1.206   .     S
O725   H726    0.992   .     S
O727   H728    0.992   .     S
O729   H730    0.991   .     S
O731   H732    0.989   .     S
O737   C741    1.281   .     A
O737   Cu749   1.974   .     S
O738   C742    1.281   .     A
O738   Cu750   1.974   .     S
O739   Cu749   1.974   .     S
O739   C742    1.281   .     A
O740   Cu750   1.974   .     S
O740   C741    1.281   .     A
C741   C769    1.436   .     S
C742   C770    1.436   .     S
O743   C747    1.277   .     A
O743   Cu749   1.963   .     S
O744   C748    1.275   .     A
O744   Cu750   1.963   .     S
O745   C748    1.278   .     A
O745   Cu749   1.962   .     S
O746   C747    1.276   .     A
O746   Cu750   1.962   .     S
C747   C758    1.450   .     S
C748   C757    1.450   .     S
Cu749  Cu750   2.633   .     S
Cu749  N752    1.978   .     S
Cu750  N751    1.978   .     S
N752   N199    1.196   1_556 S
C753   Br779   1.941   .     S
C753   C761    1.409   .     A
C753   C757    1.402   .     A
C754   Br780   1.938   .     S
C754   C758    1.398   .     A
C754   C762    1.405   .     A
C755   C759    1.411   .     A
C755   Br781   1.940   .     S
C755   C757    1.402   .     A
C756   C758    1.403   .     A
C756   C760    1.414   .     A
C756   Br782   1.941   .     S
C759   C765    1.411   .     A
C759   C763    1.408   .     A
C760   C766    1.408   .     A
C760   C764    1.412   .     A
C761   C767    1.397   .     A
C761   C763    1.409   .     A
C762   C768    1.397   .     A
C762   C764    1.407   .     A
C763   C810    1.414   .     S
C764   C809    1.414   1_455 S
C765   O771    1.368   .     S
C765   C814    1.408   .     S
C766   O773    1.369   .     S
C766   C813    1.399   1_455 S
C767   O775    1.373   .     S
C767   C812    1.399   .     S
C768   O777    1.377   .     S
C768   C811    1.408   1_455 S
C770   C585    1.206   1_565 S
O771   H772    0.992   .     S
O773   H774    0.992   .     S
O775   H776    0.991   .     S
O777   H778    0.989   .     S
O783   C787    1.281   .     A
O783   Cu795   1.974   .     S
O784   C788    1.281   .     A
O784   Cu796   1.974   .     S
O785   Cu795   1.974   .     S
O785   C788    1.281   .     A
O786   Cu796   1.974   .     S
O786   C787    1.281   .     A
C787   C815    1.436   .     S
C788   C816    1.436   .     S
O789   C793    1.277   .     A
O789   Cu795   1.963   .     S
O790   C794    1.275   .     A
O790   Cu796   1.963   .     S
O791   C794    1.278   .     A
O791   Cu795   1.962   .     S
O792   C793    1.276   .     A
O792   Cu796   1.962   .     S
C793   C804    1.450   .     S
C794   C803    1.450   .     S
Cu795  Cu796   2.633   .     S
Cu795  N798    1.978   .     S
Cu796  N797    1.978   .     S
N798   N245    1.196   1_556 S
C799   Br825   1.941   .     S
C799   C807    1.409   .     A
C799   C803    1.402   .     A
C800   Br826   1.938   .     S
C800   C804    1.398   .     A
C800   C808    1.405   .     A
C801   C805    1.411   .     A
C801   Br827   1.940   .     S
C801   C803    1.402   .     A
C802   C804    1.403   .     A
C802   C806    1.414   .     A
C802   Br828   1.941   .     S
C805   C811    1.411   .     A
C805   C809    1.408   .     A
C806   C812    1.408   .     A
C806   C810    1.412   .     A
C807   C813    1.397   .     A
C807   C809    1.409   .     A
C808   C814    1.397   .     A
C808   C810    1.407   .     A
C809   C764    1.414   1_655 S
C811   O817    1.368   .     S
C811   C768    1.408   1_655 S
C812   O819    1.369   .     S
C813   O821    1.373   .     S
C813   C766    1.399   1_655 S
C814   O823    1.377   .     S
C816   C631    1.206   1_565 S
O817   H818    0.992   .     S
O819   H820    0.992   .     S
O821   H822    0.991   .     S
O823   H824    0.989   .     S
