data_str_m2_o2_o5_pcu_sym.79
_audit_creation_date              2020-01-03
_audit_creation_method            'Materials Studio'
_symmetry_space_group_name_H-M    'P1'
_symmetry_Int_Tables_number       1
_symmetry_cell_setting            triclinic
loop_
_symmetry_equiv_pos_as_xyz
  x,y,z
_cell_length_a                    30.4041
_cell_length_b                    27.9362
_cell_length_c                    27.1493
_cell_angle_alpha                 90.3224
_cell_angle_beta                  91.9272
_cell_angle_gamma                 88.8872
loop_
_atom_site_label
_atom_site_type_symbol
_atom_site_fract_x
_atom_site_fract_y
_atom_site_fract_z
_atom_site_U_iso_or_equiv
_atom_site_adp_type
_atom_site_occupancy
C1     C     0.16505   0.25044   0.16824   0.00000  Uiso   1.00
C2     C     0.28408   0.44511   0.19155   0.00000  Uiso   1.00
C3     C     0.24997   0.24995   0.07360   0.00000  Uiso   1.00
C4     C     0.24990   0.25011   0.25973   0.00000  Uiso   1.00
C5     C     0.25131   0.02642   0.16608   0.00000  Uiso   1.00
C6     C     0.25123   0.47215   0.16575   0.00000  Uiso   1.00
C7     C     0.24990   0.25009   0.02187   0.00000  Uiso   1.00
C8     C     0.24982   0.25030   0.31145   0.00000  Uiso   1.00
C9     C     0.04851   0.28689   0.13563   0.00000  Uiso   1.00
C10    C     0.45342   0.20909   0.14369   0.00000  Uiso   1.00
C11    C     0.45170   0.29340   0.16638   0.00000  Uiso   1.00
C12    C     0.33500   0.24966   0.16404   0.00000  Uiso   1.00
C13    C     0.04717   0.21597   0.18727   0.00000  Uiso   1.00
C14    C     0.09299   0.29111   0.14856   0.00000  Uiso   1.00
C15    C     0.40767   0.20691   0.14972   0.00000  Uiso   1.00
C16    C     0.40585   0.29349   0.16136   0.00000  Uiso   1.00
C17    C     0.09335   0.21287   0.18731   0.00000  Uiso   1.00
C18    C     0.11666   0.25137   0.16818   0.00000  Uiso   1.00
C19    C     0.38337   0.24966   0.15877   0.00000  Uiso   1.00
C20    C     0.02447   0.25083   0.15825   0.00000  Uiso   1.00
C21    C     0.47585   0.25137   0.15596   0.00000  Uiso   1.00
C22    C     0.30474   0.12484   0.26834   0.00000  Uiso   1.00
C23    C     0.25353   0.10320   0.21003   0.00000  Uiso   1.00
C24    C     0.31086   0.12990   0.32389   0.00000  Uiso   1.00
C25    C     0.19931   0.37716   0.05781   0.00000  Uiso   1.00
C26    C     0.16773   0.34705   0.02659   0.00000  Uiso   1.00
C27    C     0.19244   0.12512   0.06763   0.00000  Uiso   1.00
C28    C     0.18415   0.13218   0.01258   0.00000  Uiso   1.00
C29    C     0.30032   0.37581   0.27487   0.00000  Uiso   1.00
C30    C     0.33055   0.34374   0.30664   0.00000  Uiso   1.00
C31    C     0.01405   0.30486   0.06188   0.00000  Uiso   1.00
C32    C     0.00218   0.34636   0.02784   0.00000  Uiso   1.00
C33    C     0.48044   0.16867   0.07805   0.00000  Uiso   1.00
C34    C     0.22040   0.39595   0.13712   0.00000  Uiso   1.00
C35    C     0.00433   0.12305   0.06238   0.00000  Uiso   1.00
C36    C     0.47148   0.34637   0.22696   0.00000  Uiso   1.00
C37    C     0.47551   0.40012   0.23464   0.00000  Uiso   1.00
C38    C     0.01924   0.20640   0.26373   0.00000  Uiso   1.00
C39    C     0.47188   0.20120   0.27907   0.00000  Uiso   1.00
C40    C     0.10239   0.35762   0.19453   0.00000  Uiso   1.00
C41    C     0.11418   0.41012   0.19461   0.00000  Uiso   1.00
C42    C     0.39646   0.13164   0.17864   0.00000  Uiso   1.00
C43    C     0.37362   0.08479   0.16734   0.00000  Uiso   1.00
C44    C     0.38573   0.35344   0.10915   0.00000  Uiso   1.00
C45    C     0.24661   0.10331   0.12310   0.00000  Uiso   1.00
C46    C     0.35716   0.39824   0.10194   0.00000  Uiso   1.00
C47    C     0.11171   0.13329   0.18857   0.00000  Uiso   1.00
C48    C     0.13100   0.09339   0.22098   0.00000  Uiso   1.00
C49    C     0.28041   0.39471   0.19544   0.00000  Uiso   1.00
C50    C     0.24968   0.05269   0.21014   0.00000  Uiso   1.00
C51    C     0.21792   0.44678   0.14009   0.00000  Uiso   1.00
C52    C     0.25209   0.05277   0.12231   0.00000  Uiso   1.00
Cl53   Cl    0.24232   0.02336   0.26670   0.00000  Uiso   1.00
Cl54   Cl    0.17126   0.47795   0.11482   0.00000  Uiso   1.00
Cl55   Cl    0.25967   0.02336   0.06535   0.00000  Uiso   1.00
Cl56   Cl    0.33150   0.47321   0.21643   0.00000  Uiso   1.00
Cu57   Cu    0.25000   0.29821   0.16667   0.00000  Uiso   1.00
Cu58   Cu    0.25000   0.20178   0.16667   0.00000  Uiso   1.00
H59    H     0.32032   0.15573   0.25089   0.00000  Uiso   1.00
H60    H     0.17016   0.30901   0.03811   0.00000  Uiso   1.00
H61    H     0.17602   0.15504   0.08738   0.00000  Uiso   1.00
H62    H     0.17689   0.09081   0.07774   0.00000  Uiso   1.00
H63    H     0.19917   0.10194   0.32536   0.00000  Uiso   1.00
H64    H     0.14819   0.13346   0.00392   0.00000  Uiso   1.00
H65    H     0.19861   0.16615   0.00061   0.00000  Uiso   1.00
H66    H     0.26556   0.36675   0.28177   0.00000  Uiso   1.00
H67    H     0.30545   0.41338   0.28700   0.00000  Uiso   1.00
H68    H     0.32008   0.34518   0.01206   0.00000  Uiso   1.00
H69    H     0.32914   0.30614   0.29335   0.00000  Uiso   1.00
H70    H     0.32225   0.09111   0.25750   0.00000  Uiso   1.00
H71    H     0.36503   0.35597   0.30509   0.00000  Uiso   1.00
H72    H     0.48393   0.28358   0.06578   0.00000  Uiso   1.00
H73    H     0.03994   0.28235   0.04429   0.00000  Uiso   1.00
H74    H     0.03246   0.36419   0.01627   0.00000  Uiso   1.00
H75    H     0.48387   0.33258   0.32835   0.00000  Uiso   1.00
H76    H     0.48082   0.37292   0.04664   0.00000  Uiso   1.00
H77    H     0.00011   0.19954   0.06645   0.00000  Uiso   1.00
H78    H     0.44739   0.16995   0.05898   0.00000  Uiso   1.00
H79    H     0.00773   0.12272   0.02179   0.00000  Uiso   1.00
H80    H     0.48547   0.09129   0.07309   0.00000  Uiso   1.00
H81    H     0.29720   0.09838   0.00883   0.00000  Uiso   1.00
H82    H     0.03766   0.12113   0.08042   0.00000  Uiso   1.00
H83    H     0.49992   0.32786   0.24583   0.00000  Uiso   1.00
H84    H     0.44047   0.33525   0.24420   0.00000  Uiso   1.00
H85    H     0.44709   0.41906   0.21616   0.00000  Uiso   1.00
H86    H     0.47576   0.40879   0.27459   0.00000  Uiso   1.00
H87    H     0.00643   0.41283   0.21898   0.00000  Uiso   1.00
H88    H     0.02725   0.24526   0.26608   0.00000  Uiso   1.00
H89    H     0.04137   0.18713   0.29067   0.00000  Uiso   1.00
H90    H     0.46774   0.21757   0.31598   0.00000  Uiso   1.00
H91    H     0.46330   0.16278   0.28036   0.00000  Uiso   1.00
H92    H     0.34646   0.13204   0.00074   0.00000  Uiso   1.00
H93    H     0.44906   0.21992   0.25253   0.00000  Uiso   1.00
H94    H     0.06684   0.35602   0.20296   0.00000  Uiso   1.00
H95    H     0.12196   0.33944   0.22467   0.00000  Uiso   1.00
H96    H     0.10136   0.42796   0.22801   0.00000  Uiso   1.00
H97    H     0.15037   0.41355   0.19569   0.00000  Uiso   1.00
H98    H     0.09936   0.42803   0.16146   0.00000  Uiso   1.00
H99    H     0.38536   0.14600   0.21445   0.00000  Uiso   1.00
H100   H     0.43226   0.12337   0.18254   0.00000  Uiso   1.00
H101   H     0.33756   0.09095   0.16389   0.00000  Uiso   1.00
H102   H     0.38539   0.06937   0.13225   0.00000  Uiso   1.00
H103   H     0.29386   0.16275   0.00364   0.00000  Uiso   1.00
H104   H     0.38114   0.05902   0.19753   0.00000  Uiso   1.00
H105   H     0.42008   0.36273   0.10082   0.00000  Uiso   1.00
H106   H     0.37385   0.32589   0.08220   0.00000  Uiso   1.00
H107   H     0.36149   0.41280   0.06447   0.00000  Uiso   1.00
H108   H     0.32201   0.38948   0.10557   0.00000  Uiso   1.00
H109   H     0.36684   0.42588   0.12950   0.00000  Uiso   1.00
H110   H     0.13037   0.13424   0.15411   0.00000  Uiso   1.00
H111   H     0.07690   0.12442   0.17906   0.00000  Uiso   1.00
H112   H     0.16509   0.10203   0.23318   0.00000  Uiso   1.00
H113   H     0.11083   0.08929   0.25399   0.00000  Uiso   1.00
H114   H     0.23367   0.36569   0.05007   0.00000  Uiso   1.00
H115   H     0.13145   0.05911   0.20007   0.00000  Uiso   1.00
H116   H     0.19484   0.41492   0.04587   0.00000  Uiso   1.00
H117   H     0.13338   0.36021   0.03113   0.00000  Uiso   1.00
H118   H     0.17588   0.34951   0.32045   0.00000  Uiso   1.00
N119   N     0.25000   0.12934   0.16667   0.00000  Uiso   1.00
N120   N     0.25000   0.37065   0.16667   0.00000  Uiso   1.00
O121   O     0.18573   0.29071   0.16667   0.00000  Uiso   1.00
O122   O     0.19006   0.37133   0.10817   0.00000  Uiso   1.00
O123   O     0.23830   0.12547   0.07851   0.00000  Uiso   1.00
O124   O     0.31036   0.36898   0.22475   0.00000  Uiso   1.00
O125   O     0.02857   0.32322   0.10800   0.00000  Uiso   1.00
O126   O     0.47664   0.16845   0.12962   0.00000  Uiso   1.00
O127   O     0.47247   0.33617   0.17609   0.00000  Uiso   1.00
O128   O     0.02422   0.18540   0.21655   0.00000  Uiso   1.00
O129   O     0.11117   0.33609   0.14828   0.00000  Uiso   1.00
O130   O     0.38622   0.16440   0.14025   0.00000  Uiso   1.00
O131   O     0.38343   0.33704   0.15825   0.00000  Uiso   1.00
O132   O     0.31427   0.20928   0.16666   0.00000  Uiso   1.00
O133   O     0.11543   0.17732   0.21414   0.00000  Uiso   1.00
O134   O     0.31427   0.29071   0.16666   0.00000  Uiso   1.00
O135   O     0.18573   0.20928   0.16667   0.00000  Uiso   1.00
O136   O     0.25000   0.29071   0.09613   0.00000  Uiso   1.00
O137   O     0.25000   0.20929   0.23720   0.00000  Uiso   1.00
O138   O     0.25000   0.29071   0.23720   0.00000  Uiso   1.00
O139   O     0.25000   0.20929   0.09613   0.00000  Uiso   1.00
O140   O     0.25929   0.12519   0.25524   0.00000  Uiso   1.00
C141   C     0.66505   0.25044   0.16824   0.00000  Uiso   1.00
C142   C     0.78408   0.44511   0.19155   0.00000  Uiso   1.00
C143   C     0.74997   0.24995   0.07360   0.00000  Uiso   1.00
C144   C     0.74990   0.25011   0.25973   0.00000  Uiso   1.00
C145   C     0.75131   0.02642   0.16608   0.00000  Uiso   1.00
C146   C     0.75123   0.47215   0.16575   0.00000  Uiso   1.00
C147   C     0.74990   0.25009   0.02187   0.00000  Uiso   1.00
C148   C     0.74982   0.25030   0.31145   0.00000  Uiso   1.00
C149   C     0.54851   0.28689   0.13563   0.00000  Uiso   1.00
C150   C     0.95342   0.20909   0.14369   0.00000  Uiso   1.00
C151   C     0.95170   0.29340   0.16638   0.00000  Uiso   1.00
C152   C     0.83500   0.24966   0.16404   0.00000  Uiso   1.00
C153   C     0.54717   0.21597   0.18727   0.00000  Uiso   1.00
C154   C     0.59299   0.29111   0.14856   0.00000  Uiso   1.00
C155   C     0.90767   0.20691   0.14972   0.00000  Uiso   1.00
C156   C     0.90585   0.29349   0.16136   0.00000  Uiso   1.00
C157   C     0.59335   0.21287   0.18731   0.00000  Uiso   1.00
C158   C     0.61666   0.25137   0.16818   0.00000  Uiso   1.00
C159   C     0.88337   0.24966   0.15877   0.00000  Uiso   1.00
C160   C     0.52447   0.25083   0.15825   0.00000  Uiso   1.00
C161   C     0.97585   0.25137   0.15596   0.00000  Uiso   1.00
C162   C     0.80474   0.12484   0.26834   0.00000  Uiso   1.00
C163   C     0.75353   0.10320   0.21003   0.00000  Uiso   1.00
C164   C     0.81086   0.12990   0.32389   0.00000  Uiso   1.00
C165   C     0.69931   0.37716   0.05781   0.00000  Uiso   1.00
C166   C     0.66773   0.34705   0.02659   0.00000  Uiso   1.00
C167   C     0.69244   0.12512   0.06763   0.00000  Uiso   1.00
C168   C     0.68415   0.13218   0.01258   0.00000  Uiso   1.00
C169   C     0.80032   0.37581   0.27487   0.00000  Uiso   1.00
C170   C     0.83055   0.34374   0.30664   0.00000  Uiso   1.00
C171   C     0.51405   0.30486   0.06188   0.00000  Uiso   1.00
C172   C     0.50218   0.34636   0.02784   0.00000  Uiso   1.00
C173   C     0.98044   0.16867   0.07805   0.00000  Uiso   1.00
C174   C     0.72040   0.39595   0.13712   0.00000  Uiso   1.00
C175   C     0.50433   0.12305   0.06238   0.00000  Uiso   1.00
C176   C     0.97148   0.34637   0.22696   0.00000  Uiso   1.00
C177   C     0.97551   0.40012   0.23464   0.00000  Uiso   1.00
C178   C     0.51924   0.20640   0.26373   0.00000  Uiso   1.00
C179   C     0.97188   0.20120   0.27907   0.00000  Uiso   1.00
C180   C     0.60239   0.35762   0.19453   0.00000  Uiso   1.00
C181   C     0.61418   0.41012   0.19461   0.00000  Uiso   1.00
C182   C     0.89646   0.13164   0.17864   0.00000  Uiso   1.00
C183   C     0.87362   0.08479   0.16734   0.00000  Uiso   1.00
C184   C     0.88573   0.35344   0.10915   0.00000  Uiso   1.00
C185   C     0.74661   0.10331   0.12310   0.00000  Uiso   1.00
C186   C     0.85716   0.39824   0.10194   0.00000  Uiso   1.00
C187   C     0.61171   0.13329   0.18857   0.00000  Uiso   1.00
C188   C     0.63100   0.09339   0.22098   0.00000  Uiso   1.00
C189   C     0.78041   0.39471   0.19544   0.00000  Uiso   1.00
C190   C     0.74968   0.05269   0.21014   0.00000  Uiso   1.00
C191   C     0.71792   0.44678   0.14009   0.00000  Uiso   1.00
C192   C     0.75209   0.05277   0.12231   0.00000  Uiso   1.00
Cl193  Cl    0.74232   0.02336   0.26670   0.00000  Uiso   1.00
Cl194  Cl    0.67126   0.47795   0.11482   0.00000  Uiso   1.00
Cl195  Cl    0.75967   0.02336   0.06535   0.00000  Uiso   1.00
Cl196  Cl    0.83150   0.47321   0.21643   0.00000  Uiso   1.00
Cu197  Cu    0.75000   0.29821   0.16667   0.00000  Uiso   1.00
Cu198  Cu    0.75000   0.20178   0.16667   0.00000  Uiso   1.00
H199   H     0.82032   0.15573   0.25089   0.00000  Uiso   1.00
H200   H     0.67016   0.30901   0.03811   0.00000  Uiso   1.00
H201   H     0.67602   0.15504   0.08738   0.00000  Uiso   1.00
H202   H     0.67689   0.09081   0.07774   0.00000  Uiso   1.00
H203   H     0.69917   0.10194   0.32536   0.00000  Uiso   1.00
H204   H     0.64819   0.13346   0.00392   0.00000  Uiso   1.00
H205   H     0.69861   0.16615   0.00061   0.00000  Uiso   1.00
H206   H     0.76556   0.36675   0.28177   0.00000  Uiso   1.00
H207   H     0.80545   0.41338   0.28700   0.00000  Uiso   1.00
H208   H     0.82008   0.34518   0.01206   0.00000  Uiso   1.00
H209   H     0.82914   0.30614   0.29335   0.00000  Uiso   1.00
H210   H     0.82225   0.09111   0.25750   0.00000  Uiso   1.00
H211   H     0.86503   0.35597   0.30509   0.00000  Uiso   1.00
H212   H     0.98393   0.28358   0.06578   0.00000  Uiso   1.00
H213   H     0.53994   0.28235   0.04429   0.00000  Uiso   1.00
H214   H     0.53246   0.36419   0.01627   0.00000  Uiso   1.00
H215   H     0.98387   0.33258   0.32835   0.00000  Uiso   1.00
H216   H     0.98082   0.37292   0.04664   0.00000  Uiso   1.00
H217   H     0.50011   0.19954   0.06645   0.00000  Uiso   1.00
H218   H     0.94739   0.16995   0.05898   0.00000  Uiso   1.00
H219   H     0.50773   0.12272   0.02179   0.00000  Uiso   1.00
H220   H     0.98547   0.09129   0.07309   0.00000  Uiso   1.00
H221   H     0.79720   0.09838   0.00883   0.00000  Uiso   1.00
H222   H     0.53766   0.12113   0.08042   0.00000  Uiso   1.00
H223   H     0.99992   0.32786   0.24583   0.00000  Uiso   1.00
H224   H     0.94047   0.33525   0.24420   0.00000  Uiso   1.00
H225   H     0.94709   0.41906   0.21616   0.00000  Uiso   1.00
H226   H     0.97576   0.40879   0.27459   0.00000  Uiso   1.00
H227   H     0.50643   0.41283   0.21898   0.00000  Uiso   1.00
H228   H     0.52725   0.24526   0.26608   0.00000  Uiso   1.00
H229   H     0.54137   0.18713   0.29067   0.00000  Uiso   1.00
H230   H     0.96774   0.21757   0.31598   0.00000  Uiso   1.00
H231   H     0.96330   0.16278   0.28036   0.00000  Uiso   1.00
H232   H     0.84646   0.13204   0.00074   0.00000  Uiso   1.00
H233   H     0.94906   0.21992   0.25253   0.00000  Uiso   1.00
H234   H     0.56684   0.35602   0.20296   0.00000  Uiso   1.00
H235   H     0.62196   0.33944   0.22467   0.00000  Uiso   1.00
H236   H     0.60136   0.42796   0.22801   0.00000  Uiso   1.00
H237   H     0.65037   0.41355   0.19569   0.00000  Uiso   1.00
H238   H     0.59936   0.42803   0.16146   0.00000  Uiso   1.00
H239   H     0.88536   0.14600   0.21445   0.00000  Uiso   1.00
H240   H     0.93226   0.12337   0.18254   0.00000  Uiso   1.00
H241   H     0.83756   0.09095   0.16389   0.00000  Uiso   1.00
H242   H     0.88539   0.06937   0.13225   0.00000  Uiso   1.00
H243   H     0.79386   0.16275   0.00364   0.00000  Uiso   1.00
H244   H     0.88114   0.05902   0.19753   0.00000  Uiso   1.00
H245   H     0.92008   0.36273   0.10082   0.00000  Uiso   1.00
H246   H     0.87385   0.32589   0.08220   0.00000  Uiso   1.00
H247   H     0.86149   0.41280   0.06447   0.00000  Uiso   1.00
H248   H     0.82201   0.38948   0.10557   0.00000  Uiso   1.00
H249   H     0.86684   0.42588   0.12950   0.00000  Uiso   1.00
H250   H     0.63037   0.13424   0.15411   0.00000  Uiso   1.00
H251   H     0.57690   0.12442   0.17906   0.00000  Uiso   1.00
H252   H     0.66509   0.10203   0.23318   0.00000  Uiso   1.00
H253   H     0.61083   0.08929   0.25399   0.00000  Uiso   1.00
H254   H     0.73367   0.36569   0.05007   0.00000  Uiso   1.00
H255   H     0.63145   0.05911   0.20007   0.00000  Uiso   1.00
H256   H     0.69484   0.41492   0.04587   0.00000  Uiso   1.00
H257   H     0.63338   0.36021   0.03113   0.00000  Uiso   1.00
H258   H     0.67588   0.34951   0.32045   0.00000  Uiso   1.00
N259   N     0.75000   0.12934   0.16667   0.00000  Uiso   1.00
N260   N     0.75000   0.37065   0.16667   0.00000  Uiso   1.00
O261   O     0.68573   0.29071   0.16667   0.00000  Uiso   1.00
O262   O     0.69006   0.37133   0.10817   0.00000  Uiso   1.00
O263   O     0.73830   0.12547   0.07851   0.00000  Uiso   1.00
O264   O     0.81036   0.36898   0.22475   0.00000  Uiso   1.00
O265   O     0.52857   0.32322   0.10800   0.00000  Uiso   1.00
O266   O     0.97664   0.16845   0.12962   0.00000  Uiso   1.00
O267   O     0.97247   0.33617   0.17609   0.00000  Uiso   1.00
O268   O     0.52422   0.18540   0.21655   0.00000  Uiso   1.00
O269   O     0.61117   0.33609   0.14828   0.00000  Uiso   1.00
O270   O     0.88622   0.16440   0.14025   0.00000  Uiso   1.00
O271   O     0.88343   0.33704   0.15825   0.00000  Uiso   1.00
O272   O     0.81427   0.20928   0.16666   0.00000  Uiso   1.00
O273   O     0.61543   0.17732   0.21414   0.00000  Uiso   1.00
O274   O     0.81427   0.29071   0.16666   0.00000  Uiso   1.00
O275   O     0.68573   0.20928   0.16667   0.00000  Uiso   1.00
O276   O     0.75000   0.29071   0.09613   0.00000  Uiso   1.00
O277   O     0.75000   0.20929   0.23720   0.00000  Uiso   1.00
O278   O     0.75000   0.29071   0.23720   0.00000  Uiso   1.00
O279   O     0.75000   0.20929   0.09613   0.00000  Uiso   1.00
O280   O     0.75929   0.12519   0.25524   0.00000  Uiso   1.00
C281   C     0.16505   0.75044   0.16824   0.00000  Uiso   1.00
C282   C     0.28408   0.94511   0.19155   0.00000  Uiso   1.00
C283   C     0.24997   0.74995   0.07360   0.00000  Uiso   1.00
C284   C     0.24990   0.75011   0.25973   0.00000  Uiso   1.00
C285   C     0.25131   0.52642   0.16608   0.00000  Uiso   1.00
C286   C     0.25123   0.97215   0.16575   0.00000  Uiso   1.00
C287   C     0.24990   0.75009   0.02187   0.00000  Uiso   1.00
C288   C     0.24982   0.75030   0.31145   0.00000  Uiso   1.00
C289   C     0.04851   0.78689   0.13563   0.00000  Uiso   1.00
C290   C     0.45342   0.70909   0.14369   0.00000  Uiso   1.00
C291   C     0.45170   0.79340   0.16638   0.00000  Uiso   1.00
C292   C     0.33500   0.74966   0.16404   0.00000  Uiso   1.00
C293   C     0.04717   0.71597   0.18727   0.00000  Uiso   1.00
C294   C     0.09299   0.79111   0.14856   0.00000  Uiso   1.00
C295   C     0.40767   0.70691   0.14972   0.00000  Uiso   1.00
C296   C     0.40585   0.79349   0.16136   0.00000  Uiso   1.00
C297   C     0.09335   0.71287   0.18731   0.00000  Uiso   1.00
C298   C     0.11666   0.75137   0.16818   0.00000  Uiso   1.00
C299   C     0.38337   0.74966   0.15877   0.00000  Uiso   1.00
C300   C     0.02447   0.75083   0.15825   0.00000  Uiso   1.00
C301   C     0.47585   0.75137   0.15596   0.00000  Uiso   1.00
C302   C     0.30474   0.62484   0.26834   0.00000  Uiso   1.00
C303   C     0.25353   0.60320   0.21003   0.00000  Uiso   1.00
C304   C     0.31086   0.62990   0.32389   0.00000  Uiso   1.00
C305   C     0.19931   0.87716   0.05781   0.00000  Uiso   1.00
C306   C     0.16773   0.84705   0.02659   0.00000  Uiso   1.00
C307   C     0.19244   0.62512   0.06763   0.00000  Uiso   1.00
C308   C     0.18415   0.63218   0.01258   0.00000  Uiso   1.00
C309   C     0.30032   0.87581   0.27487   0.00000  Uiso   1.00
C310   C     0.33055   0.84374   0.30664   0.00000  Uiso   1.00
C311   C     0.01405   0.80486   0.06188   0.00000  Uiso   1.00
C312   C     0.00218   0.84636   0.02784   0.00000  Uiso   1.00
C313   C     0.48044   0.66867   0.07805   0.00000  Uiso   1.00
C314   C     0.22040   0.89595   0.13712   0.00000  Uiso   1.00
C315   C     0.00433   0.62305   0.06238   0.00000  Uiso   1.00
C316   C     0.47148   0.84637   0.22696   0.00000  Uiso   1.00
C317   C     0.47551   0.90012   0.23464   0.00000  Uiso   1.00
C318   C     0.01924   0.70640   0.26373   0.00000  Uiso   1.00
C319   C     0.47188   0.70120   0.27907   0.00000  Uiso   1.00
C320   C     0.10239   0.85762   0.19453   0.00000  Uiso   1.00
C321   C     0.11418   0.91012   0.19461   0.00000  Uiso   1.00
C322   C     0.39646   0.63164   0.17864   0.00000  Uiso   1.00
C323   C     0.37362   0.58479   0.16734   0.00000  Uiso   1.00
C324   C     0.38573   0.85344   0.10915   0.00000  Uiso   1.00
C325   C     0.24661   0.60331   0.12310   0.00000  Uiso   1.00
C326   C     0.35716   0.89824   0.10194   0.00000  Uiso   1.00
C327   C     0.11171   0.63329   0.18857   0.00000  Uiso   1.00
C328   C     0.13100   0.59339   0.22098   0.00000  Uiso   1.00
C329   C     0.28041   0.89471   0.19544   0.00000  Uiso   1.00
C330   C     0.24968   0.55269   0.21014   0.00000  Uiso   1.00
C331   C     0.21792   0.94678   0.14009   0.00000  Uiso   1.00
C332   C     0.25209   0.55277   0.12231   0.00000  Uiso   1.00
Cl333  Cl    0.24232   0.52336   0.26670   0.00000  Uiso   1.00
Cl334  Cl    0.17126   0.97795   0.11482   0.00000  Uiso   1.00
Cl335  Cl    0.25967   0.52336   0.06535   0.00000  Uiso   1.00
Cl336  Cl    0.33150   0.97321   0.21643   0.00000  Uiso   1.00
Cu337  Cu    0.25000   0.79821   0.16667   0.00000  Uiso   1.00
Cu338  Cu    0.25000   0.70178   0.16667   0.00000  Uiso   1.00
H339   H     0.32032   0.65573   0.25089   0.00000  Uiso   1.00
H340   H     0.17016   0.80901   0.03811   0.00000  Uiso   1.00
H341   H     0.17602   0.65504   0.08738   0.00000  Uiso   1.00
H342   H     0.17689   0.59081   0.07774   0.00000  Uiso   1.00
H343   H     0.19917   0.60194   0.32536   0.00000  Uiso   1.00
H344   H     0.14819   0.63346   0.00392   0.00000  Uiso   1.00
H345   H     0.19861   0.66615   0.00061   0.00000  Uiso   1.00
H346   H     0.26556   0.86675   0.28177   0.00000  Uiso   1.00
H347   H     0.30545   0.91338   0.28700   0.00000  Uiso   1.00
H348   H     0.32008   0.84518   0.01206   0.00000  Uiso   1.00
H349   H     0.32914   0.80614   0.29335   0.00000  Uiso   1.00
H350   H     0.32225   0.59111   0.25750   0.00000  Uiso   1.00
H351   H     0.36503   0.85597   0.30509   0.00000  Uiso   1.00
H352   H     0.48393   0.78358   0.06578   0.00000  Uiso   1.00
H353   H     0.03994   0.78235   0.04429   0.00000  Uiso   1.00
H354   H     0.03246   0.86419   0.01627   0.00000  Uiso   1.00
H355   H     0.48387   0.83258   0.32835   0.00000  Uiso   1.00
H356   H     0.48082   0.87292   0.04664   0.00000  Uiso   1.00
H357   H     0.00011   0.69954   0.06645   0.00000  Uiso   1.00
H358   H     0.44739   0.66995   0.05898   0.00000  Uiso   1.00
H359   H     0.00773   0.62272   0.02179   0.00000  Uiso   1.00
H360   H     0.48547   0.59129   0.07309   0.00000  Uiso   1.00
H361   H     0.29720   0.59838   0.00883   0.00000  Uiso   1.00
H362   H     0.03766   0.62113   0.08042   0.00000  Uiso   1.00
H363   H     0.49992   0.82786   0.24583   0.00000  Uiso   1.00
H364   H     0.44047   0.83525   0.24420   0.00000  Uiso   1.00
H365   H     0.44709   0.91906   0.21616   0.00000  Uiso   1.00
H366   H     0.47576   0.90879   0.27459   0.00000  Uiso   1.00
H367   H     0.00643   0.91283   0.21898   0.00000  Uiso   1.00
H368   H     0.02725   0.74526   0.26608   0.00000  Uiso   1.00
H369   H     0.04137   0.68713   0.29067   0.00000  Uiso   1.00
H370   H     0.46774   0.71757   0.31598   0.00000  Uiso   1.00
H371   H     0.46330   0.66278   0.28036   0.00000  Uiso   1.00
H372   H     0.34646   0.63204   0.00074   0.00000  Uiso   1.00
H373   H     0.44906   0.71992   0.25253   0.00000  Uiso   1.00
H374   H     0.06684   0.85602   0.20296   0.00000  Uiso   1.00
H375   H     0.12196   0.83944   0.22467   0.00000  Uiso   1.00
H376   H     0.10136   0.92796   0.22801   0.00000  Uiso   1.00
H377   H     0.15037   0.91355   0.19569   0.00000  Uiso   1.00
H378   H     0.09936   0.92803   0.16146   0.00000  Uiso   1.00
H379   H     0.38536   0.64600   0.21445   0.00000  Uiso   1.00
H380   H     0.43226   0.62337   0.18254   0.00000  Uiso   1.00
H381   H     0.33756   0.59095   0.16389   0.00000  Uiso   1.00
H382   H     0.38539   0.56937   0.13225   0.00000  Uiso   1.00
H383   H     0.29386   0.66275   0.00364   0.00000  Uiso   1.00
H384   H     0.38114   0.55902   0.19753   0.00000  Uiso   1.00
H385   H     0.42008   0.86273   0.10082   0.00000  Uiso   1.00
H386   H     0.37385   0.82589   0.08220   0.00000  Uiso   1.00
H387   H     0.36149   0.91280   0.06447   0.00000  Uiso   1.00
H388   H     0.32201   0.88948   0.10557   0.00000  Uiso   1.00
H389   H     0.36684   0.92588   0.12950   0.00000  Uiso   1.00
H390   H     0.13037   0.63424   0.15411   0.00000  Uiso   1.00
H391   H     0.07690   0.62442   0.17906   0.00000  Uiso   1.00
H392   H     0.16509   0.60203   0.23318   0.00000  Uiso   1.00
H393   H     0.11083   0.58929   0.25399   0.00000  Uiso   1.00
H394   H     0.23367   0.86569   0.05007   0.00000  Uiso   1.00
H395   H     0.13145   0.55911   0.20007   0.00000  Uiso   1.00
H396   H     0.19484   0.91492   0.04587   0.00000  Uiso   1.00
H397   H     0.13338   0.86021   0.03113   0.00000  Uiso   1.00
H398   H     0.17588   0.84951   0.32045   0.00000  Uiso   1.00
N399   N     0.25000   0.62934   0.16667   0.00000  Uiso   1.00
N400   N     0.25000   0.87065   0.16667   0.00000  Uiso   1.00
O401   O     0.18573   0.79071   0.16667   0.00000  Uiso   1.00
O402   O     0.19006   0.87133   0.10817   0.00000  Uiso   1.00
O403   O     0.23830   0.62547   0.07851   0.00000  Uiso   1.00
O404   O     0.31036   0.86898   0.22475   0.00000  Uiso   1.00
O405   O     0.02857   0.82322   0.10800   0.00000  Uiso   1.00
O406   O     0.47664   0.66845   0.12962   0.00000  Uiso   1.00
O407   O     0.47247   0.83617   0.17609   0.00000  Uiso   1.00
O408   O     0.02422   0.68540   0.21655   0.00000  Uiso   1.00
O409   O     0.11117   0.83609   0.14828   0.00000  Uiso   1.00
O410   O     0.38622   0.66440   0.14025   0.00000  Uiso   1.00
O411   O     0.38343   0.83704   0.15825   0.00000  Uiso   1.00
O412   O     0.31427   0.70928   0.16666   0.00000  Uiso   1.00
O413   O     0.11543   0.67732   0.21414   0.00000  Uiso   1.00
O414   O     0.31427   0.79071   0.16666   0.00000  Uiso   1.00
O415   O     0.18573   0.70928   0.16667   0.00000  Uiso   1.00
O416   O     0.25000   0.79071   0.09613   0.00000  Uiso   1.00
O417   O     0.25000   0.70929   0.23720   0.00000  Uiso   1.00
O418   O     0.25000   0.79071   0.23720   0.00000  Uiso   1.00
O419   O     0.25000   0.70929   0.09613   0.00000  Uiso   1.00
O420   O     0.25929   0.62519   0.25524   0.00000  Uiso   1.00
C421   C     0.66505   0.75044   0.16824   0.00000  Uiso   1.00
C422   C     0.78408   0.94511   0.19155   0.00000  Uiso   1.00
C423   C     0.74997   0.74995   0.07360   0.00000  Uiso   1.00
C424   C     0.74990   0.75011   0.25973   0.00000  Uiso   1.00
C425   C     0.75131   0.52642   0.16608   0.00000  Uiso   1.00
C426   C     0.75123   0.97215   0.16575   0.00000  Uiso   1.00
C427   C     0.74990   0.75009   0.02187   0.00000  Uiso   1.00
C428   C     0.74982   0.75030   0.31145   0.00000  Uiso   1.00
C429   C     0.54851   0.78689   0.13563   0.00000  Uiso   1.00
C430   C     0.95342   0.70909   0.14369   0.00000  Uiso   1.00
C431   C     0.95170   0.79340   0.16638   0.00000  Uiso   1.00
C432   C     0.83500   0.74966   0.16404   0.00000  Uiso   1.00
C433   C     0.54717   0.71597   0.18727   0.00000  Uiso   1.00
C434   C     0.59299   0.79111   0.14856   0.00000  Uiso   1.00
C435   C     0.90767   0.70691   0.14972   0.00000  Uiso   1.00
C436   C     0.90585   0.79349   0.16136   0.00000  Uiso   1.00
C437   C     0.59335   0.71287   0.18731   0.00000  Uiso   1.00
C438   C     0.61666   0.75137   0.16818   0.00000  Uiso   1.00
C439   C     0.88337   0.74966   0.15877   0.00000  Uiso   1.00
C440   C     0.52447   0.75083   0.15825   0.00000  Uiso   1.00
C441   C     0.97585   0.75137   0.15596   0.00000  Uiso   1.00
C442   C     0.80474   0.62484   0.26834   0.00000  Uiso   1.00
C443   C     0.75353   0.60320   0.21003   0.00000  Uiso   1.00
C444   C     0.81086   0.62990   0.32389   0.00000  Uiso   1.00
C445   C     0.69931   0.87716   0.05781   0.00000  Uiso   1.00
C446   C     0.66773   0.84705   0.02659   0.00000  Uiso   1.00
C447   C     0.69244   0.62512   0.06763   0.00000  Uiso   1.00
C448   C     0.68415   0.63218   0.01258   0.00000  Uiso   1.00
C449   C     0.80032   0.87581   0.27487   0.00000  Uiso   1.00
C450   C     0.83055   0.84374   0.30664   0.00000  Uiso   1.00
C451   C     0.51405   0.80486   0.06188   0.00000  Uiso   1.00
C452   C     0.50218   0.84636   0.02784   0.00000  Uiso   1.00
C453   C     0.98044   0.66867   0.07805   0.00000  Uiso   1.00
C454   C     0.72040   0.89595   0.13712   0.00000  Uiso   1.00
C455   C     0.50433   0.62305   0.06238   0.00000  Uiso   1.00
C456   C     0.97148   0.84637   0.22696   0.00000  Uiso   1.00
C457   C     0.97551   0.90012   0.23464   0.00000  Uiso   1.00
C458   C     0.51924   0.70640   0.26373   0.00000  Uiso   1.00
C459   C     0.97188   0.70120   0.27907   0.00000  Uiso   1.00
C460   C     0.60239   0.85762   0.19453   0.00000  Uiso   1.00
C461   C     0.61418   0.91012   0.19461   0.00000  Uiso   1.00
C462   C     0.89646   0.63164   0.17864   0.00000  Uiso   1.00
C463   C     0.87362   0.58479   0.16734   0.00000  Uiso   1.00
C464   C     0.88573   0.85344   0.10915   0.00000  Uiso   1.00
C465   C     0.74661   0.60331   0.12310   0.00000  Uiso   1.00
C466   C     0.85716   0.89824   0.10194   0.00000  Uiso   1.00
C467   C     0.61171   0.63329   0.18857   0.00000  Uiso   1.00
C468   C     0.63100   0.59339   0.22098   0.00000  Uiso   1.00
C469   C     0.78041   0.89471   0.19544   0.00000  Uiso   1.00
C470   C     0.74968   0.55269   0.21014   0.00000  Uiso   1.00
C471   C     0.71792   0.94678   0.14009   0.00000  Uiso   1.00
C472   C     0.75209   0.55277   0.12231   0.00000  Uiso   1.00
Cl473  Cl    0.74232   0.52336   0.26670   0.00000  Uiso   1.00
Cl474  Cl    0.67126   0.97795   0.11482   0.00000  Uiso   1.00
Cl475  Cl    0.75967   0.52336   0.06535   0.00000  Uiso   1.00
Cl476  Cl    0.83150   0.97321   0.21643   0.00000  Uiso   1.00
Cu477  Cu    0.75000   0.79821   0.16667   0.00000  Uiso   1.00
Cu478  Cu    0.75000   0.70178   0.16667   0.00000  Uiso   1.00
H479   H     0.82032   0.65573   0.25089   0.00000  Uiso   1.00
H480   H     0.67016   0.80901   0.03811   0.00000  Uiso   1.00
H481   H     0.67602   0.65504   0.08738   0.00000  Uiso   1.00
H482   H     0.67689   0.59081   0.07774   0.00000  Uiso   1.00
H483   H     0.69917   0.60194   0.32536   0.00000  Uiso   1.00
H484   H     0.64819   0.63346   0.00392   0.00000  Uiso   1.00
H485   H     0.69861   0.66615   0.00061   0.00000  Uiso   1.00
H486   H     0.76556   0.86675   0.28177   0.00000  Uiso   1.00
H487   H     0.80545   0.91338   0.28700   0.00000  Uiso   1.00
H488   H     0.82008   0.84518   0.01206   0.00000  Uiso   1.00
H489   H     0.82914   0.80614   0.29335   0.00000  Uiso   1.00
H490   H     0.82225   0.59111   0.25750   0.00000  Uiso   1.00
H491   H     0.86503   0.85597   0.30509   0.00000  Uiso   1.00
H492   H     0.98393   0.78358   0.06578   0.00000  Uiso   1.00
H493   H     0.53994   0.78235   0.04429   0.00000  Uiso   1.00
H494   H     0.53246   0.86419   0.01627   0.00000  Uiso   1.00
H495   H     0.98387   0.83258   0.32835   0.00000  Uiso   1.00
H496   H     0.98082   0.87292   0.04664   0.00000  Uiso   1.00
H497   H     0.50011   0.69954   0.06645   0.00000  Uiso   1.00
H498   H     0.94739   0.66995   0.05898   0.00000  Uiso   1.00
H499   H     0.50773   0.62272   0.02179   0.00000  Uiso   1.00
H500   H     0.98547   0.59129   0.07309   0.00000  Uiso   1.00
H501   H     0.79720   0.59838   0.00883   0.00000  Uiso   1.00
H502   H     0.53766   0.62113   0.08042   0.00000  Uiso   1.00
H503   H     0.99992   0.82786   0.24583   0.00000  Uiso   1.00
H504   H     0.94047   0.83525   0.24420   0.00000  Uiso   1.00
H505   H     0.94709   0.91906   0.21616   0.00000  Uiso   1.00
H506   H     0.97576   0.90879   0.27459   0.00000  Uiso   1.00
H507   H     0.50643   0.91283   0.21898   0.00000  Uiso   1.00
H508   H     0.52725   0.74526   0.26608   0.00000  Uiso   1.00
H509   H     0.54137   0.68713   0.29067   0.00000  Uiso   1.00
H510   H     0.96774   0.71757   0.31598   0.00000  Uiso   1.00
H511   H     0.96330   0.66278   0.28036   0.00000  Uiso   1.00
H512   H     0.84646   0.63204   0.00074   0.00000  Uiso   1.00
H513   H     0.94906   0.71992   0.25253   0.00000  Uiso   1.00
H514   H     0.56684   0.85602   0.20296   0.00000  Uiso   1.00
H515   H     0.62196   0.83944   0.22467   0.00000  Uiso   1.00
H516   H     0.60136   0.92796   0.22801   0.00000  Uiso   1.00
H517   H     0.65037   0.91355   0.19569   0.00000  Uiso   1.00
H518   H     0.59936   0.92803   0.16146   0.00000  Uiso   1.00
H519   H     0.88536   0.64600   0.21445   0.00000  Uiso   1.00
H520   H     0.93226   0.62337   0.18254   0.00000  Uiso   1.00
H521   H     0.83756   0.59095   0.16389   0.00000  Uiso   1.00
H522   H     0.88539   0.56937   0.13225   0.00000  Uiso   1.00
H523   H     0.79386   0.66275   0.00364   0.00000  Uiso   1.00
H524   H     0.88114   0.55902   0.19753   0.00000  Uiso   1.00
H525   H     0.92008   0.86273   0.10082   0.00000  Uiso   1.00
H526   H     0.87385   0.82589   0.08220   0.00000  Uiso   1.00
H527   H     0.86149   0.91280   0.06447   0.00000  Uiso   1.00
H528   H     0.82201   0.88948   0.10557   0.00000  Uiso   1.00
H529   H     0.86684   0.92588   0.12950   0.00000  Uiso   1.00
H530   H     0.63037   0.63424   0.15411   0.00000  Uiso   1.00
H531   H     0.57690   0.62442   0.17906   0.00000  Uiso   1.00
H532   H     0.66509   0.60203   0.23318   0.00000  Uiso   1.00
H533   H     0.61083   0.58929   0.25399   0.00000  Uiso   1.00
H534   H     0.73367   0.86569   0.05007   0.00000  Uiso   1.00
H535   H     0.63145   0.55911   0.20007   0.00000  Uiso   1.00
H536   H     0.69484   0.91492   0.04587   0.00000  Uiso   1.00
H537   H     0.63338   0.86021   0.03113   0.00000  Uiso   1.00
H538   H     0.67588   0.84951   0.32045   0.00000  Uiso   1.00
N539   N     0.75000   0.62934   0.16667   0.00000  Uiso   1.00
N540   N     0.75000   0.87065   0.16667   0.00000  Uiso   1.00
O541   O     0.68573   0.79071   0.16667   0.00000  Uiso   1.00
O542   O     0.69006   0.87133   0.10817   0.00000  Uiso   1.00
O543   O     0.73830   0.62547   0.07851   0.00000  Uiso   1.00
O544   O     0.81036   0.86898   0.22475   0.00000  Uiso   1.00
O545   O     0.52857   0.82322   0.10800   0.00000  Uiso   1.00
O546   O     0.97664   0.66845   0.12962   0.00000  Uiso   1.00
O547   O     0.97247   0.83617   0.17609   0.00000  Uiso   1.00
O548   O     0.52422   0.68540   0.21655   0.00000  Uiso   1.00
O549   O     0.61117   0.83609   0.14828   0.00000  Uiso   1.00
O550   O     0.88622   0.66440   0.14025   0.00000  Uiso   1.00
O551   O     0.88343   0.83704   0.15825   0.00000  Uiso   1.00
O552   O     0.81427   0.70928   0.16666   0.00000  Uiso   1.00
O553   O     0.61543   0.67732   0.21414   0.00000  Uiso   1.00
O554   O     0.81427   0.79071   0.16666   0.00000  Uiso   1.00
O555   O     0.68573   0.70928   0.16667   0.00000  Uiso   1.00
O556   O     0.75000   0.79071   0.09613   0.00000  Uiso   1.00
O557   O     0.75000   0.70929   0.23720   0.00000  Uiso   1.00
O558   O     0.75000   0.79071   0.23720   0.00000  Uiso   1.00
O559   O     0.75000   0.70929   0.09613   0.00000  Uiso   1.00
O560   O     0.75929   0.62519   0.25524   0.00000  Uiso   1.00
C561   C     0.16505   0.25044   0.50158   0.00000  Uiso   1.00
C562   C     0.28408   0.44511   0.52488   0.00000  Uiso   1.00
C563   C     0.24997   0.24995   0.40693   0.00000  Uiso   1.00
C564   C     0.24990   0.25011   0.59306   0.00000  Uiso   1.00
C565   C     0.25131   0.02642   0.49941   0.00000  Uiso   1.00
C566   C     0.25123   0.47215   0.49908   0.00000  Uiso   1.00
C567   C     0.24990   0.25009   0.35521   0.00000  Uiso   1.00
C568   C     0.24982   0.25030   0.64478   0.00000  Uiso   1.00
C569   C     0.04851   0.28689   0.46896   0.00000  Uiso   1.00
C570   C     0.45342   0.20909   0.47703   0.00000  Uiso   1.00
C571   C     0.45170   0.29340   0.49971   0.00000  Uiso   1.00
C572   C     0.33500   0.24966   0.49737   0.00000  Uiso   1.00
C573   C     0.04717   0.21597   0.52061   0.00000  Uiso   1.00
C574   C     0.09299   0.29111   0.48190   0.00000  Uiso   1.00
C575   C     0.40767   0.20691   0.48305   0.00000  Uiso   1.00
C576   C     0.40585   0.29349   0.49470   0.00000  Uiso   1.00
C577   C     0.09335   0.21287   0.52065   0.00000  Uiso   1.00
C578   C     0.11666   0.25137   0.50151   0.00000  Uiso   1.00
C579   C     0.38337   0.24966   0.49211   0.00000  Uiso   1.00
C580   C     0.02447   0.25083   0.49159   0.00000  Uiso   1.00
C581   C     0.47585   0.25137   0.48929   0.00000  Uiso   1.00
C582   C     0.30474   0.12484   0.60168   0.00000  Uiso   1.00
C583   C     0.25353   0.10320   0.54336   0.00000  Uiso   1.00
C584   C     0.31086   0.12990   0.65722   0.00000  Uiso   1.00
C585   C     0.19931   0.37716   0.39114   0.00000  Uiso   1.00
C586   C     0.16773   0.34705   0.35992   0.00000  Uiso   1.00
C587   C     0.19244   0.12512   0.40096   0.00000  Uiso   1.00
C588   C     0.18415   0.13218   0.34591   0.00000  Uiso   1.00
C589   C     0.30032   0.37581   0.60820   0.00000  Uiso   1.00
C590   C     0.33055   0.34374   0.63997   0.00000  Uiso   1.00
C591   C     0.01405   0.30486   0.39522   0.00000  Uiso   1.00
C592   C     0.00218   0.34636   0.36117   0.00000  Uiso   1.00
C593   C     0.48044   0.16867   0.41139   0.00000  Uiso   1.00
C594   C     0.22040   0.39595   0.47045   0.00000  Uiso   1.00
C595   C     0.00433   0.12305   0.39571   0.00000  Uiso   1.00
C596   C     0.47148   0.34637   0.56030   0.00000  Uiso   1.00
C597   C     0.47551   0.40012   0.56797   0.00000  Uiso   1.00
C598   C     0.01924   0.20640   0.59707   0.00000  Uiso   1.00
C599   C     0.47188   0.20120   0.61240   0.00000  Uiso   1.00
C600   C     0.10239   0.35762   0.52786   0.00000  Uiso   1.00
C601   C     0.11418   0.41012   0.52795   0.00000  Uiso   1.00
C602   C     0.39646   0.13164   0.51197   0.00000  Uiso   1.00
C603   C     0.37362   0.08479   0.50067   0.00000  Uiso   1.00
C604   C     0.38573   0.35344   0.44248   0.00000  Uiso   1.00
C605   C     0.24661   0.10331   0.45643   0.00000  Uiso   1.00
C606   C     0.35716   0.39824   0.43527   0.00000  Uiso   1.00
C607   C     0.11171   0.13329   0.52191   0.00000  Uiso   1.00
C608   C     0.13100   0.09339   0.55431   0.00000  Uiso   1.00
C609   C     0.28041   0.39471   0.52878   0.00000  Uiso   1.00
C610   C     0.24968   0.05269   0.54347   0.00000  Uiso   1.00
C611   C     0.21792   0.44678   0.47342   0.00000  Uiso   1.00
C612   C     0.25209   0.05277   0.45565   0.00000  Uiso   1.00
Cl613  Cl    0.24232   0.02336   0.60004   0.00000  Uiso   1.00
Cl614  Cl    0.17126   0.47795   0.44816   0.00000  Uiso   1.00
Cl615  Cl    0.25967   0.02336   0.39868   0.00000  Uiso   1.00
Cl616  Cl    0.33150   0.47321   0.54976   0.00000  Uiso   1.00
Cu617  Cu    0.25000   0.29821   0.50000   0.00000  Uiso   1.00
Cu618  Cu    0.25000   0.20178   0.50000   0.00000  Uiso   1.00
H619   H     0.32032   0.15573   0.58422   0.00000  Uiso   1.00
H620   H     0.17016   0.30901   0.37145   0.00000  Uiso   1.00
H621   H     0.17602   0.15504   0.42072   0.00000  Uiso   1.00
H622   H     0.17689   0.09081   0.41108   0.00000  Uiso   1.00
H623   H     0.19917   0.10194   0.65869   0.00000  Uiso   1.00
H624   H     0.14819   0.13346   0.33726   0.00000  Uiso   1.00
H625   H     0.19861   0.16615   0.33395   0.00000  Uiso   1.00
H626   H     0.26556   0.36675   0.61510   0.00000  Uiso   1.00
H627   H     0.30545   0.41338   0.62033   0.00000  Uiso   1.00
H628   H     0.32008   0.34518   0.34540   0.00000  Uiso   1.00
H629   H     0.32914   0.30614   0.62668   0.00000  Uiso   1.00
H630   H     0.32225   0.09111   0.59083   0.00000  Uiso   1.00
H631   H     0.36503   0.35597   0.63842   0.00000  Uiso   1.00
H632   H     0.48393   0.28358   0.39911   0.00000  Uiso   1.00
H633   H     0.03994   0.28235   0.37762   0.00000  Uiso   1.00
H634   H     0.03246   0.36419   0.34960   0.00000  Uiso   1.00
H635   H     0.48387   0.33258   0.66168   0.00000  Uiso   1.00
H636   H     0.48082   0.37292   0.37997   0.00000  Uiso   1.00
H637   H     0.00011   0.19954   0.39979   0.00000  Uiso   1.00
H638   H     0.44739   0.16995   0.39231   0.00000  Uiso   1.00
H639   H     0.00773   0.12272   0.35512   0.00000  Uiso   1.00
H640   H     0.48547   0.09129   0.40643   0.00000  Uiso   1.00
H641   H     0.29720   0.09838   0.34216   0.00000  Uiso   1.00
H642   H     0.03766   0.12113   0.41376   0.00000  Uiso   1.00
H643   H     0.49992   0.32786   0.57917   0.00000  Uiso   1.00
H644   H     0.44047   0.33525   0.57754   0.00000  Uiso   1.00
H645   H     0.44709   0.41906   0.54950   0.00000  Uiso   1.00
H646   H     0.47576   0.40879   0.60792   0.00000  Uiso   1.00
H647   H     0.00643   0.41283   0.55231   0.00000  Uiso   1.00
H648   H     0.02725   0.24526   0.59941   0.00000  Uiso   1.00
H649   H     0.04137   0.18713   0.62401   0.00000  Uiso   1.00
H650   H     0.46774   0.21757   0.64932   0.00000  Uiso   1.00
H651   H     0.46330   0.16278   0.61370   0.00000  Uiso   1.00
H652   H     0.34646   0.13204   0.33407   0.00000  Uiso   1.00
H653   H     0.44906   0.21992   0.58586   0.00000  Uiso   1.00
H654   H     0.06684   0.35602   0.53629   0.00000  Uiso   1.00
H655   H     0.12196   0.33944   0.55800   0.00000  Uiso   1.00
H656   H     0.10136   0.42796   0.56135   0.00000  Uiso   1.00
H657   H     0.15037   0.41355   0.52902   0.00000  Uiso   1.00
H658   H     0.09936   0.42803   0.49480   0.00000  Uiso   1.00
H659   H     0.38536   0.14600   0.54779   0.00000  Uiso   1.00
H660   H     0.43226   0.12337   0.51588   0.00000  Uiso   1.00
H661   H     0.33756   0.09095   0.49722   0.00000  Uiso   1.00
H662   H     0.38539   0.06937   0.46558   0.00000  Uiso   1.00
H663   H     0.29386   0.16275   0.33697   0.00000  Uiso   1.00
H664   H     0.38114   0.05902   0.53087   0.00000  Uiso   1.00
H665   H     0.42008   0.36273   0.43416   0.00000  Uiso   1.00
H666   H     0.37385   0.32589   0.41553   0.00000  Uiso   1.00
H667   H     0.36149   0.41280   0.39781   0.00000  Uiso   1.00
H668   H     0.32201   0.38948   0.43890   0.00000  Uiso   1.00
H669   H     0.36684   0.42588   0.46283   0.00000  Uiso   1.00
H670   H     0.13037   0.13424   0.48744   0.00000  Uiso   1.00
H671   H     0.07690   0.12442   0.51239   0.00000  Uiso   1.00
H672   H     0.16509   0.10203   0.56651   0.00000  Uiso   1.00
H673   H     0.11083   0.08929   0.58733   0.00000  Uiso   1.00
H674   H     0.23367   0.36569   0.38341   0.00000  Uiso   1.00
H675   H     0.13145   0.05911   0.53341   0.00000  Uiso   1.00
H676   H     0.19484   0.41492   0.37920   0.00000  Uiso   1.00
H677   H     0.13338   0.36021   0.36446   0.00000  Uiso   1.00
H678   H     0.17588   0.34951   0.65378   0.00000  Uiso   1.00
N679   N     0.25000   0.12934   0.50000   0.00000  Uiso   1.00
N680   N     0.25000   0.37065   0.50000   0.00000  Uiso   1.00
O681   O     0.18573   0.29071   0.50000   0.00000  Uiso   1.00
O682   O     0.19006   0.37133   0.44151   0.00000  Uiso   1.00
O683   O     0.23830   0.12547   0.41184   0.00000  Uiso   1.00
O684   O     0.31036   0.36898   0.55808   0.00000  Uiso   1.00
O685   O     0.02857   0.32322   0.44133   0.00000  Uiso   1.00
O686   O     0.47664   0.16845   0.46296   0.00000  Uiso   1.00
O687   O     0.47247   0.33617   0.50943   0.00000  Uiso   1.00
O688   O     0.02422   0.18540   0.54989   0.00000  Uiso   1.00
O689   O     0.11117   0.33609   0.48161   0.00000  Uiso   1.00
O690   O     0.38622   0.16440   0.47358   0.00000  Uiso   1.00
O691   O     0.38343   0.33704   0.49158   0.00000  Uiso   1.00
O692   O     0.31427   0.20928   0.50000   0.00000  Uiso   1.00
O693   O     0.11543   0.17732   0.54747   0.00000  Uiso   1.00
O694   O     0.31427   0.29071   0.50000   0.00000  Uiso   1.00
O695   O     0.18573   0.20928   0.50000   0.00000  Uiso   1.00
O696   O     0.25000   0.29071   0.42946   0.00000  Uiso   1.00
O697   O     0.25000   0.20929   0.57054   0.00000  Uiso   1.00
O698   O     0.25000   0.29071   0.57054   0.00000  Uiso   1.00
O699   O     0.25000   0.20929   0.42946   0.00000  Uiso   1.00
O700   O     0.25929   0.12519   0.58857   0.00000  Uiso   1.00
C701   C     0.66505   0.25044   0.50158   0.00000  Uiso   1.00
C702   C     0.78408   0.44511   0.52488   0.00000  Uiso   1.00
C703   C     0.74997   0.24995   0.40693   0.00000  Uiso   1.00
C704   C     0.74990   0.25011   0.59306   0.00000  Uiso   1.00
C705   C     0.75131   0.02642   0.49941   0.00000  Uiso   1.00
C706   C     0.75123   0.47215   0.49908   0.00000  Uiso   1.00
C707   C     0.74990   0.25009   0.35521   0.00000  Uiso   1.00
C708   C     0.74982   0.25030   0.64478   0.00000  Uiso   1.00
C709   C     0.54851   0.28689   0.46896   0.00000  Uiso   1.00
C710   C     0.95342   0.20909   0.47703   0.00000  Uiso   1.00
C711   C     0.95170   0.29340   0.49971   0.00000  Uiso   1.00
C712   C     0.83500   0.24966   0.49737   0.00000  Uiso   1.00
C713   C     0.54717   0.21597   0.52061   0.00000  Uiso   1.00
C714   C     0.59299   0.29111   0.48190   0.00000  Uiso   1.00
C715   C     0.90767   0.20691   0.48305   0.00000  Uiso   1.00
C716   C     0.90585   0.29349   0.49470   0.00000  Uiso   1.00
C717   C     0.59335   0.21287   0.52065   0.00000  Uiso   1.00
C718   C     0.61666   0.25137   0.50151   0.00000  Uiso   1.00
C719   C     0.88337   0.24966   0.49211   0.00000  Uiso   1.00
C720   C     0.52447   0.25083   0.49159   0.00000  Uiso   1.00
C721   C     0.97585   0.25137   0.48929   0.00000  Uiso   1.00
C722   C     0.80474   0.12484   0.60168   0.00000  Uiso   1.00
C723   C     0.75353   0.10320   0.54336   0.00000  Uiso   1.00
C724   C     0.81086   0.12990   0.65722   0.00000  Uiso   1.00
C725   C     0.69931   0.37716   0.39114   0.00000  Uiso   1.00
C726   C     0.66773   0.34705   0.35992   0.00000  Uiso   1.00
C727   C     0.69244   0.12512   0.40096   0.00000  Uiso   1.00
C728   C     0.68415   0.13218   0.34591   0.00000  Uiso   1.00
C729   C     0.80032   0.37581   0.60820   0.00000  Uiso   1.00
C730   C     0.83055   0.34374   0.63997   0.00000  Uiso   1.00
C731   C     0.51405   0.30486   0.39522   0.00000  Uiso   1.00
C732   C     0.50218   0.34636   0.36117   0.00000  Uiso   1.00
C733   C     0.98044   0.16867   0.41139   0.00000  Uiso   1.00
C734   C     0.72040   0.39595   0.47045   0.00000  Uiso   1.00
C735   C     0.50433   0.12305   0.39571   0.00000  Uiso   1.00
C736   C     0.97148   0.34637   0.56030   0.00000  Uiso   1.00
C737   C     0.97551   0.40012   0.56797   0.00000  Uiso   1.00
C738   C     0.51924   0.20640   0.59707   0.00000  Uiso   1.00
C739   C     0.97188   0.20120   0.61240   0.00000  Uiso   1.00
C740   C     0.60239   0.35762   0.52786   0.00000  Uiso   1.00
C741   C     0.61418   0.41012   0.52795   0.00000  Uiso   1.00
C742   C     0.89646   0.13164   0.51197   0.00000  Uiso   1.00
C743   C     0.87362   0.08479   0.50067   0.00000  Uiso   1.00
C744   C     0.88573   0.35344   0.44248   0.00000  Uiso   1.00
C745   C     0.74661   0.10331   0.45643   0.00000  Uiso   1.00
C746   C     0.85716   0.39824   0.43527   0.00000  Uiso   1.00
C747   C     0.61171   0.13329   0.52191   0.00000  Uiso   1.00
C748   C     0.63100   0.09339   0.55431   0.00000  Uiso   1.00
C749   C     0.78041   0.39471   0.52878   0.00000  Uiso   1.00
C750   C     0.74968   0.05269   0.54347   0.00000  Uiso   1.00
C751   C     0.71792   0.44678   0.47342   0.00000  Uiso   1.00
C752   C     0.75209   0.05277   0.45565   0.00000  Uiso   1.00
Cl753  Cl    0.74232   0.02336   0.60004   0.00000  Uiso   1.00
Cl754  Cl    0.67126   0.47795   0.44816   0.00000  Uiso   1.00
Cl755  Cl    0.75967   0.02336   0.39868   0.00000  Uiso   1.00
Cl756  Cl    0.83150   0.47321   0.54976   0.00000  Uiso   1.00
Cu757  Cu    0.75000   0.29821   0.50000   0.00000  Uiso   1.00
Cu758  Cu    0.75000   0.20178   0.50000   0.00000  Uiso   1.00
H759   H     0.82032   0.15573   0.58422   0.00000  Uiso   1.00
H760   H     0.67016   0.30901   0.37145   0.00000  Uiso   1.00
H761   H     0.67602   0.15504   0.42072   0.00000  Uiso   1.00
H762   H     0.67689   0.09081   0.41108   0.00000  Uiso   1.00
H763   H     0.69917   0.10194   0.65869   0.00000  Uiso   1.00
H764   H     0.64819   0.13346   0.33726   0.00000  Uiso   1.00
H765   H     0.69861   0.16615   0.33395   0.00000  Uiso   1.00
H766   H     0.76556   0.36675   0.61510   0.00000  Uiso   1.00
H767   H     0.80545   0.41338   0.62033   0.00000  Uiso   1.00
H768   H     0.82008   0.34518   0.34540   0.00000  Uiso   1.00
H769   H     0.82914   0.30614   0.62668   0.00000  Uiso   1.00
H770   H     0.82225   0.09111   0.59083   0.00000  Uiso   1.00
H771   H     0.86503   0.35597   0.63842   0.00000  Uiso   1.00
H772   H     0.98393   0.28358   0.39911   0.00000  Uiso   1.00
H773   H     0.53994   0.28235   0.37762   0.00000  Uiso   1.00
H774   H     0.53246   0.36419   0.34960   0.00000  Uiso   1.00
H775   H     0.98387   0.33258   0.66168   0.00000  Uiso   1.00
H776   H     0.98082   0.37292   0.37997   0.00000  Uiso   1.00
H777   H     0.50011   0.19954   0.39979   0.00000  Uiso   1.00
H778   H     0.94739   0.16995   0.39231   0.00000  Uiso   1.00
H779   H     0.50773   0.12272   0.35512   0.00000  Uiso   1.00
H780   H     0.98547   0.09129   0.40643   0.00000  Uiso   1.00
H781   H     0.79720   0.09838   0.34216   0.00000  Uiso   1.00
H782   H     0.53766   0.12113   0.41376   0.00000  Uiso   1.00
H783   H     0.99992   0.32786   0.57917   0.00000  Uiso   1.00
H784   H     0.94047   0.33525   0.57754   0.00000  Uiso   1.00
H785   H     0.94709   0.41906   0.54950   0.00000  Uiso   1.00
H786   H     0.97576   0.40879   0.60792   0.00000  Uiso   1.00
H787   H     0.50643   0.41283   0.55231   0.00000  Uiso   1.00
H788   H     0.52725   0.24526   0.59941   0.00000  Uiso   1.00
H789   H     0.54137   0.18713   0.62401   0.00000  Uiso   1.00
H790   H     0.96774   0.21757   0.64932   0.00000  Uiso   1.00
H791   H     0.96330   0.16278   0.61370   0.00000  Uiso   1.00
H792   H     0.84646   0.13204   0.33407   0.00000  Uiso   1.00
H793   H     0.94906   0.21992   0.58586   0.00000  Uiso   1.00
H794   H     0.56684   0.35602   0.53629   0.00000  Uiso   1.00
H795   H     0.62196   0.33944   0.55800   0.00000  Uiso   1.00
H796   H     0.60136   0.42796   0.56135   0.00000  Uiso   1.00
H797   H     0.65037   0.41355   0.52902   0.00000  Uiso   1.00
H798   H     0.59936   0.42803   0.49480   0.00000  Uiso   1.00
H799   H     0.88536   0.14600   0.54779   0.00000  Uiso   1.00
H800   H     0.93226   0.12337   0.51588   0.00000  Uiso   1.00
H801   H     0.83756   0.09095   0.49722   0.00000  Uiso   1.00
H802   H     0.88539   0.06937   0.46558   0.00000  Uiso   1.00
H803   H     0.79386   0.16275   0.33697   0.00000  Uiso   1.00
H804   H     0.88114   0.05902   0.53087   0.00000  Uiso   1.00
H805   H     0.92008   0.36273   0.43416   0.00000  Uiso   1.00
H806   H     0.87385   0.32589   0.41553   0.00000  Uiso   1.00
H807   H     0.86149   0.41280   0.39781   0.00000  Uiso   1.00
H808   H     0.82201   0.38948   0.43890   0.00000  Uiso   1.00
H809   H     0.86684   0.42588   0.46283   0.00000  Uiso   1.00
H810   H     0.63037   0.13424   0.48744   0.00000  Uiso   1.00
H811   H     0.57690   0.12442   0.51239   0.00000  Uiso   1.00
H812   H     0.66509   0.10203   0.56651   0.00000  Uiso   1.00
H813   H     0.61083   0.08929   0.58733   0.00000  Uiso   1.00
H814   H     0.73367   0.36569   0.38341   0.00000  Uiso   1.00
H815   H     0.63145   0.05911   0.53341   0.00000  Uiso   1.00
H816   H     0.69484   0.41492   0.37920   0.00000  Uiso   1.00
H817   H     0.63338   0.36021   0.36446   0.00000  Uiso   1.00
H818   H     0.67588   0.34951   0.65378   0.00000  Uiso   1.00
N819   N     0.75000   0.12934   0.50000   0.00000  Uiso   1.00
N820   N     0.75000   0.37065   0.50000   0.00000  Uiso   1.00
O821   O     0.68573   0.29071   0.50000   0.00000  Uiso   1.00
O822   O     0.69006   0.37133   0.44151   0.00000  Uiso   1.00
O823   O     0.73830   0.12547   0.41184   0.00000  Uiso   1.00
O824   O     0.81036   0.36898   0.55808   0.00000  Uiso   1.00
O825   O     0.52857   0.32322   0.44133   0.00000  Uiso   1.00
O826   O     0.97664   0.16845   0.46296   0.00000  Uiso   1.00
O827   O     0.97247   0.33617   0.50943   0.00000  Uiso   1.00
O828   O     0.52422   0.18540   0.54989   0.00000  Uiso   1.00
O829   O     0.61117   0.33609   0.48161   0.00000  Uiso   1.00
O830   O     0.88622   0.16440   0.47358   0.00000  Uiso   1.00
O831   O     0.88343   0.33704   0.49158   0.00000  Uiso   1.00
O832   O     0.81427   0.20928   0.50000   0.00000  Uiso   1.00
O833   O     0.61543   0.17732   0.54747   0.00000  Uiso   1.00
O834   O     0.81427   0.29071   0.50000   0.00000  Uiso   1.00
O835   O     0.68573   0.20928   0.50000   0.00000  Uiso   1.00
O836   O     0.75000   0.29071   0.42946   0.00000  Uiso   1.00
O837   O     0.75000   0.20929   0.57054   0.00000  Uiso   1.00
O838   O     0.75000   0.29071   0.57054   0.00000  Uiso   1.00
O839   O     0.75000   0.20929   0.42946   0.00000  Uiso   1.00
O840   O     0.75929   0.12519   0.58857   0.00000  Uiso   1.00
C841   C     0.16505   0.75044   0.50158   0.00000  Uiso   1.00
C842   C     0.28408   0.94511   0.52488   0.00000  Uiso   1.00
C843   C     0.24997   0.74995   0.40693   0.00000  Uiso   1.00
C844   C     0.24990   0.75011   0.59306   0.00000  Uiso   1.00
C845   C     0.25131   0.52642   0.49941   0.00000  Uiso   1.00
C846   C     0.25123   0.97215   0.49908   0.00000  Uiso   1.00
C847   C     0.24990   0.75009   0.35521   0.00000  Uiso   1.00
C848   C     0.24982   0.75030   0.64478   0.00000  Uiso   1.00
C849   C     0.04851   0.78689   0.46896   0.00000  Uiso   1.00
C850   C     0.45342   0.70909   0.47703   0.00000  Uiso   1.00
C851   C     0.45170   0.79340   0.49971   0.00000  Uiso   1.00
C852   C     0.33500   0.74966   0.49737   0.00000  Uiso   1.00
C853   C     0.04717   0.71597   0.52061   0.00000  Uiso   1.00
C854   C     0.09299   0.79111   0.48190   0.00000  Uiso   1.00
C855   C     0.40767   0.70691   0.48305   0.00000  Uiso   1.00
C856   C     0.40585   0.79349   0.49470   0.00000  Uiso   1.00
C857   C     0.09335   0.71287   0.52065   0.00000  Uiso   1.00
C858   C     0.11666   0.75137   0.50151   0.00000  Uiso   1.00
C859   C     0.38337   0.74966   0.49211   0.00000  Uiso   1.00
C860   C     0.02447   0.75083   0.49159   0.00000  Uiso   1.00
C861   C     0.47585   0.75137   0.48929   0.00000  Uiso   1.00
C862   C     0.30474   0.62484   0.60168   0.00000  Uiso   1.00
C863   C     0.25353   0.60320   0.54336   0.00000  Uiso   1.00
C864   C     0.31086   0.62990   0.65722   0.00000  Uiso   1.00
C865   C     0.19931   0.87716   0.39114   0.00000  Uiso   1.00
C866   C     0.16773   0.84705   0.35992   0.00000  Uiso   1.00
C867   C     0.19244   0.62512   0.40096   0.00000  Uiso   1.00
C868   C     0.18415   0.63218   0.34591   0.00000  Uiso   1.00
C869   C     0.30032   0.87581   0.60820   0.00000  Uiso   1.00
C870   C     0.33055   0.84374   0.63997   0.00000  Uiso   1.00
C871   C     0.01405   0.80486   0.39522   0.00000  Uiso   1.00
C872   C     0.00218   0.84636   0.36117   0.00000  Uiso   1.00
C873   C     0.48044   0.66867   0.41139   0.00000  Uiso   1.00
C874   C     0.22040   0.89595   0.47045   0.00000  Uiso   1.00
C875   C     0.00433   0.62305   0.39571   0.00000  Uiso   1.00
C876   C     0.47148   0.84637   0.56030   0.00000  Uiso   1.00
C877   C     0.47551   0.90012   0.56797   0.00000  Uiso   1.00
C878   C     0.01924   0.70640   0.59707   0.00000  Uiso   1.00
C879   C     0.47188   0.70120   0.61240   0.00000  Uiso   1.00
C880   C     0.10239   0.85762   0.52786   0.00000  Uiso   1.00
C881   C     0.11418   0.91012   0.52795   0.00000  Uiso   1.00
C882   C     0.39646   0.63164   0.51197   0.00000  Uiso   1.00
C883   C     0.37362   0.58479   0.50067   0.00000  Uiso   1.00
C884   C     0.38573   0.85344   0.44248   0.00000  Uiso   1.00
C885   C     0.24661   0.60331   0.45643   0.00000  Uiso   1.00
C886   C     0.35716   0.89824   0.43527   0.00000  Uiso   1.00
C887   C     0.11171   0.63329   0.52191   0.00000  Uiso   1.00
C888   C     0.13100   0.59339   0.55431   0.00000  Uiso   1.00
C889   C     0.28041   0.89471   0.52878   0.00000  Uiso   1.00
C890   C     0.24968   0.55269   0.54347   0.00000  Uiso   1.00
C891   C     0.21792   0.94678   0.47342   0.00000  Uiso   1.00
C892   C     0.25209   0.55277   0.45565   0.00000  Uiso   1.00
Cl893  Cl    0.24232   0.52336   0.60004   0.00000  Uiso   1.00
Cl894  Cl    0.17126   0.97795   0.44816   0.00000  Uiso   1.00
Cl895  Cl    0.25967   0.52336   0.39868   0.00000  Uiso   1.00
Cl896  Cl    0.33150   0.97321   0.54976   0.00000  Uiso   1.00
Cu897  Cu    0.25000   0.79821   0.50000   0.00000  Uiso   1.00
Cu898  Cu    0.25000   0.70178   0.50000   0.00000  Uiso   1.00
H899   H     0.32032   0.65573   0.58422   0.00000  Uiso   1.00
H900   H     0.17016   0.80901   0.37145   0.00000  Uiso   1.00
H901   H     0.17602   0.65504   0.42072   0.00000  Uiso   1.00
H902   H     0.17689   0.59081   0.41108   0.00000  Uiso   1.00
H903   H     0.19917   0.60194   0.65869   0.00000  Uiso   1.00
H904   H     0.14819   0.63346   0.33726   0.00000  Uiso   1.00
H905   H     0.19861   0.66615   0.33395   0.00000  Uiso   1.00
H906   H     0.26556   0.86675   0.61510   0.00000  Uiso   1.00
H907   H     0.30545   0.91338   0.62033   0.00000  Uiso   1.00
H908   H     0.32008   0.84518   0.34540   0.00000  Uiso   1.00
H909   H     0.32914   0.80614   0.62668   0.00000  Uiso   1.00
H910   H     0.32225   0.59111   0.59083   0.00000  Uiso   1.00
H911   H     0.36503   0.85597   0.63842   0.00000  Uiso   1.00
H912   H     0.48393   0.78358   0.39911   0.00000  Uiso   1.00
H913   H     0.03994   0.78235   0.37762   0.00000  Uiso   1.00
H914   H     0.03246   0.86419   0.34960   0.00000  Uiso   1.00
H915   H     0.48387   0.83258   0.66168   0.00000  Uiso   1.00
H916   H     0.48082   0.87292   0.37997   0.00000  Uiso   1.00
H917   H     0.00011   0.69954   0.39979   0.00000  Uiso   1.00
H918   H     0.44739   0.66995   0.39231   0.00000  Uiso   1.00
H919   H     0.00773   0.62272   0.35512   0.00000  Uiso   1.00
H920   H     0.48547   0.59129   0.40643   0.00000  Uiso   1.00
H921   H     0.29720   0.59838   0.34216   0.00000  Uiso   1.00
H922   H     0.03766   0.62113   0.41376   0.00000  Uiso   1.00
H923   H     0.49992   0.82786   0.57917   0.00000  Uiso   1.00
H924   H     0.44047   0.83525   0.57754   0.00000  Uiso   1.00
H925   H     0.44709   0.91906   0.54950   0.00000  Uiso   1.00
H926   H     0.47576   0.90879   0.60792   0.00000  Uiso   1.00
H927   H     0.00643   0.91283   0.55231   0.00000  Uiso   1.00
H928   H     0.02725   0.74526   0.59941   0.00000  Uiso   1.00
H929   H     0.04137   0.68713   0.62401   0.00000  Uiso   1.00
H930   H     0.46774   0.71757   0.64932   0.00000  Uiso   1.00
H931   H     0.46330   0.66278   0.61370   0.00000  Uiso   1.00
H932   H     0.34646   0.63204   0.33407   0.00000  Uiso   1.00
H933   H     0.44906   0.71992   0.58586   0.00000  Uiso   1.00
H934   H     0.06684   0.85602   0.53629   0.00000  Uiso   1.00
H935   H     0.12196   0.83944   0.55800   0.00000  Uiso   1.00
H936   H     0.10136   0.92796   0.56135   0.00000  Uiso   1.00
H937   H     0.15037   0.91355   0.52902   0.00000  Uiso   1.00
H938   H     0.09936   0.92803   0.49480   0.00000  Uiso   1.00
H939   H     0.38536   0.64600   0.54779   0.00000  Uiso   1.00
H940   H     0.43226   0.62337   0.51588   0.00000  Uiso   1.00
H941   H     0.33756   0.59095   0.49722   0.00000  Uiso   1.00
H942   H     0.38539   0.56937   0.46558   0.00000  Uiso   1.00
H943   H     0.29386   0.66275   0.33697   0.00000  Uiso   1.00
H944   H     0.38114   0.55902   0.53087   0.00000  Uiso   1.00
H945   H     0.42008   0.86273   0.43416   0.00000  Uiso   1.00
H946   H     0.37385   0.82589   0.41553   0.00000  Uiso   1.00
H947   H     0.36149   0.91280   0.39781   0.00000  Uiso   1.00
H948   H     0.32201   0.88948   0.43890   0.00000  Uiso   1.00
H949   H     0.36684   0.92588   0.46283   0.00000  Uiso   1.00
H950   H     0.13037   0.63424   0.48744   0.00000  Uiso   1.00
H951   H     0.07690   0.62442   0.51239   0.00000  Uiso   1.00
H952   H     0.16509   0.60203   0.56651   0.00000  Uiso   1.00
H953   H     0.11083   0.58929   0.58733   0.00000  Uiso   1.00
H954   H     0.23367   0.86569   0.38341   0.00000  Uiso   1.00
H955   H     0.13145   0.55911   0.53341   0.00000  Uiso   1.00
H956   H     0.19484   0.91492   0.37920   0.00000  Uiso   1.00
H957   H     0.13338   0.86021   0.36446   0.00000  Uiso   1.00
H958   H     0.17588   0.84951   0.65378   0.00000  Uiso   1.00
N959   N     0.25000   0.62934   0.50000   0.00000  Uiso   1.00
N960   N     0.25000   0.87065   0.50000   0.00000  Uiso   1.00
O961   O     0.18573   0.79071   0.50000   0.00000  Uiso   1.00
O962   O     0.19006   0.87133   0.44151   0.00000  Uiso   1.00
O963   O     0.23830   0.62547   0.41184   0.00000  Uiso   1.00
O964   O     0.31036   0.86898   0.55808   0.00000  Uiso   1.00
O965   O     0.02857   0.82322   0.44133   0.00000  Uiso   1.00
O966   O     0.47664   0.66845   0.46296   0.00000  Uiso   1.00
O967   O     0.47247   0.83617   0.50943   0.00000  Uiso   1.00
O968   O     0.02422   0.68540   0.54989   0.00000  Uiso   1.00
O969   O     0.11117   0.83609   0.48161   0.00000  Uiso   1.00
O970   O     0.38622   0.66440   0.47358   0.00000  Uiso   1.00
O971   O     0.38343   0.83704   0.49158   0.00000  Uiso   1.00
O972   O     0.31427   0.70928   0.50000   0.00000  Uiso   1.00
O973   O     0.11543   0.67732   0.54747   0.00000  Uiso   1.00
O974   O     0.31427   0.79071   0.50000   0.00000  Uiso   1.00
O975   O     0.18573   0.70928   0.50000   0.00000  Uiso   1.00
O976   O     0.25000   0.79071   0.42946   0.00000  Uiso   1.00
O977   O     0.25000   0.70929   0.57054   0.00000  Uiso   1.00
O978   O     0.25000   0.79071   0.57054   0.00000  Uiso   1.00
O979   O     0.25000   0.70929   0.42946   0.00000  Uiso   1.00
O980   O     0.25929   0.62519   0.58857   0.00000  Uiso   1.00
C981   C     0.66505   0.75044   0.50158   0.00000  Uiso   1.00
C982   C     0.78408   0.94511   0.52488   0.00000  Uiso   1.00
C983   C     0.74997   0.74995   0.40693   0.00000  Uiso   1.00
C984   C     0.74990   0.75011   0.59306   0.00000  Uiso   1.00
C985   C     0.75131   0.52642   0.49941   0.00000  Uiso   1.00
C986   C     0.75123   0.97215   0.49908   0.00000  Uiso   1.00
C987   C     0.74990   0.75009   0.35521   0.00000  Uiso   1.00
C988   C     0.74982   0.75030   0.64478   0.00000  Uiso   1.00
C989   C     0.54851   0.78689   0.46896   0.00000  Uiso   1.00
C990   C     0.95342   0.70909   0.47703   0.00000  Uiso   1.00
C991   C     0.95170   0.79340   0.49971   0.00000  Uiso   1.00
C992   C     0.83500   0.74966   0.49737   0.00000  Uiso   1.00
C993   C     0.54717   0.71597   0.52061   0.00000  Uiso   1.00
C994   C     0.59299   0.79111   0.48190   0.00000  Uiso   1.00
C995   C     0.90767   0.70691   0.48305   0.00000  Uiso   1.00
C996   C     0.90585   0.79349   0.49470   0.00000  Uiso   1.00
C997   C     0.59335   0.71287   0.52065   0.00000  Uiso   1.00
C998   C     0.61666   0.75137   0.50151   0.00000  Uiso   1.00
C999   C     0.88337   0.74966   0.49211   0.00000  Uiso   1.00
C1000  C     0.52447   0.75083   0.49159   0.00000  Uiso   1.00
C1001  C     0.97585   0.75137   0.48929   0.00000  Uiso   1.00
C1002  C     0.80474   0.62484   0.60168   0.00000  Uiso   1.00
C1003  C     0.75353   0.60320   0.54336   0.00000  Uiso   1.00
C1004  C     0.81086   0.62990   0.65722   0.00000  Uiso   1.00
C1005  C     0.69931   0.87716   0.39114   0.00000  Uiso   1.00
C1006  C     0.66773   0.84705   0.35992   0.00000  Uiso   1.00
C1007  C     0.69244   0.62512   0.40096   0.00000  Uiso   1.00
C1008  C     0.68415   0.63218   0.34591   0.00000  Uiso   1.00
C1009  C     0.80032   0.87581   0.60820   0.00000  Uiso   1.00
C1010  C     0.83055   0.84374   0.63997   0.00000  Uiso   1.00
C1011  C     0.51405   0.80486   0.39522   0.00000  Uiso   1.00
C1012  C     0.50218   0.84636   0.36117   0.00000  Uiso   1.00
C1013  C     0.98044   0.66867   0.41139   0.00000  Uiso   1.00
C1014  C     0.72040   0.89595   0.47045   0.00000  Uiso   1.00
C1015  C     0.50433   0.62305   0.39571   0.00000  Uiso   1.00
C1016  C     0.97148   0.84637   0.56030   0.00000  Uiso   1.00
C1017  C     0.97551   0.90012   0.56797   0.00000  Uiso   1.00
C1018  C     0.51924   0.70640   0.59707   0.00000  Uiso   1.00
C1019  C     0.97188   0.70120   0.61240   0.00000  Uiso   1.00
C1020  C     0.60239   0.85762   0.52786   0.00000  Uiso   1.00
C1021  C     0.61418   0.91012   0.52795   0.00000  Uiso   1.00
C1022  C     0.89646   0.63164   0.51197   0.00000  Uiso   1.00
C1023  C     0.87362   0.58479   0.50067   0.00000  Uiso   1.00
C1024  C     0.88573   0.85344   0.44248   0.00000  Uiso   1.00
C1025  C     0.74661   0.60331   0.45643   0.00000  Uiso   1.00
C1026  C     0.85716   0.89824   0.43527   0.00000  Uiso   1.00
C1027  C     0.61171   0.63329   0.52191   0.00000  Uiso   1.00
C1028  C     0.63100   0.59339   0.55431   0.00000  Uiso   1.00
C1029  C     0.78041   0.89471   0.52878   0.00000  Uiso   1.00
C1030  C     0.74968   0.55269   0.54347   0.00000  Uiso   1.00
C1031  C     0.71792   0.94678   0.47342   0.00000  Uiso   1.00
C1032  C     0.75209   0.55277   0.45565   0.00000  Uiso   1.00
Cl1033 Cl    0.74232   0.52336   0.60004   0.00000  Uiso   1.00
Cl1034 Cl    0.67126   0.97795   0.44816   0.00000  Uiso   1.00
Cl1035 Cl    0.75967   0.52336   0.39868   0.00000  Uiso   1.00
Cl1036 Cl    0.83150   0.97321   0.54976   0.00000  Uiso   1.00
Cu1037 Cu    0.75000   0.79821   0.50000   0.00000  Uiso   1.00
Cu1038 Cu    0.75000   0.70178   0.50000   0.00000  Uiso   1.00
H1039  H     0.82032   0.65573   0.58422   0.00000  Uiso   1.00
H1040  H     0.67016   0.80901   0.37145   0.00000  Uiso   1.00
H1041  H     0.67602   0.65504   0.42072   0.00000  Uiso   1.00
H1042  H     0.67689   0.59081   0.41108   0.00000  Uiso   1.00
H1043  H     0.69917   0.60194   0.65869   0.00000  Uiso   1.00
H1044  H     0.64819   0.63346   0.33726   0.00000  Uiso   1.00
H1045  H     0.69861   0.66615   0.33395   0.00000  Uiso   1.00
H1046  H     0.76556   0.86675   0.61510   0.00000  Uiso   1.00
H1047  H     0.80545   0.91338   0.62033   0.00000  Uiso   1.00
H1048  H     0.82008   0.84518   0.34540   0.00000  Uiso   1.00
H1049  H     0.82914   0.80614   0.62668   0.00000  Uiso   1.00
H1050  H     0.82225   0.59111   0.59083   0.00000  Uiso   1.00
H1051  H     0.86503   0.85597   0.63842   0.00000  Uiso   1.00
H1052  H     0.98393   0.78358   0.39911   0.00000  Uiso   1.00
H1053  H     0.53994   0.78235   0.37762   0.00000  Uiso   1.00
H1054  H     0.53246   0.86419   0.34960   0.00000  Uiso   1.00
H1055  H     0.98387   0.83258   0.66168   0.00000  Uiso   1.00
H1056  H     0.98082   0.87292   0.37997   0.00000  Uiso   1.00
H1057  H     0.50011   0.69954   0.39979   0.00000  Uiso   1.00
H1058  H     0.94739   0.66995   0.39231   0.00000  Uiso   1.00
H1059  H     0.50773   0.62272   0.35512   0.00000  Uiso   1.00
H1060  H     0.98547   0.59129   0.40643   0.00000  Uiso   1.00
H1061  H     0.79720   0.59838   0.34216   0.00000  Uiso   1.00
H1062  H     0.53766   0.62113   0.41376   0.00000  Uiso   1.00
H1063  H     0.99992   0.82786   0.57917   0.00000  Uiso   1.00
H1064  H     0.94047   0.83525   0.57754   0.00000  Uiso   1.00
H1065  H     0.94709   0.91906   0.54950   0.00000  Uiso   1.00
H1066  H     0.97576   0.90879   0.60792   0.00000  Uiso   1.00
H1067  H     0.50643   0.91283   0.55231   0.00000  Uiso   1.00
H1068  H     0.52725   0.74526   0.59941   0.00000  Uiso   1.00
H1069  H     0.54137   0.68713   0.62401   0.00000  Uiso   1.00
H1070  H     0.96774   0.71757   0.64932   0.00000  Uiso   1.00
H1071  H     0.96330   0.66278   0.61370   0.00000  Uiso   1.00
H1072  H     0.84646   0.63204   0.33407   0.00000  Uiso   1.00
H1073  H     0.94906   0.71992   0.58586   0.00000  Uiso   1.00
H1074  H     0.56684   0.85602   0.53629   0.00000  Uiso   1.00
H1075  H     0.62196   0.83944   0.55800   0.00000  Uiso   1.00
H1076  H     0.60136   0.92796   0.56135   0.00000  Uiso   1.00
H1077  H     0.65037   0.91355   0.52902   0.00000  Uiso   1.00
H1078  H     0.59936   0.92803   0.49480   0.00000  Uiso   1.00
H1079  H     0.88536   0.64600   0.54779   0.00000  Uiso   1.00
H1080  H     0.93226   0.62337   0.51588   0.00000  Uiso   1.00
H1081  H     0.83756   0.59095   0.49722   0.00000  Uiso   1.00
H1082  H     0.88539   0.56937   0.46558   0.00000  Uiso   1.00
H1083  H     0.79386   0.66275   0.33697   0.00000  Uiso   1.00
H1084  H     0.88114   0.55902   0.53087   0.00000  Uiso   1.00
H1085  H     0.92008   0.86273   0.43416   0.00000  Uiso   1.00
H1086  H     0.87385   0.82589   0.41553   0.00000  Uiso   1.00
H1087  H     0.86149   0.91280   0.39781   0.00000  Uiso   1.00
H1088  H     0.82201   0.88948   0.43890   0.00000  Uiso   1.00
H1089  H     0.86684   0.92588   0.46283   0.00000  Uiso   1.00
H1090  H     0.63037   0.63424   0.48744   0.00000  Uiso   1.00
H1091  H     0.57690   0.62442   0.51239   0.00000  Uiso   1.00
H1092  H     0.66509   0.60203   0.56651   0.00000  Uiso   1.00
H1093  H     0.61083   0.58929   0.58733   0.00000  Uiso   1.00
H1094  H     0.73367   0.86569   0.38341   0.00000  Uiso   1.00
H1095  H     0.63145   0.55911   0.53341   0.00000  Uiso   1.00
H1096  H     0.69484   0.91492   0.37920   0.00000  Uiso   1.00
H1097  H     0.63338   0.86021   0.36446   0.00000  Uiso   1.00
H1098  H     0.67588   0.84951   0.65378   0.00000  Uiso   1.00
N1099  N     0.75000   0.62934   0.50000   0.00000  Uiso   1.00
N1100  N     0.75000   0.87065   0.50000   0.00000  Uiso   1.00
O1101  O     0.68573   0.79071   0.50000   0.00000  Uiso   1.00
O1102  O     0.69006   0.87133   0.44151   0.00000  Uiso   1.00
O1103  O     0.73830   0.62547   0.41184   0.00000  Uiso   1.00
O1104  O     0.81036   0.86898   0.55808   0.00000  Uiso   1.00
O1105  O     0.52857   0.82322   0.44133   0.00000  Uiso   1.00
O1106  O     0.97664   0.66845   0.46296   0.00000  Uiso   1.00
O1107  O     0.97247   0.83617   0.50943   0.00000  Uiso   1.00
O1108  O     0.52422   0.68540   0.54989   0.00000  Uiso   1.00
O1109  O     0.61117   0.83609   0.48161   0.00000  Uiso   1.00
O1110  O     0.88622   0.66440   0.47358   0.00000  Uiso   1.00
O1111  O     0.88343   0.83704   0.49158   0.00000  Uiso   1.00
O1112  O     0.81427   0.70928   0.50000   0.00000  Uiso   1.00
O1113  O     0.61543   0.67732   0.54747   0.00000  Uiso   1.00
O1114  O     0.81427   0.79071   0.50000   0.00000  Uiso   1.00
O1115  O     0.68573   0.70928   0.50000   0.00000  Uiso   1.00
O1116  O     0.75000   0.79071   0.42946   0.00000  Uiso   1.00
O1117  O     0.75000   0.70929   0.57054   0.00000  Uiso   1.00
O1118  O     0.75000   0.79071   0.57054   0.00000  Uiso   1.00
O1119  O     0.75000   0.70929   0.42946   0.00000  Uiso   1.00
O1120  O     0.75929   0.62519   0.58857   0.00000  Uiso   1.00
C1121  C     0.16505   0.25044   0.83491   0.00000  Uiso   1.00
C1122  C     0.28408   0.44511   0.85821   0.00000  Uiso   1.00
C1123  C     0.24997   0.24995   0.74027   0.00000  Uiso   1.00
C1124  C     0.24990   0.25011   0.92639   0.00000  Uiso   1.00
C1125  C     0.25131   0.02642   0.83275   0.00000  Uiso   1.00
C1126  C     0.25123   0.47215   0.83242   0.00000  Uiso   1.00
C1127  C     0.24990   0.25009   0.68854   0.00000  Uiso   1.00
C1128  C     0.24982   0.25030   0.97812   0.00000  Uiso   1.00
C1129  C     0.04851   0.28689   0.80229   0.00000  Uiso   1.00
C1130  C     0.45342   0.20909   0.81036   0.00000  Uiso   1.00
C1131  C     0.45170   0.29340   0.83304   0.00000  Uiso   1.00
C1132  C     0.33500   0.24966   0.83070   0.00000  Uiso   1.00
C1133  C     0.04717   0.21597   0.85394   0.00000  Uiso   1.00
C1134  C     0.09299   0.29111   0.81523   0.00000  Uiso   1.00
C1135  C     0.40767   0.20691   0.81639   0.00000  Uiso   1.00
C1136  C     0.40585   0.29349   0.82803   0.00000  Uiso   1.00
C1137  C     0.09335   0.21287   0.85398   0.00000  Uiso   1.00
C1138  C     0.11666   0.25137   0.83485   0.00000  Uiso   1.00
C1139  C     0.38337   0.24966   0.82544   0.00000  Uiso   1.00
C1140  C     0.02447   0.25083   0.82492   0.00000  Uiso   1.00
C1141  C     0.47585   0.25137   0.82263   0.00000  Uiso   1.00
C1142  C     0.30474   0.12484   0.93501   0.00000  Uiso   1.00
C1143  C     0.25353   0.10320   0.87669   0.00000  Uiso   1.00
C1144  C     0.31086   0.12990   0.99056   0.00000  Uiso   1.00
C1145  C     0.19931   0.37716   0.72447   0.00000  Uiso   1.00
C1146  C     0.16773   0.34705   0.69325   0.00000  Uiso   1.00
C1147  C     0.19244   0.12512   0.73429   0.00000  Uiso   1.00
C1148  C     0.18415   0.13218   0.67924   0.00000  Uiso   1.00
C1149  C     0.30032   0.37581   0.94154   0.00000  Uiso   1.00
C1150  C     0.33055   0.34374   0.97331   0.00000  Uiso   1.00
C1151  C     0.01405   0.30486   0.72855   0.00000  Uiso   1.00
C1152  C     0.00218   0.34636   0.69451   0.00000  Uiso   1.00
C1153  C     0.48044   0.16867   0.74472   0.00000  Uiso   1.00
C1154  C     0.22040   0.39595   0.80379   0.00000  Uiso   1.00
C1155  C     0.00433   0.12305   0.72905   0.00000  Uiso   1.00
C1156  C     0.47148   0.34637   0.89363   0.00000  Uiso   1.00
C1157  C     0.47551   0.40012   0.90131   0.00000  Uiso   1.00
C1158  C     0.01924   0.20640   0.93040   0.00000  Uiso   1.00
C1159  C     0.47188   0.20120   0.94574   0.00000  Uiso   1.00
C1160  C     0.10239   0.35762   0.86119   0.00000  Uiso   1.00
C1161  C     0.11418   0.41012   0.86128   0.00000  Uiso   1.00
C1162  C     0.39646   0.13164   0.84531   0.00000  Uiso   1.00
C1163  C     0.37362   0.08479   0.83400   0.00000  Uiso   1.00
C1164  C     0.38573   0.35344   0.77582   0.00000  Uiso   1.00
C1165  C     0.24661   0.10331   0.78977   0.00000  Uiso   1.00
C1166  C     0.35716   0.39824   0.76861   0.00000  Uiso   1.00
C1167  C     0.11171   0.13329   0.85524   0.00000  Uiso   1.00
C1168  C     0.13100   0.09339   0.88765   0.00000  Uiso   1.00
C1169  C     0.28041   0.39471   0.86211   0.00000  Uiso   1.00
C1170  C     0.24968   0.05269   0.87681   0.00000  Uiso   1.00
C1171  C     0.21792   0.44678   0.80675   0.00000  Uiso   1.00
C1172  C     0.25209   0.05277   0.78898   0.00000  Uiso   1.00
Cl1173 Cl    0.24232   0.02336   0.93337   0.00000  Uiso   1.00
Cl1174 Cl    0.17126   0.47795   0.78149   0.00000  Uiso   1.00
Cl1175 Cl    0.25967   0.02336   0.73202   0.00000  Uiso   1.00
Cl1176 Cl    0.33150   0.47321   0.88309   0.00000  Uiso   1.00
Cu1177 Cu    0.25000   0.29821   0.83333   0.00000  Uiso   1.00
Cu1178 Cu    0.25000   0.20178   0.83333   0.00000  Uiso   1.00
H1179  H     0.32032   0.15573   0.91755   0.00000  Uiso   1.00
H1180  H     0.17016   0.30901   0.70478   0.00000  Uiso   1.00
H1181  H     0.17602   0.15504   0.75405   0.00000  Uiso   1.00
H1182  H     0.17689   0.09081   0.74441   0.00000  Uiso   1.00
H1183  H     0.19917   0.10194   0.99202   0.00000  Uiso   1.00
H1184  H     0.14819   0.13346   0.67059   0.00000  Uiso   1.00
H1185  H     0.19861   0.16615   0.66728   0.00000  Uiso   1.00
H1186  H     0.26556   0.36675   0.94843   0.00000  Uiso   1.00
H1187  H     0.30545   0.41338   0.95367   0.00000  Uiso   1.00
H1188  H     0.32008   0.34518   0.67873   0.00000  Uiso   1.00
H1189  H     0.32914   0.30614   0.96001   0.00000  Uiso   1.00
H1190  H     0.32225   0.09111   0.92417   0.00000  Uiso   1.00
H1191  H     0.36503   0.35597   0.97176   0.00000  Uiso   1.00
H1192  H     0.48393   0.28358   0.73244   0.00000  Uiso   1.00
H1193  H     0.03994   0.28235   0.71095   0.00000  Uiso   1.00
H1194  H     0.03246   0.36419   0.68293   0.00000  Uiso   1.00
H1195  H     0.48387   0.33258   0.99501   0.00000  Uiso   1.00
H1196  H     0.48082   0.37292   0.71330   0.00000  Uiso   1.00
H1197  H     0.00011   0.19954   0.73312   0.00000  Uiso   1.00
H1198  H     0.44739   0.16995   0.72565   0.00000  Uiso   1.00
H1199  H     0.00773   0.12272   0.68846   0.00000  Uiso   1.00
H1200  H     0.48547   0.09129   0.73976   0.00000  Uiso   1.00
H1201  H     0.29720   0.09838   0.67550   0.00000  Uiso   1.00
H1202  H     0.03766   0.12113   0.74709   0.00000  Uiso   1.00
H1203  H     0.49992   0.32786   0.91250   0.00000  Uiso   1.00
H1204  H     0.44047   0.33525   0.91087   0.00000  Uiso   1.00
H1205  H     0.44709   0.41906   0.88283   0.00000  Uiso   1.00
H1206  H     0.47576   0.40879   0.94126   0.00000  Uiso   1.00
H1207  H     0.00643   0.41283   0.88564   0.00000  Uiso   1.00
H1208  H     0.02725   0.24526   0.93274   0.00000  Uiso   1.00
H1209  H     0.04137   0.18713   0.95734   0.00000  Uiso   1.00
H1210  H     0.46774   0.21757   0.98265   0.00000  Uiso   1.00
H1211  H     0.46330   0.16278   0.94703   0.00000  Uiso   1.00
H1212  H     0.34646   0.13204   0.66741   0.00000  Uiso   1.00
H1213  H     0.44906   0.21992   0.91919   0.00000  Uiso   1.00
H1214  H     0.06684   0.35602   0.86962   0.00000  Uiso   1.00
H1215  H     0.12196   0.33944   0.89133   0.00000  Uiso   1.00
H1216  H     0.10136   0.42796   0.89468   0.00000  Uiso   1.00
H1217  H     0.15037   0.41355   0.86235   0.00000  Uiso   1.00
H1218  H     0.09936   0.42803   0.82813   0.00000  Uiso   1.00
H1219  H     0.38536   0.14600   0.88112   0.00000  Uiso   1.00
H1220  H     0.43226   0.12337   0.84921   0.00000  Uiso   1.00
H1221  H     0.33756   0.09095   0.83056   0.00000  Uiso   1.00
H1222  H     0.38539   0.06937   0.79891   0.00000  Uiso   1.00
H1223  H     0.29386   0.16275   0.67031   0.00000  Uiso   1.00
H1224  H     0.38114   0.05902   0.86420   0.00000  Uiso   1.00
H1225  H     0.42008   0.36273   0.76749   0.00000  Uiso   1.00
H1226  H     0.37385   0.32589   0.74887   0.00000  Uiso   1.00
H1227  H     0.36149   0.41280   0.73114   0.00000  Uiso   1.00
H1228  H     0.32201   0.38948   0.77224   0.00000  Uiso   1.00
H1229  H     0.36684   0.42588   0.79617   0.00000  Uiso   1.00
H1230  H     0.13037   0.13424   0.82077   0.00000  Uiso   1.00
H1231  H     0.07690   0.12442   0.84573   0.00000  Uiso   1.00
H1232  H     0.16509   0.10203   0.89984   0.00000  Uiso   1.00
H1233  H     0.11083   0.08929   0.92066   0.00000  Uiso   1.00
H1234  H     0.23367   0.36569   0.71674   0.00000  Uiso   1.00
H1235  H     0.13145   0.05911   0.86674   0.00000  Uiso   1.00
H1236  H     0.19484   0.41492   0.71254   0.00000  Uiso   1.00
H1237  H     0.13338   0.36021   0.69780   0.00000  Uiso   1.00
H1238  H     0.17588   0.34951   0.98711   0.00000  Uiso   1.00
N1239  N     0.25000   0.12934   0.83333   0.00000  Uiso   1.00
N1240  N     0.25000   0.37065   0.83333   0.00000  Uiso   1.00
O1241  O     0.18573   0.29071   0.83334   0.00000  Uiso   1.00
O1242  O     0.19006   0.37133   0.77484   0.00000  Uiso   1.00
O1243  O     0.23830   0.12547   0.74517   0.00000  Uiso   1.00
O1244  O     0.31036   0.36898   0.89141   0.00000  Uiso   1.00
O1245  O     0.02857   0.32322   0.77467   0.00000  Uiso   1.00
O1246  O     0.47664   0.16845   0.79629   0.00000  Uiso   1.00
O1247  O     0.47247   0.33617   0.84276   0.00000  Uiso   1.00
O1248  O     0.02422   0.18540   0.88322   0.00000  Uiso   1.00
O1249  O     0.11117   0.33609   0.81495   0.00000  Uiso   1.00
O1250  O     0.38622   0.16440   0.80691   0.00000  Uiso   1.00
O1251  O     0.38343   0.33704   0.82491   0.00000  Uiso   1.00
O1252  O     0.31427   0.20928   0.83333   0.00000  Uiso   1.00
O1253  O     0.11543   0.17732   0.88081   0.00000  Uiso   1.00
O1254  O     0.31427   0.29071   0.83333   0.00000  Uiso   1.00
O1255  O     0.18573   0.20928   0.83334   0.00000  Uiso   1.00
O1256  O     0.25000   0.29071   0.76280   0.00000  Uiso   1.00
O1257  O     0.25000   0.20929   0.90387   0.00000  Uiso   1.00
O1258  O     0.25000   0.29071   0.90387   0.00000  Uiso   1.00
O1259  O     0.25000   0.20929   0.76280   0.00000  Uiso   1.00
O1260  O     0.25929   0.12519   0.92191   0.00000  Uiso   1.00
C1261  C     0.66505   0.25044   0.83491   0.00000  Uiso   1.00
C1262  C     0.78408   0.44511   0.85821   0.00000  Uiso   1.00
C1263  C     0.74997   0.24995   0.74027   0.00000  Uiso   1.00
C1264  C     0.74990   0.25011   0.92639   0.00000  Uiso   1.00
C1265  C     0.75131   0.02642   0.83275   0.00000  Uiso   1.00
C1266  C     0.75123   0.47215   0.83242   0.00000  Uiso   1.00
C1267  C     0.74990   0.25009   0.68854   0.00000  Uiso   1.00
C1268  C     0.74982   0.25030   0.97812   0.00000  Uiso   1.00
C1269  C     0.54851   0.28689   0.80229   0.00000  Uiso   1.00
C1270  C     0.95342   0.20909   0.81036   0.00000  Uiso   1.00
C1271  C     0.95170   0.29340   0.83304   0.00000  Uiso   1.00
C1272  C     0.83500   0.24966   0.83070   0.00000  Uiso   1.00
C1273  C     0.54717   0.21597   0.85394   0.00000  Uiso   1.00
C1274  C     0.59299   0.29111   0.81523   0.00000  Uiso   1.00
C1275  C     0.90767   0.20691   0.81639   0.00000  Uiso   1.00
C1276  C     0.90585   0.29349   0.82803   0.00000  Uiso   1.00
C1277  C     0.59335   0.21287   0.85398   0.00000  Uiso   1.00
C1278  C     0.61666   0.25137   0.83485   0.00000  Uiso   1.00
C1279  C     0.88337   0.24966   0.82544   0.00000  Uiso   1.00
C1280  C     0.52447   0.25083   0.82492   0.00000  Uiso   1.00
C1281  C     0.97585   0.25137   0.82263   0.00000  Uiso   1.00
C1282  C     0.80474   0.12484   0.93501   0.00000  Uiso   1.00
C1283  C     0.75353   0.10320   0.87669   0.00000  Uiso   1.00
C1284  C     0.81086   0.12990   0.99056   0.00000  Uiso   1.00
C1285  C     0.69931   0.37716   0.72447   0.00000  Uiso   1.00
C1286  C     0.66773   0.34705   0.69325   0.00000  Uiso   1.00
C1287  C     0.69244   0.12512   0.73429   0.00000  Uiso   1.00
C1288  C     0.68415   0.13218   0.67924   0.00000  Uiso   1.00
C1289  C     0.80032   0.37581   0.94154   0.00000  Uiso   1.00
C1290  C     0.83055   0.34374   0.97331   0.00000  Uiso   1.00
C1291  C     0.51405   0.30486   0.72855   0.00000  Uiso   1.00
C1292  C     0.50218   0.34636   0.69451   0.00000  Uiso   1.00
C1293  C     0.98044   0.16867   0.74472   0.00000  Uiso   1.00
C1294  C     0.72040   0.39595   0.80379   0.00000  Uiso   1.00
C1295  C     0.50433   0.12305   0.72905   0.00000  Uiso   1.00
C1296  C     0.97148   0.34637   0.89363   0.00000  Uiso   1.00
C1297  C     0.97551   0.40012   0.90131   0.00000  Uiso   1.00
C1298  C     0.51924   0.20640   0.93040   0.00000  Uiso   1.00
C1299  C     0.97188   0.20120   0.94574   0.00000  Uiso   1.00
C1300  C     0.60239   0.35762   0.86119   0.00000  Uiso   1.00
C1301  C     0.61418   0.41012   0.86128   0.00000  Uiso   1.00
C1302  C     0.89646   0.13164   0.84531   0.00000  Uiso   1.00
C1303  C     0.87362   0.08479   0.83400   0.00000  Uiso   1.00
C1304  C     0.88573   0.35344   0.77582   0.00000  Uiso   1.00
C1305  C     0.74661   0.10331   0.78977   0.00000  Uiso   1.00
C1306  C     0.85716   0.39824   0.76861   0.00000  Uiso   1.00
C1307  C     0.61171   0.13329   0.85524   0.00000  Uiso   1.00
C1308  C     0.63100   0.09339   0.88765   0.00000  Uiso   1.00
C1309  C     0.78041   0.39471   0.86211   0.00000  Uiso   1.00
C1310  C     0.74968   0.05269   0.87681   0.00000  Uiso   1.00
C1311  C     0.71792   0.44678   0.80675   0.00000  Uiso   1.00
C1312  C     0.75209   0.05277   0.78898   0.00000  Uiso   1.00
Cl1313 Cl    0.74232   0.02336   0.93337   0.00000  Uiso   1.00
Cl1314 Cl    0.67126   0.47795   0.78149   0.00000  Uiso   1.00
Cl1315 Cl    0.75967   0.02336   0.73202   0.00000  Uiso   1.00
Cl1316 Cl    0.83150   0.47321   0.88309   0.00000  Uiso   1.00
Cu1317 Cu    0.75000   0.29821   0.83333   0.00000  Uiso   1.00
Cu1318 Cu    0.75000   0.20178   0.83333   0.00000  Uiso   1.00
H1319  H     0.82032   0.15573   0.91755   0.00000  Uiso   1.00
H1320  H     0.67016   0.30901   0.70478   0.00000  Uiso   1.00
H1321  H     0.67602   0.15504   0.75405   0.00000  Uiso   1.00
H1322  H     0.67689   0.09081   0.74441   0.00000  Uiso   1.00
H1323  H     0.69917   0.10194   0.99202   0.00000  Uiso   1.00
H1324  H     0.64819   0.13346   0.67059   0.00000  Uiso   1.00
H1325  H     0.69861   0.16615   0.66728   0.00000  Uiso   1.00
H1326  H     0.76556   0.36675   0.94843   0.00000  Uiso   1.00
H1327  H     0.80545   0.41338   0.95367   0.00000  Uiso   1.00
H1328  H     0.82008   0.34518   0.67873   0.00000  Uiso   1.00
H1329  H     0.82914   0.30614   0.96001   0.00000  Uiso   1.00
H1330  H     0.82225   0.09111   0.92417   0.00000  Uiso   1.00
H1331  H     0.86503   0.35597   0.97176   0.00000  Uiso   1.00
H1332  H     0.98393   0.28358   0.73244   0.00000  Uiso   1.00
H1333  H     0.53994   0.28235   0.71095   0.00000  Uiso   1.00
H1334  H     0.53246   0.36419   0.68293   0.00000  Uiso   1.00
H1335  H     0.98387   0.33258   0.99501   0.00000  Uiso   1.00
H1336  H     0.98082   0.37292   0.71330   0.00000  Uiso   1.00
H1337  H     0.50011   0.19954   0.73312   0.00000  Uiso   1.00
H1338  H     0.94739   0.16995   0.72565   0.00000  Uiso   1.00
H1339  H     0.50773   0.12272   0.68846   0.00000  Uiso   1.00
H1340  H     0.98547   0.09129   0.73976   0.00000  Uiso   1.00
H1341  H     0.79720   0.09838   0.67550   0.00000  Uiso   1.00
H1342  H     0.53766   0.12113   0.74709   0.00000  Uiso   1.00
H1343  H     0.99992   0.32786   0.91250   0.00000  Uiso   1.00
H1344  H     0.94047   0.33525   0.91087   0.00000  Uiso   1.00
H1345  H     0.94709   0.41906   0.88283   0.00000  Uiso   1.00
H1346  H     0.97576   0.40879   0.94126   0.00000  Uiso   1.00
H1347  H     0.50643   0.41283   0.88564   0.00000  Uiso   1.00
H1348  H     0.52725   0.24526   0.93274   0.00000  Uiso   1.00
H1349  H     0.54137   0.18713   0.95734   0.00000  Uiso   1.00
H1350  H     0.96774   0.21757   0.98265   0.00000  Uiso   1.00
H1351  H     0.96330   0.16278   0.94703   0.00000  Uiso   1.00
H1352  H     0.84646   0.13204   0.66741   0.00000  Uiso   1.00
H1353  H     0.94906   0.21992   0.91919   0.00000  Uiso   1.00
H1354  H     0.56684   0.35602   0.86962   0.00000  Uiso   1.00
H1355  H     0.62196   0.33944   0.89133   0.00000  Uiso   1.00
H1356  H     0.60136   0.42796   0.89468   0.00000  Uiso   1.00
H1357  H     0.65037   0.41355   0.86235   0.00000  Uiso   1.00
H1358  H     0.59936   0.42803   0.82813   0.00000  Uiso   1.00
H1359  H     0.88536   0.14600   0.88112   0.00000  Uiso   1.00
H1360  H     0.93226   0.12337   0.84921   0.00000  Uiso   1.00
H1361  H     0.83756   0.09095   0.83056   0.00000  Uiso   1.00
H1362  H     0.88539   0.06937   0.79891   0.00000  Uiso   1.00
H1363  H     0.79386   0.16275   0.67031   0.00000  Uiso   1.00
H1364  H     0.88114   0.05902   0.86420   0.00000  Uiso   1.00
H1365  H     0.92008   0.36273   0.76749   0.00000  Uiso   1.00
H1366  H     0.87385   0.32589   0.74887   0.00000  Uiso   1.00
H1367  H     0.86149   0.41280   0.73114   0.00000  Uiso   1.00
H1368  H     0.82201   0.38948   0.77224   0.00000  Uiso   1.00
H1369  H     0.86684   0.42588   0.79617   0.00000  Uiso   1.00
H1370  H     0.63037   0.13424   0.82077   0.00000  Uiso   1.00
H1371  H     0.57690   0.12442   0.84573   0.00000  Uiso   1.00
H1372  H     0.66509   0.10203   0.89984   0.00000  Uiso   1.00
H1373  H     0.61083   0.08929   0.92066   0.00000  Uiso   1.00
H1374  H     0.73367   0.36569   0.71674   0.00000  Uiso   1.00
H1375  H     0.63145   0.05911   0.86674   0.00000  Uiso   1.00
H1376  H     0.69484   0.41492   0.71254   0.00000  Uiso   1.00
H1377  H     0.63338   0.36021   0.69780   0.00000  Uiso   1.00
H1378  H     0.67588   0.34951   0.98711   0.00000  Uiso   1.00
N1379  N     0.75000   0.12934   0.83333   0.00000  Uiso   1.00
N1380  N     0.75000   0.37065   0.83333   0.00000  Uiso   1.00
O1381  O     0.68573   0.29071   0.83334   0.00000  Uiso   1.00
O1382  O     0.69006   0.37133   0.77484   0.00000  Uiso   1.00
O1383  O     0.73830   0.12547   0.74517   0.00000  Uiso   1.00
O1384  O     0.81036   0.36898   0.89141   0.00000  Uiso   1.00
O1385  O     0.52857   0.32322   0.77467   0.00000  Uiso   1.00
O1386  O     0.97664   0.16845   0.79629   0.00000  Uiso   1.00
O1387  O     0.97247   0.33617   0.84276   0.00000  Uiso   1.00
O1388  O     0.52422   0.18540   0.88322   0.00000  Uiso   1.00
O1389  O     0.61117   0.33609   0.81495   0.00000  Uiso   1.00
O1390  O     0.88622   0.16440   0.80691   0.00000  Uiso   1.00
O1391  O     0.88343   0.33704   0.82491   0.00000  Uiso   1.00
O1392  O     0.81427   0.20928   0.83333   0.00000  Uiso   1.00
O1393  O     0.61543   0.17732   0.88081   0.00000  Uiso   1.00
O1394  O     0.81427   0.29071   0.83333   0.00000  Uiso   1.00
O1395  O     0.68573   0.20928   0.83334   0.00000  Uiso   1.00
O1396  O     0.75000   0.29071   0.76280   0.00000  Uiso   1.00
O1397  O     0.75000   0.20929   0.90387   0.00000  Uiso   1.00
O1398  O     0.75000   0.29071   0.90387   0.00000  Uiso   1.00
O1399  O     0.75000   0.20929   0.76280   0.00000  Uiso   1.00
O1400  O     0.75929   0.12519   0.92191   0.00000  Uiso   1.00
C1401  C     0.16505   0.75044   0.83491   0.00000  Uiso   1.00
C1402  C     0.28408   0.94511   0.85821   0.00000  Uiso   1.00
C1403  C     0.24997   0.74995   0.74027   0.00000  Uiso   1.00
C1404  C     0.24990   0.75011   0.92639   0.00000  Uiso   1.00
C1405  C     0.25131   0.52642   0.83275   0.00000  Uiso   1.00
C1406  C     0.25123   0.97215   0.83242   0.00000  Uiso   1.00
C1407  C     0.24990   0.75009   0.68854   0.00000  Uiso   1.00
C1408  C     0.24982   0.75030   0.97812   0.00000  Uiso   1.00
C1409  C     0.04851   0.78689   0.80229   0.00000  Uiso   1.00
C1410  C     0.45342   0.70909   0.81036   0.00000  Uiso   1.00
C1411  C     0.45170   0.79340   0.83304   0.00000  Uiso   1.00
C1412  C     0.33500   0.74966   0.83070   0.00000  Uiso   1.00
C1413  C     0.04717   0.71597   0.85394   0.00000  Uiso   1.00
C1414  C     0.09299   0.79111   0.81523   0.00000  Uiso   1.00
C1415  C     0.40767   0.70691   0.81639   0.00000  Uiso   1.00
C1416  C     0.40585   0.79349   0.82803   0.00000  Uiso   1.00
C1417  C     0.09335   0.71287   0.85398   0.00000  Uiso   1.00
C1418  C     0.11666   0.75137   0.83485   0.00000  Uiso   1.00
C1419  C     0.38337   0.74966   0.82544   0.00000  Uiso   1.00
C1420  C     0.02447   0.75083   0.82492   0.00000  Uiso   1.00
C1421  C     0.47585   0.75137   0.82263   0.00000  Uiso   1.00
C1422  C     0.30474   0.62484   0.93501   0.00000  Uiso   1.00
C1423  C     0.25353   0.60320   0.87669   0.00000  Uiso   1.00
C1424  C     0.31086   0.62990   0.99056   0.00000  Uiso   1.00
C1425  C     0.19931   0.87716   0.72447   0.00000  Uiso   1.00
C1426  C     0.16773   0.84705   0.69325   0.00000  Uiso   1.00
C1427  C     0.19244   0.62512   0.73429   0.00000  Uiso   1.00
C1428  C     0.18415   0.63218   0.67924   0.00000  Uiso   1.00
C1429  C     0.30032   0.87581   0.94154   0.00000  Uiso   1.00
C1430  C     0.33055   0.84374   0.97331   0.00000  Uiso   1.00
C1431  C     0.01405   0.80486   0.72855   0.00000  Uiso   1.00
C1432  C     0.00218   0.84636   0.69451   0.00000  Uiso   1.00
C1433  C     0.48044   0.66867   0.74472   0.00000  Uiso   1.00
C1434  C     0.22040   0.89595   0.80379   0.00000  Uiso   1.00
C1435  C     0.00433   0.62305   0.72905   0.00000  Uiso   1.00
C1436  C     0.47148   0.84637   0.89363   0.00000  Uiso   1.00
C1437  C     0.47551   0.90012   0.90131   0.00000  Uiso   1.00
C1438  C     0.01924   0.70640   0.93040   0.00000  Uiso   1.00
C1439  C     0.47188   0.70120   0.94574   0.00000  Uiso   1.00
C1440  C     0.10239   0.85762   0.86119   0.00000  Uiso   1.00
C1441  C     0.11418   0.91012   0.86128   0.00000  Uiso   1.00
C1442  C     0.39646   0.63164   0.84531   0.00000  Uiso   1.00
C1443  C     0.37362   0.58479   0.83400   0.00000  Uiso   1.00
C1444  C     0.38573   0.85344   0.77582   0.00000  Uiso   1.00
C1445  C     0.24661   0.60331   0.78977   0.00000  Uiso   1.00
C1446  C     0.35716   0.89824   0.76861   0.00000  Uiso   1.00
C1447  C     0.11171   0.63329   0.85524   0.00000  Uiso   1.00
C1448  C     0.13100   0.59339   0.88765   0.00000  Uiso   1.00
C1449  C     0.28041   0.89471   0.86211   0.00000  Uiso   1.00
C1450  C     0.24968   0.55269   0.87681   0.00000  Uiso   1.00
C1451  C     0.21792   0.94678   0.80675   0.00000  Uiso   1.00
C1452  C     0.25209   0.55277   0.78898   0.00000  Uiso   1.00
Cl1453 Cl    0.24232   0.52336   0.93337   0.00000  Uiso   1.00
Cl1454 Cl    0.17126   0.97795   0.78149   0.00000  Uiso   1.00
Cl1455 Cl    0.25967   0.52336   0.73202   0.00000  Uiso   1.00
Cl1456 Cl    0.33150   0.97321   0.88309   0.00000  Uiso   1.00
Cu1457 Cu    0.25000   0.79821   0.83333   0.00000  Uiso   1.00
Cu1458 Cu    0.25000   0.70178   0.83333   0.00000  Uiso   1.00
H1459  H     0.32032   0.65573   0.91755   0.00000  Uiso   1.00
H1460  H     0.17016   0.80901   0.70478   0.00000  Uiso   1.00
H1461  H     0.17602   0.65504   0.75405   0.00000  Uiso   1.00
H1462  H     0.17689   0.59081   0.74441   0.00000  Uiso   1.00
H1463  H     0.19917   0.60194   0.99202   0.00000  Uiso   1.00
H1464  H     0.14819   0.63346   0.67059   0.00000  Uiso   1.00
H1465  H     0.19861   0.66615   0.66728   0.00000  Uiso   1.00
H1466  H     0.26556   0.86675   0.94843   0.00000  Uiso   1.00
H1467  H     0.30545   0.91338   0.95367   0.00000  Uiso   1.00
H1468  H     0.32008   0.84518   0.67873   0.00000  Uiso   1.00
H1469  H     0.32914   0.80614   0.96001   0.00000  Uiso   1.00
H1470  H     0.32225   0.59111   0.92417   0.00000  Uiso   1.00
H1471  H     0.36503   0.85597   0.97176   0.00000  Uiso   1.00
H1472  H     0.48393   0.78358   0.73244   0.00000  Uiso   1.00
H1473  H     0.03994   0.78235   0.71095   0.00000  Uiso   1.00
H1474  H     0.03246   0.86419   0.68293   0.00000  Uiso   1.00
H1475  H     0.48387   0.83258   0.99501   0.00000  Uiso   1.00
H1476  H     0.48082   0.87292   0.71330   0.00000  Uiso   1.00
H1477  H     0.00011   0.69954   0.73312   0.00000  Uiso   1.00
H1478  H     0.44739   0.66995   0.72565   0.00000  Uiso   1.00
H1479  H     0.00773   0.62272   0.68846   0.00000  Uiso   1.00
H1480  H     0.48547   0.59129   0.73976   0.00000  Uiso   1.00
H1481  H     0.29720   0.59838   0.67550   0.00000  Uiso   1.00
H1482  H     0.03766   0.62113   0.74709   0.00000  Uiso   1.00
H1483  H     0.49992   0.82786   0.91250   0.00000  Uiso   1.00
H1484  H     0.44047   0.83525   0.91087   0.00000  Uiso   1.00
H1485  H     0.44709   0.91906   0.88283   0.00000  Uiso   1.00
H1486  H     0.47576   0.90879   0.94126   0.00000  Uiso   1.00
H1487  H     0.00643   0.91283   0.88564   0.00000  Uiso   1.00
H1488  H     0.02725   0.74526   0.93274   0.00000  Uiso   1.00
H1489  H     0.04137   0.68713   0.95734   0.00000  Uiso   1.00
H1490  H     0.46774   0.71757   0.98265   0.00000  Uiso   1.00
H1491  H     0.46330   0.66278   0.94703   0.00000  Uiso   1.00
H1492  H     0.34646   0.63204   0.66741   0.00000  Uiso   1.00
H1493  H     0.44906   0.71992   0.91919   0.00000  Uiso   1.00
H1494  H     0.06684   0.85602   0.86962   0.00000  Uiso   1.00
H1495  H     0.12196   0.83944   0.89133   0.00000  Uiso   1.00
H1496  H     0.10136   0.92796   0.89468   0.00000  Uiso   1.00
H1497  H     0.15037   0.91355   0.86235   0.00000  Uiso   1.00
H1498  H     0.09936   0.92803   0.82813   0.00000  Uiso   1.00
H1499  H     0.38536   0.64600   0.88112   0.00000  Uiso   1.00
H1500  H     0.43226   0.62337   0.84921   0.00000  Uiso   1.00
H1501  H     0.33756   0.59095   0.83056   0.00000  Uiso   1.00
H1502  H     0.38539   0.56937   0.79891   0.00000  Uiso   1.00
H1503  H     0.29386   0.66275   0.67031   0.00000  Uiso   1.00
H1504  H     0.38114   0.55902   0.86420   0.00000  Uiso   1.00
H1505  H     0.42008   0.86273   0.76749   0.00000  Uiso   1.00
H1506  H     0.37385   0.82589   0.74887   0.00000  Uiso   1.00
H1507  H     0.36149   0.91280   0.73114   0.00000  Uiso   1.00
H1508  H     0.32201   0.88948   0.77224   0.00000  Uiso   1.00
H1509  H     0.36684   0.92588   0.79617   0.00000  Uiso   1.00
H1510  H     0.13037   0.63424   0.82077   0.00000  Uiso   1.00
H1511  H     0.07690   0.62442   0.84573   0.00000  Uiso   1.00
H1512  H     0.16509   0.60203   0.89984   0.00000  Uiso   1.00
H1513  H     0.11083   0.58929   0.92066   0.00000  Uiso   1.00
H1514  H     0.23367   0.86569   0.71674   0.00000  Uiso   1.00
H1515  H     0.13145   0.55911   0.86674   0.00000  Uiso   1.00
H1516  H     0.19484   0.91492   0.71254   0.00000  Uiso   1.00
H1517  H     0.13338   0.86021   0.69780   0.00000  Uiso   1.00
H1518  H     0.17588   0.84951   0.98711   0.00000  Uiso   1.00
N1519  N     0.25000   0.62934   0.83333   0.00000  Uiso   1.00
N1520  N     0.25000   0.87065   0.83333   0.00000  Uiso   1.00
O1521  O     0.18573   0.79071   0.83334   0.00000  Uiso   1.00
O1522  O     0.19006   0.87133   0.77484   0.00000  Uiso   1.00
O1523  O     0.23830   0.62547   0.74517   0.00000  Uiso   1.00
O1524  O     0.31036   0.86898   0.89141   0.00000  Uiso   1.00
O1525  O     0.02857   0.82322   0.77467   0.00000  Uiso   1.00
O1526  O     0.47664   0.66845   0.79629   0.00000  Uiso   1.00
O1527  O     0.47247   0.83617   0.84276   0.00000  Uiso   1.00
O1528  O     0.02422   0.68540   0.88322   0.00000  Uiso   1.00
O1529  O     0.11117   0.83609   0.81495   0.00000  Uiso   1.00
O1530  O     0.38622   0.66440   0.80691   0.00000  Uiso   1.00
O1531  O     0.38343   0.83704   0.82491   0.00000  Uiso   1.00
O1532  O     0.31427   0.70928   0.83333   0.00000  Uiso   1.00
O1533  O     0.11543   0.67732   0.88081   0.00000  Uiso   1.00
O1534  O     0.31427   0.79071   0.83333   0.00000  Uiso   1.00
O1535  O     0.18573   0.70928   0.83334   0.00000  Uiso   1.00
O1536  O     0.25000   0.79071   0.76280   0.00000  Uiso   1.00
O1537  O     0.25000   0.70929   0.90387   0.00000  Uiso   1.00
O1538  O     0.25000   0.79071   0.90387   0.00000  Uiso   1.00
O1539  O     0.25000   0.70929   0.76280   0.00000  Uiso   1.00
O1540  O     0.25929   0.62519   0.92191   0.00000  Uiso   1.00
C1541  C     0.66505   0.75044   0.83491   0.00000  Uiso   1.00
C1542  C     0.78408   0.94511   0.85821   0.00000  Uiso   1.00
C1543  C     0.74997   0.74995   0.74027   0.00000  Uiso   1.00
C1544  C     0.74990   0.75011   0.92639   0.00000  Uiso   1.00
C1545  C     0.75131   0.52642   0.83275   0.00000  Uiso   1.00
C1546  C     0.75123   0.97215   0.83242   0.00000  Uiso   1.00
C1547  C     0.74990   0.75009   0.68854   0.00000  Uiso   1.00
C1548  C     0.74982   0.75030   0.97812   0.00000  Uiso   1.00
C1549  C     0.54851   0.78689   0.80229   0.00000  Uiso   1.00
C1550  C     0.95342   0.70909   0.81036   0.00000  Uiso   1.00
C1551  C     0.95170   0.79340   0.83304   0.00000  Uiso   1.00
C1552  C     0.83500   0.74966   0.83070   0.00000  Uiso   1.00
C1553  C     0.54717   0.71597   0.85394   0.00000  Uiso   1.00
C1554  C     0.59299   0.79111   0.81523   0.00000  Uiso   1.00
C1555  C     0.90767   0.70691   0.81639   0.00000  Uiso   1.00
C1556  C     0.90585   0.79349   0.82803   0.00000  Uiso   1.00
C1557  C     0.59335   0.71287   0.85398   0.00000  Uiso   1.00
C1558  C     0.61666   0.75137   0.83485   0.00000  Uiso   1.00
C1559  C     0.88337   0.74966   0.82544   0.00000  Uiso   1.00
C1560  C     0.52447   0.75083   0.82492   0.00000  Uiso   1.00
C1561  C     0.97585   0.75137   0.82263   0.00000  Uiso   1.00
C1562  C     0.80474   0.62484   0.93501   0.00000  Uiso   1.00
C1563  C     0.75353   0.60320   0.87669   0.00000  Uiso   1.00
C1564  C     0.81086   0.62990   0.99056   0.00000  Uiso   1.00
C1565  C     0.69931   0.87716   0.72447   0.00000  Uiso   1.00
C1566  C     0.66773   0.84705   0.69325   0.00000  Uiso   1.00
C1567  C     0.69244   0.62512   0.73429   0.00000  Uiso   1.00
C1568  C     0.68415   0.63218   0.67924   0.00000  Uiso   1.00
C1569  C     0.80032   0.87581   0.94154   0.00000  Uiso   1.00
C1570  C     0.83055   0.84374   0.97331   0.00000  Uiso   1.00
C1571  C     0.51405   0.80486   0.72855   0.00000  Uiso   1.00
C1572  C     0.50218   0.84636   0.69451   0.00000  Uiso   1.00
C1573  C     0.98044   0.66867   0.74472   0.00000  Uiso   1.00
C1574  C     0.72040   0.89595   0.80379   0.00000  Uiso   1.00
C1575  C     0.50433   0.62305   0.72905   0.00000  Uiso   1.00
C1576  C     0.97148   0.84637   0.89363   0.00000  Uiso   1.00
C1577  C     0.97551   0.90012   0.90131   0.00000  Uiso   1.00
C1578  C     0.51924   0.70640   0.93040   0.00000  Uiso   1.00
C1579  C     0.97188   0.70120   0.94574   0.00000  Uiso   1.00
C1580  C     0.60239   0.85762   0.86119   0.00000  Uiso   1.00
C1581  C     0.61418   0.91012   0.86128   0.00000  Uiso   1.00
C1582  C     0.89646   0.63164   0.84531   0.00000  Uiso   1.00
C1583  C     0.87362   0.58479   0.83400   0.00000  Uiso   1.00
C1584  C     0.88573   0.85344   0.77582   0.00000  Uiso   1.00
C1585  C     0.74661   0.60331   0.78977   0.00000  Uiso   1.00
C1586  C     0.85716   0.89824   0.76861   0.00000  Uiso   1.00
C1587  C     0.61171   0.63329   0.85524   0.00000  Uiso   1.00
C1588  C     0.63100   0.59339   0.88765   0.00000  Uiso   1.00
C1589  C     0.78041   0.89471   0.86211   0.00000  Uiso   1.00
C1590  C     0.74968   0.55269   0.87681   0.00000  Uiso   1.00
C1591  C     0.71792   0.94678   0.80675   0.00000  Uiso   1.00
C1592  C     0.75209   0.55277   0.78898   0.00000  Uiso   1.00
Cl1593 Cl    0.74232   0.52336   0.93337   0.00000  Uiso   1.00
Cl1594 Cl    0.67126   0.97795   0.78149   0.00000  Uiso   1.00
Cl1595 Cl    0.75967   0.52336   0.73202   0.00000  Uiso   1.00
Cl1596 Cl    0.83150   0.97321   0.88309   0.00000  Uiso   1.00
Cu1597 Cu    0.75000   0.79821   0.83333   0.00000  Uiso   1.00
Cu1598 Cu    0.75000   0.70178   0.83333   0.00000  Uiso   1.00
H1599  H     0.82032   0.65573   0.91755   0.00000  Uiso   1.00
H1600  H     0.67016   0.80901   0.70478   0.00000  Uiso   1.00
H1601  H     0.67602   0.65504   0.75405   0.00000  Uiso   1.00
H1602  H     0.67689   0.59081   0.74441   0.00000  Uiso   1.00
H1603  H     0.69917   0.60194   0.99202   0.00000  Uiso   1.00
H1604  H     0.64819   0.63346   0.67059   0.00000  Uiso   1.00
H1605  H     0.69861   0.66615   0.66728   0.00000  Uiso   1.00
H1606  H     0.76556   0.86675   0.94843   0.00000  Uiso   1.00
H1607  H     0.80545   0.91338   0.95367   0.00000  Uiso   1.00
H1608  H     0.82008   0.84518   0.67873   0.00000  Uiso   1.00
H1609  H     0.82914   0.80614   0.96001   0.00000  Uiso   1.00
H1610  H     0.82225   0.59111   0.92417   0.00000  Uiso   1.00
H1611  H     0.86503   0.85597   0.97176   0.00000  Uiso   1.00
H1612  H     0.98393   0.78358   0.73244   0.00000  Uiso   1.00
H1613  H     0.53994   0.78235   0.71095   0.00000  Uiso   1.00
H1614  H     0.53246   0.86419   0.68293   0.00000  Uiso   1.00
H1615  H     0.98387   0.83258   0.99501   0.00000  Uiso   1.00
H1616  H     0.98082   0.87292   0.71330   0.00000  Uiso   1.00
H1617  H     0.50011   0.69954   0.73312   0.00000  Uiso   1.00
H1618  H     0.94739   0.66995   0.72565   0.00000  Uiso   1.00
H1619  H     0.50773   0.62272   0.68846   0.00000  Uiso   1.00
H1620  H     0.98547   0.59129   0.73976   0.00000  Uiso   1.00
H1621  H     0.79720   0.59838   0.67550   0.00000  Uiso   1.00
H1622  H     0.53766   0.62113   0.74709   0.00000  Uiso   1.00
H1623  H     0.99992   0.82786   0.91250   0.00000  Uiso   1.00
H1624  H     0.94047   0.83525   0.91087   0.00000  Uiso   1.00
H1625  H     0.94709   0.91906   0.88283   0.00000  Uiso   1.00
H1626  H     0.97576   0.90879   0.94126   0.00000  Uiso   1.00
H1627  H     0.50643   0.91283   0.88564   0.00000  Uiso   1.00
H1628  H     0.52725   0.74526   0.93274   0.00000  Uiso   1.00
H1629  H     0.54137   0.68713   0.95734   0.00000  Uiso   1.00
H1630  H     0.96774   0.71757   0.98265   0.00000  Uiso   1.00
H1631  H     0.96330   0.66278   0.94703   0.00000  Uiso   1.00
H1632  H     0.84646   0.63204   0.66741   0.00000  Uiso   1.00
H1633  H     0.94906   0.71992   0.91919   0.00000  Uiso   1.00
H1634  H     0.56684   0.85602   0.86962   0.00000  Uiso   1.00
H1635  H     0.62196   0.83944   0.89133   0.00000  Uiso   1.00
H1636  H     0.60136   0.92796   0.89468   0.00000  Uiso   1.00
H1637  H     0.65037   0.91355   0.86235   0.00000  Uiso   1.00
H1638  H     0.59936   0.92803   0.82813   0.00000  Uiso   1.00
H1639  H     0.88536   0.64600   0.88112   0.00000  Uiso   1.00
H1640  H     0.93226   0.62337   0.84921   0.00000  Uiso   1.00
H1641  H     0.83756   0.59095   0.83056   0.00000  Uiso   1.00
H1642  H     0.88539   0.56937   0.79891   0.00000  Uiso   1.00
H1643  H     0.79386   0.66275   0.67031   0.00000  Uiso   1.00
H1644  H     0.88114   0.55902   0.86420   0.00000  Uiso   1.00
H1645  H     0.92008   0.86273   0.76749   0.00000  Uiso   1.00
H1646  H     0.87385   0.82589   0.74887   0.00000  Uiso   1.00
H1647  H     0.86149   0.91280   0.73114   0.00000  Uiso   1.00
H1648  H     0.82201   0.88948   0.77224   0.00000  Uiso   1.00
H1649  H     0.86684   0.92588   0.79617   0.00000  Uiso   1.00
H1650  H     0.63037   0.63424   0.82077   0.00000  Uiso   1.00
H1651  H     0.57690   0.62442   0.84573   0.00000  Uiso   1.00
H1652  H     0.66509   0.60203   0.89984   0.00000  Uiso   1.00
H1653  H     0.61083   0.58929   0.92066   0.00000  Uiso   1.00
H1654  H     0.73367   0.86569   0.71674   0.00000  Uiso   1.00
H1655  H     0.63145   0.55911   0.86674   0.00000  Uiso   1.00
H1656  H     0.69484   0.91492   0.71254   0.00000  Uiso   1.00
H1657  H     0.63338   0.86021   0.69780   0.00000  Uiso   1.00
H1658  H     0.67588   0.84951   0.98711   0.00000  Uiso   1.00
N1659  N     0.75000   0.62934   0.83333   0.00000  Uiso   1.00
N1660  N     0.75000   0.87065   0.83333   0.00000  Uiso   1.00
O1661  O     0.68573   0.79071   0.83334   0.00000  Uiso   1.00
O1662  O     0.69006   0.87133   0.77484   0.00000  Uiso   1.00
O1663  O     0.73830   0.62547   0.74517   0.00000  Uiso   1.00
O1664  O     0.81036   0.86898   0.89141   0.00000  Uiso   1.00
O1665  O     0.52857   0.82322   0.77467   0.00000  Uiso   1.00
O1666  O     0.97664   0.66845   0.79629   0.00000  Uiso   1.00
O1667  O     0.97247   0.83617   0.84276   0.00000  Uiso   1.00
O1668  O     0.52422   0.68540   0.88322   0.00000  Uiso   1.00
O1669  O     0.61117   0.83609   0.81495   0.00000  Uiso   1.00
O1670  O     0.88622   0.66440   0.80691   0.00000  Uiso   1.00
O1671  O     0.88343   0.83704   0.82491   0.00000  Uiso   1.00
O1672  O     0.81427   0.70928   0.83333   0.00000  Uiso   1.00
O1673  O     0.61543   0.67732   0.88081   0.00000  Uiso   1.00
O1674  O     0.81427   0.79071   0.83333   0.00000  Uiso   1.00
O1675  O     0.68573   0.70928   0.83334   0.00000  Uiso   1.00
O1676  O     0.75000   0.79071   0.76280   0.00000  Uiso   1.00
O1677  O     0.75000   0.70929   0.90387   0.00000  Uiso   1.00
O1678  O     0.75000   0.79071   0.90387   0.00000  Uiso   1.00
O1679  O     0.75000   0.70929   0.76280   0.00000  Uiso   1.00
O1680  O     0.75929   0.62519   0.92191   0.00000  Uiso   1.00
loop_
_geom_bond_atom_site_label_1
_geom_bond_atom_site_label_2
_geom_bond_distance
_geom_bond_site_symmetry_2
_ccdc_geom_bond_type
C1     C18     1.471   .     S
C1     O121    1.301   .     A
C1     O135    1.301   .     A
C2     C6      1.410   .     A
C2     C49     1.419   .     A
C2     Cl56    1.767   .     S
C3     C7      1.404   .     S
C3     O136    1.289   .     A
C3     O139    1.293   .     A
C4     C8      1.404   .     S
C4     O137    1.291   .     A
C4     O138    1.292   .     A
C5     C52     1.402   .     A
C5     C50     1.402   .     A
C5     C286    1.516   1_545 S
C6     C51     1.410   .     A
C6     C285    1.516   .     S
C7     C1128   1.188   1_554 S
C8     C567    1.188   .     S
C9     O125    1.384   .     S
C9     C14     1.393   .     A
C9     C20     1.411   .     A
C10    C15     1.408   .     A
C10    C21     1.408   .     A
C10    O126    1.384   .     S
C11    C21     1.405   .     A
C11    O127    1.382   .     S
C11    C16     1.396   .     A
C12    O134    1.301   .     A
C12    O132    1.306   .     A
C12    C19     1.482   .     S
C13    O128    1.384   .     S
C13    C20     1.411   .     A
C13    C17     1.405   .     A
C14    C18     1.408   .     A
C14    O129    1.383   .     S
C15    C19     1.417   .     A
C15    O130    1.385   .     S
C16    O131    1.385   .     S
C16    C19     1.414   .     A
C17    C18     1.411   .     A
C17    O133    1.385   .     S
C20    C161    1.477   1_455 S
C21    C160    1.477   .     S
C22    O140    1.415   .     S
C22    H59     1.109   .     S
C22    C24     1.519   .     S
C22    H70     1.116   .     S
C23    N119    1.389   .     A
C23    O140    1.377   .     S
C23    C50     1.418   .     A
C24    H641    1.108   .     S
C24    H652    1.111   .     S
C24    H663    1.107   .     S
C25    O122    1.416   .     S
C25    H116    1.110   .     S
C25    C26     1.522   .     S
C25    H114    1.113   .     S
C26    H117    1.111   .     S
C26    H60     1.110   .     S
C26    H1238   1.111   1_554 S
C27    H62     1.117   .     S
C27    H61     1.110   .     S
C27    O123    1.416   .     S
C27    C28     1.521   .     S
C28    H64     1.111   .     S
C28    H65     1.109   .     S
C28    H1183   1.109   1_554 S
C29    O124    1.416   .     S
C29    H67     1.111   .     S
C29    C30     1.521   .     S
C29    H66     1.114   .     S
C30    H71     1.111   .     S
C30    H69     1.110   .     S
C30    H628    1.110   .     S
C31    H73     1.116   .     S
C31    C32     1.517   .     S
C31    O125    1.411   .     S
C31    H212    1.110   1_455 S
C32    H74     1.111   .     S
C32    H1335   1.106   1_454 S
C32    H216    1.110   1_455 S
C33    H78     1.115   .     S
C33    O126    1.409   .     S
C33    C175    1.520   .     S
C33    H217    1.112   .     S
C34    O122    1.382   .     S
C34    N120    1.373   .     A
C34    C51     1.422   .     A
C35    H82     1.111   .     S
C35    H79     1.110   .     S
C35    C173    1.520   1_455 S
C35    H220    1.111   1_455 S
C36    C37     1.522   .     S
C36    H83     1.110   .     S
C36    O127    1.410   .     S
C36    H84     1.117   .     S
C37    H85     1.111   .     S
C37    H86     1.110   .     S
C37    H227    1.110   .     S
C38    H89     1.111   .     S
C38    H88     1.118   .     S
C38    O128    1.417   .     S
C38    C179    1.522   1_455 S
C39    H93     1.109   .     S
C39    H90     1.109   .     S
C39    H91     1.111   .     S
C39    C178    1.522   .     S
C40    O129    1.420   .     S
C40    C41     1.517   .     S
C40    H95     1.114   .     S
C40    H94     1.114   .     S
C41    H96     1.111   .     S
C41    H97     1.106   .     S
C41    H98     1.110   .     S
C42    H100    1.110   .     S
C42    O130    1.414   .     S
C42    C43     1.518   .     S
C42    H99     1.110   .     S
C43    H104    1.109   .     S
C43    H101    1.107   .     S
C43    H102    1.111   .     S
C44    H105    1.112   .     S
C44    O131    1.416   .     S
C44    C46     1.519   .     S
C44    H106    1.116   .     S
C45    O123    1.376   .     S
C45    N119    1.387   .     A
C45    C52     1.419   .     A
C46    H108    1.109   .     S
C46    H107    1.110   .     S
C46    H109    1.109   .     S
C47    C48     1.520   .     S
C47    O133    1.413   .     S
C47    H110    1.111   .     S
C47    H111    1.113   .     S
C48    H112    1.108   .     S
C48    H115    1.111   .     S
C48    H113    1.111   .     S
C49    O124    1.382   .     S
C49    N120    1.374   .     A
C50    Cl53    1.768   .     S
C51    Cl54    1.771   .     S
C52    Cl55    1.767   .     S
Cu57   O121    1.969   .     S
Cu57   N120    2.024   .     S
Cu57   O134    1.961   .     S
Cu57   Cu58    2.694   .     S
Cu57   O138    1.928   .     S
Cu57   O136    1.925   .     S
Cu58   O139    1.928   .     S
Cu58   O132    1.969   .     S
Cu58   O137    1.925   .     S
Cu58   O135    1.961   .     S
Cu58   N119    2.024   .     S
H63    C588    1.109   .     S
H68    C1150   1.110   1_554 S
H72    C171    1.110   .     S
H75    C732    1.106   .     S
H76    C172    1.110   .     S
H77    C173    1.112   1_455 S
H80    C175    1.111   .     S
H81    C1144   1.108   1_554 S
H87    C177    1.110   1_455 S
H92    C1144   1.111   1_554 S
H103   C1144   1.107   1_554 S
H118   C586    1.111   .     S
C141   C158    1.471   .     S
C141   O261    1.301   .     A
C141   O275    1.301   .     A
C142   C146    1.410   .     A
C142   C189    1.419   .     A
C142   Cl196   1.767   .     S
C143   C147    1.404   .     S
C143   O276    1.289   .     A
C143   O279    1.293   .     A
C144   C148    1.404   .     S
C144   O277    1.291   .     A
C144   O278    1.292   .     A
C145   C192    1.402   .     A
C145   C190    1.402   .     A
C145   C426    1.516   1_545 S
C146   C191    1.410   .     A
C146   C425    1.516   .     S
C147   C1268   1.188   1_554 S
C148   C707    1.188   .     S
C149   O265    1.384   .     S
C149   C154    1.393   .     A
C149   C160    1.411   .     A
C150   C155    1.408   .     A
C150   C161    1.408   .     A
C150   O266    1.384   .     S
C151   C161    1.405   .     A
C151   O267    1.382   .     S
C151   C156    1.396   .     A
C152   O274    1.301   .     A
C152   O272    1.306   .     A
C152   C159    1.482   .     S
C153   O268    1.384   .     S
C153   C160    1.411   .     A
C153   C157    1.405   .     A
C154   C158    1.408   .     A
C154   O269    1.383   .     S
C155   C159    1.417   .     A
C155   O270    1.385   .     S
C156   O271    1.385   .     S
C156   C159    1.414   .     A
C157   C158    1.411   .     A
C157   O273    1.385   .     S
C161   C20     1.477   1_655 S
C162   O280    1.415   .     S
C162   H199    1.109   .     S
C162   C164    1.519   .     S
C162   H210    1.116   .     S
C163   N259    1.389   .     A
C163   O280    1.377   .     S
C163   C190    1.418   .     A
C164   H781    1.108   .     S
C164   H792    1.111   .     S
C164   H803    1.107   .     S
C165   O262    1.416   .     S
C165   H256    1.110   .     S
C165   C166    1.522   .     S
C165   H254    1.113   .     S
C166   H257    1.111   .     S
C166   H200    1.110   .     S
C166   H1378   1.111   1_554 S
C167   H202    1.117   .     S
C167   H201    1.110   .     S
C167   O263    1.416   .     S
C167   C168    1.521   .     S
C168   H204    1.111   .     S
C168   H205    1.109   .     S
C168   H1323   1.109   1_554 S
C169   O264    1.416   .     S
C169   H207    1.111   .     S
C169   C170    1.521   .     S
C169   H206    1.114   .     S
C170   H211    1.111   .     S
C170   H209    1.110   .     S
C170   H768    1.110   .     S
C171   H213    1.116   .     S
C171   C172    1.517   .     S
C171   O265    1.411   .     S
C172   H214    1.111   .     S
C172   H1195   1.106   1_554 S
C173   H218    1.115   .     S
C173   O266    1.409   .     S
C173   C35     1.520   1_655 S
C173   H77     1.112   1_655 S
C174   O262    1.382   .     S
C174   N260    1.373   .     A
C174   C191    1.422   .     A
C175   H222    1.111   .     S
C175   H219    1.110   .     S
C176   C177    1.522   .     S
C176   H223    1.110   .     S
C176   O267    1.410   .     S
C176   H224    1.117   .     S
C177   H225    1.111   .     S
C177   H226    1.110   .     S
C177   H87     1.110   1_655 S
C178   H229    1.111   .     S
C178   H228    1.118   .     S
C178   O268    1.417   .     S
C179   H233    1.109   .     S
C179   H230    1.109   .     S
C179   H231    1.111   .     S
C179   C38     1.522   1_655 S
C180   O269    1.420   .     S
C180   C181    1.517   .     S
C180   H235    1.114   .     S
C180   H234    1.114   .     S
C181   H236    1.111   .     S
C181   H237    1.106   .     S
C181   H238    1.110   .     S
C182   H240    1.110   .     S
C182   O270    1.414   .     S
C182   C183    1.518   .     S
C182   H239    1.110   .     S
C183   H244    1.109   .     S
C183   H241    1.107   .     S
C183   H242    1.111   .     S
C184   H245    1.112   .     S
C184   O271    1.416   .     S
C184   C186    1.519   .     S
C184   H246    1.116   .     S
C185   O263    1.376   .     S
C185   N259    1.387   .     A
C185   C192    1.419   .     A
C186   H248    1.109   .     S
C186   H247    1.110   .     S
C186   H249    1.109   .     S
C187   C188    1.520   .     S
C187   O273    1.413   .     S
C187   H250    1.111   .     S
C187   H251    1.113   .     S
C188   H252    1.108   .     S
C188   H255    1.111   .     S
C188   H253    1.111   .     S
C189   O264    1.382   .     S
C189   N260    1.374   .     A
C190   Cl193   1.768   .     S
C191   Cl194   1.771   .     S
C192   Cl195   1.767   .     S
Cu197  O261    1.969   .     S
Cu197  N260    2.024   .     S
Cu197  O274    1.961   .     S
Cu197  Cu198   2.694   .     S
Cu197  O278    1.928   .     S
Cu197  O276    1.925   .     S
Cu198  O279    1.928   .     S
Cu198  O272    1.969   .     S
Cu198  O277    1.925   .     S
Cu198  O275    1.961   .     S
Cu198  N259    2.024   .     S
H203   C728    1.109   .     S
H208   C1290   1.110   1_554 S
H212   C31     1.110   1_655 S
H215   C592    1.106   1_655 S
H216   C32     1.110   1_655 S
H220   C35     1.111   1_655 S
H221   C1284   1.108   1_554 S
H232   C1284   1.111   1_554 S
H243   C1284   1.107   1_554 S
H258   C726    1.111   .     S
C281   C298    1.471   .     S
C281   O401    1.301   .     A
C281   O415    1.301   .     A
C282   C286    1.410   .     A
C282   C329    1.419   .     A
C282   Cl336   1.767   .     S
C283   C287    1.404   .     S
C283   O416    1.289   .     A
C283   O419    1.293   .     A
C284   C288    1.404   .     S
C284   O417    1.291   .     A
C284   O418    1.292   .     A
C285   C332    1.402   .     A
C285   C330    1.402   .     A
C286   C331    1.410   .     A
C286   C5      1.516   1_565 S
C287   C1408   1.188   1_554 S
C288   C847    1.188   .     S
C289   O405    1.384   .     S
C289   C294    1.393   .     A
C289   C300    1.411   .     A
C290   C295    1.408   .     A
C290   C301    1.408   .     A
C290   O406    1.384   .     S
C291   C301    1.405   .     A
C291   O407    1.382   .     S
C291   C296    1.396   .     A
C292   O414    1.301   .     A
C292   O412    1.306   .     A
C292   C299    1.482   .     S
C293   O408    1.384   .     S
C293   C300    1.411   .     A
C293   C297    1.405   .     A
C294   C298    1.408   .     A
C294   O409    1.383   .     S
C295   C299    1.417   .     A
C295   O410    1.385   .     S
C296   O411    1.385   .     S
C296   C299    1.414   .     A
C297   C298    1.411   .     A
C297   O413    1.385   .     S
C300   C441    1.477   1_455 S
C301   C440    1.477   .     S
C302   O420    1.415   .     S
C302   H339    1.109   .     S
C302   C304    1.519   .     S
C302   H350    1.116   .     S
C303   N399    1.389   .     A
C303   O420    1.377   .     S
C303   C330    1.418   .     A
C304   H921    1.108   .     S
C304   H932    1.111   .     S
C304   H943    1.107   .     S
C305   O402    1.416   .     S
C305   H396    1.110   .     S
C305   C306    1.522   .     S
C305   H394    1.113   .     S
C306   H397    1.111   .     S
C306   H340    1.110   .     S
C306   H1518   1.111   1_554 S
C307   H342    1.117   .     S
C307   H341    1.110   .     S
C307   O403    1.416   .     S
C307   C308    1.521   .     S
C308   H344    1.111   .     S
C308   H345    1.109   .     S
C308   H1463   1.109   1_554 S
C309   O404    1.416   .     S
C309   H347    1.111   .     S
C309   C310    1.521   .     S
C309   H346    1.114   .     S
C310   H351    1.111   .     S
C310   H349    1.110   .     S
C310   H908    1.110   .     S
C311   H353    1.116   .     S
C311   C312    1.517   .     S
C311   O405    1.411   .     S
C311   H492    1.110   1_455 S
C312   H354    1.111   .     S
C312   H1615   1.106   1_454 S
C312   H496    1.110   1_455 S
C313   H358    1.115   .     S
C313   O406    1.409   .     S
C313   C455    1.520   .     S
C313   H497    1.112   .     S
C314   O402    1.382   .     S
C314   N400    1.373   .     A
C314   C331    1.422   .     A
C315   H362    1.111   .     S
C315   H359    1.110   .     S
C315   C453    1.520   1_455 S
C315   H500    1.111   1_455 S
C316   C317    1.522   .     S
C316   H363    1.110   .     S
C316   O407    1.410   .     S
C316   H364    1.117   .     S
C317   H365    1.111   .     S
C317   H366    1.110   .     S
C317   H507    1.110   .     S
C318   H369    1.111   .     S
C318   H368    1.118   .     S
C318   O408    1.417   .     S
C318   C459    1.522   1_455 S
C319   H373    1.109   .     S
C319   H370    1.109   .     S
C319   H371    1.111   .     S
C319   C458    1.522   .     S
C320   O409    1.420   .     S
C320   C321    1.517   .     S
C320   H375    1.114   .     S
C320   H374    1.114   .     S
C321   H376    1.111   .     S
C321   H377    1.106   .     S
C321   H378    1.110   .     S
C322   H380    1.110   .     S
C322   O410    1.414   .     S
C322   C323    1.518   .     S
C322   H379    1.110   .     S
C323   H384    1.109   .     S
C323   H381    1.107   .     S
C323   H382    1.111   .     S
C324   H385    1.112   .     S
C324   O411    1.416   .     S
C324   C326    1.519   .     S
C324   H386    1.116   .     S
C325   O403    1.376   .     S
C325   N399    1.387   .     A
C325   C332    1.419   .     A
C326   H388    1.109   .     S
C326   H387    1.110   .     S
C326   H389    1.109   .     S
C327   C328    1.520   .     S
C327   O413    1.413   .     S
C327   H390    1.111   .     S
C327   H391    1.113   .     S
C328   H392    1.108   .     S
C328   H395    1.111   .     S
C328   H393    1.111   .     S
C329   O404    1.382   .     S
C329   N400    1.374   .     A
C330   Cl333   1.768   .     S
C331   Cl334   1.771   .     S
C332   Cl335   1.767   .     S
Cu337  O401    1.969   .     S
Cu337  N400    2.024   .     S
Cu337  O414    1.961   .     S
Cu337  Cu338   2.694   .     S
Cu337  O418    1.928   .     S
Cu337  O416    1.925   .     S
Cu338  O419    1.928   .     S
Cu338  O412    1.969   .     S
Cu338  O417    1.925   .     S
Cu338  O415    1.961   .     S
Cu338  N399    2.024   .     S
H343   C868    1.109   .     S
H348   C1430   1.110   1_554 S
H352   C451    1.110   .     S
H355   C1012   1.106   .     S
H356   C452    1.110   .     S
H357   C453    1.112   1_455 S
H360   C455    1.111   .     S
H361   C1424   1.108   1_554 S
H367   C457    1.110   1_455 S
H372   C1424   1.111   1_554 S
H383   C1424   1.107   1_554 S
H398   C866    1.111   .     S
C421   C438    1.471   .     S
C421   O541    1.301   .     A
C421   O555    1.301   .     A
C422   C426    1.410   .     A
C422   C469    1.419   .     A
C422   Cl476   1.767   .     S
C423   C427    1.404   .     S
C423   O556    1.289   .     A
C423   O559    1.293   .     A
C424   C428    1.404   .     S
C424   O557    1.291   .     A
C424   O558    1.292   .     A
C425   C472    1.402   .     A
C425   C470    1.402   .     A
C426   C471    1.410   .     A
C426   C145    1.516   1_565 S
C427   C1548   1.188   1_554 S
C428   C987    1.188   .     S
C429   O545    1.384   .     S
C429   C434    1.393   .     A
C429   C440    1.411   .     A
C430   C435    1.408   .     A
C430   C441    1.408   .     A
C430   O546    1.384   .     S
C431   C441    1.405   .     A
C431   O547    1.382   .     S
C431   C436    1.396   .     A
C432   O554    1.301   .     A
C432   O552    1.306   .     A
C432   C439    1.482   .     S
C433   O548    1.384   .     S
C433   C440    1.411   .     A
C433   C437    1.405   .     A
C434   C438    1.408   .     A
C434   O549    1.383   .     S
C435   C439    1.417   .     A
C435   O550    1.385   .     S
C436   O551    1.385   .     S
C436   C439    1.414   .     A
C437   C438    1.411   .     A
C437   O553    1.385   .     S
C441   C300    1.477   1_655 S
C442   O560    1.415   .     S
C442   H479    1.109   .     S
C442   C444    1.519   .     S
C442   H490    1.116   .     S
C443   N539    1.389   .     A
C443   O560    1.377   .     S
C443   C470    1.418   .     A
C444   H1061   1.108   .     S
C444   H1072   1.111   .     S
C444   H1083   1.107   .     S
C445   O542    1.416   .     S
C445   H536    1.110   .     S
C445   C446    1.522   .     S
C445   H534    1.113   .     S
C446   H537    1.111   .     S
C446   H480    1.110   .     S
C446   H1658   1.111   1_554 S
C447   H482    1.117   .     S
C447   H481    1.110   .     S
C447   O543    1.416   .     S
C447   C448    1.521   .     S
C448   H484    1.111   .     S
C448   H485    1.109   .     S
C448   H1603   1.109   1_554 S
C449   O544    1.416   .     S
C449   H487    1.111   .     S
C449   C450    1.521   .     S
C449   H486    1.114   .     S
C450   H491    1.111   .     S
C450   H489    1.110   .     S
C450   H1048   1.110   .     S
C451   H493    1.116   .     S
C451   C452    1.517   .     S
C451   O545    1.411   .     S
C452   H494    1.111   .     S
C452   H1475   1.106   1_554 S
C453   H498    1.115   .     S
C453   O546    1.409   .     S
C453   C315    1.520   1_655 S
C453   H357    1.112   1_655 S
C454   O542    1.382   .     S
C454   N540    1.373   .     A
C454   C471    1.422   .     A
C455   H502    1.111   .     S
C455   H499    1.110   .     S
C456   C457    1.522   .     S
C456   H503    1.110   .     S
C456   O547    1.410   .     S
C456   H504    1.117   .     S
C457   H505    1.111   .     S
C457   H506    1.110   .     S
C457   H367    1.110   1_655 S
C458   H509    1.111   .     S
C458   H508    1.118   .     S
C458   O548    1.417   .     S
C459   H513    1.109   .     S
C459   H510    1.109   .     S
C459   H511    1.111   .     S
C459   C318    1.522   1_655 S
C460   O549    1.420   .     S
C460   C461    1.517   .     S
C460   H515    1.114   .     S
C460   H514    1.114   .     S
C461   H516    1.111   .     S
C461   H517    1.106   .     S
C461   H518    1.110   .     S
C462   H520    1.110   .     S
C462   O550    1.414   .     S
C462   C463    1.518   .     S
C462   H519    1.110   .     S
C463   H524    1.109   .     S
C463   H521    1.107   .     S
C463   H522    1.111   .     S
C464   H525    1.112   .     S
C464   O551    1.416   .     S
C464   C466    1.519   .     S
C464   H526    1.116   .     S
C465   O543    1.376   .     S
C465   N539    1.387   .     A
C465   C472    1.419   .     A
C466   H528    1.109   .     S
C466   H527    1.110   .     S
C466   H529    1.109   .     S
C467   C468    1.520   .     S
C467   O553    1.413   .     S
C467   H530    1.111   .     S
C467   H531    1.113   .     S
C468   H532    1.108   .     S
C468   H535    1.111   .     S
C468   H533    1.111   .     S
C469   O544    1.382   .     S
C469   N540    1.374   .     A
C470   Cl473   1.768   .     S
C471   Cl474   1.771   .     S
C472   Cl475   1.767   .     S
Cu477  O541    1.969   .     S
Cu477  N540    2.024   .     S
Cu477  O554    1.961   .     S
Cu477  Cu478   2.694   .     S
Cu477  O558    1.928   .     S
Cu477  O556    1.925   .     S
Cu478  O559    1.928   .     S
Cu478  O552    1.969   .     S
Cu478  O557    1.925   .     S
Cu478  O555    1.961   .     S
Cu478  N539    2.024   .     S
H483   C1008   1.109   .     S
H488   C1570   1.110   1_554 S
H492   C311    1.110   1_655 S
H495   C872    1.106   1_655 S
H496   C312    1.110   1_655 S
H500   C315    1.111   1_655 S
H501   C1564   1.108   1_554 S
H512   C1564   1.111   1_554 S
H523   C1564   1.107   1_554 S
H538   C1006   1.111   .     S
C561   C578    1.471   .     S
C561   O681    1.301   .     A
C561   O695    1.301   .     A
C562   C566    1.410   .     A
C562   C609    1.419   .     A
C562   Cl616   1.767   .     S
C563   C567    1.404   .     S
C563   O696    1.289   .     A
C563   O699    1.293   .     A
C564   C568    1.404   .     S
C564   O697    1.291   .     A
C564   O698    1.292   .     A
C565   C612    1.402   .     A
C565   C610    1.402   .     A
C565   C846    1.516   1_545 S
C566   C611    1.410   .     A
C566   C845    1.516   .     S
C568   C1127   1.188   .     S
C569   O685    1.384   .     S
C569   C574    1.393   .     A
C569   C580    1.411   .     A
C570   C575    1.408   .     A
C570   C581    1.408   .     A
C570   O686    1.384   .     S
C571   C581    1.405   .     A
C571   O687    1.382   .     S
C571   C576    1.396   .     A
C572   O694    1.301   .     A
C572   O692    1.306   .     A
C572   C579    1.482   .     S
C573   O688    1.384   .     S
C573   C580    1.411   .     A
C573   C577    1.405   .     A
C574   C578    1.408   .     A
C574   O689    1.383   .     S
C575   C579    1.417   .     A
C575   O690    1.385   .     S
C576   O691    1.385   .     S
C576   C579    1.414   .     A
C577   C578    1.411   .     A
C577   O693    1.385   .     S
C580   C721    1.477   1_455 S
C581   C720    1.477   .     S
C582   O700    1.415   .     S
C582   H619    1.109   .     S
C582   C584    1.519   .     S
C582   H630    1.116   .     S
C583   N679    1.389   .     A
C583   O700    1.377   .     S
C583   C610    1.418   .     A
C584   H1201   1.108   .     S
C584   H1212   1.111   .     S
C584   H1223   1.107   .     S
C585   O682    1.416   .     S
C585   H676    1.110   .     S
C585   C586    1.522   .     S
C585   H674    1.113   .     S
C586   H677    1.111   .     S
C586   H620    1.110   .     S
C587   H622    1.117   .     S
C587   H621    1.110   .     S
C587   O683    1.416   .     S
C587   C588    1.521   .     S
C588   H624    1.111   .     S
C588   H625    1.109   .     S
C589   O684    1.416   .     S
C589   H627    1.111   .     S
C589   C590    1.521   .     S
C589   H626    1.114   .     S
C590   H631    1.111   .     S
C590   H629    1.110   .     S
C590   H1188   1.110   .     S
C591   H633    1.116   .     S
C591   C592    1.517   .     S
C591   O685    1.411   .     S
C591   H772    1.110   1_455 S
C592   H634    1.111   .     S
C592   H215    1.106   1_455 S
C592   H776    1.110   1_455 S
C593   H638    1.115   .     S
C593   O686    1.409   .     S
C593   C735    1.520   .     S
C593   H777    1.112   .     S
C594   O682    1.382   .     S
C594   N680    1.373   .     A
C594   C611    1.422   .     A
C595   H642    1.111   .     S
C595   H639    1.110   .     S
C595   C733    1.520   1_455 S
C595   H780    1.111   1_455 S
C596   C597    1.522   .     S
C596   H643    1.110   .     S
C596   O687    1.410   .     S
C596   H644    1.117   .     S
C597   H645    1.111   .     S
C597   H646    1.110   .     S
C597   H787    1.110   .     S
C598   H649    1.111   .     S
C598   H648    1.118   .     S
C598   O688    1.417   .     S
C598   C739    1.522   1_455 S
C599   H653    1.109   .     S
C599   H650    1.109   .     S
C599   H651    1.111   .     S
C599   C738    1.522   .     S
C600   O689    1.420   .     S
C600   C601    1.517   .     S
C600   H655    1.114   .     S
C600   H654    1.114   .     S
C601   H656    1.111   .     S
C601   H657    1.106   .     S
C601   H658    1.110   .     S
C602   H660    1.110   .     S
C602   O690    1.414   .     S
C602   C603    1.518   .     S
C602   H659    1.110   .     S
C603   H664    1.109   .     S
C603   H661    1.107   .     S
C603   H662    1.111   .     S
C604   H665    1.112   .     S
C604   O691    1.416   .     S
C604   C606    1.519   .     S
C604   H666    1.116   .     S
C605   O683    1.376   .     S
C605   N679    1.387   .     A
C605   C612    1.419   .     A
C606   H668    1.109   .     S
C606   H667    1.110   .     S
C606   H669    1.109   .     S
C607   C608    1.520   .     S
C607   O693    1.413   .     S
C607   H670    1.111   .     S
C607   H671    1.113   .     S
C608   H672    1.108   .     S
C608   H675    1.111   .     S
C608   H673    1.111   .     S
C609   O684    1.382   .     S
C609   N680    1.374   .     A
C610   Cl613   1.768   .     S
C611   Cl614   1.771   .     S
C612   Cl615   1.767   .     S
Cu617  O681    1.969   .     S
Cu617  N680    2.024   .     S
Cu617  O694    1.961   .     S
Cu617  Cu618   2.694   .     S
Cu617  O698    1.928   .     S
Cu617  O696    1.925   .     S
Cu618  O699    1.928   .     S
Cu618  O692    1.969   .     S
Cu618  O697    1.925   .     S
Cu618  O695    1.961   .     S
Cu618  N679    2.024   .     S
H623   C1148   1.109   .     S
H632   C731    1.110   .     S
H635   C1292   1.106   .     S
H636   C732    1.110   .     S
H637   C733    1.112   1_455 S
H640   C735    1.111   .     S
H647   C737    1.110   1_455 S
H678   C1146   1.111   .     S
C701   C718    1.471   .     S
C701   O821    1.301   .     A
C701   O835    1.301   .     A
C702   C706    1.410   .     A
C702   C749    1.419   .     A
C702   Cl756   1.767   .     S
C703   C707    1.404   .     S
C703   O836    1.289   .     A
C703   O839    1.293   .     A
C704   C708    1.404   .     S
C704   O837    1.291   .     A
C704   O838    1.292   .     A
C705   C752    1.402   .     A
C705   C750    1.402   .     A
C705   C986    1.516   1_545 S
C706   C751    1.410   .     A
C706   C985    1.516   .     S
C708   C1267   1.188   .     S
C709   O825    1.384   .     S
C709   C714    1.393   .     A
C709   C720    1.411   .     A
C710   C715    1.408   .     A
C710   C721    1.408   .     A
C710   O826    1.384   .     S
C711   C721    1.405   .     A
C711   O827    1.382   .     S
C711   C716    1.396   .     A
C712   O834    1.301   .     A
C712   O832    1.306   .     A
C712   C719    1.482   .     S
C713   O828    1.384   .     S
C713   C720    1.411   .     A
C713   C717    1.405   .     A
C714   C718    1.408   .     A
C714   O829    1.383   .     S
C715   C719    1.417   .     A
C715   O830    1.385   .     S
C716   O831    1.385   .     S
C716   C719    1.414   .     A
C717   C718    1.411   .     A
C717   O833    1.385   .     S
C721   C580    1.477   1_655 S
C722   O840    1.415   .     S
C722   H759    1.109   .     S
C722   C724    1.519   .     S
C722   H770    1.116   .     S
C723   N819    1.389   .     A
C723   O840    1.377   .     S
C723   C750    1.418   .     A
C724   H1341   1.108   .     S
C724   H1352   1.111   .     S
C724   H1363   1.107   .     S
C725   O822    1.416   .     S
C725   H816    1.110   .     S
C725   C726    1.522   .     S
C725   H814    1.113   .     S
C726   H817    1.111   .     S
C726   H760    1.110   .     S
C727   H762    1.117   .     S
C727   H761    1.110   .     S
C727   O823    1.416   .     S
C727   C728    1.521   .     S
C728   H764    1.111   .     S
C728   H765    1.109   .     S
C729   O824    1.416   .     S
C729   H767    1.111   .     S
C729   C730    1.521   .     S
C729   H766    1.114   .     S
C730   H771    1.111   .     S
C730   H769    1.110   .     S
C730   H1328   1.110   .     S
C731   H773    1.116   .     S
C731   C732    1.517   .     S
C731   O825    1.411   .     S
C732   H774    1.111   .     S
C733   H778    1.115   .     S
C733   O826    1.409   .     S
C733   C595    1.520   1_655 S
C733   H637    1.112   1_655 S
C734   O822    1.382   .     S
C734   N820    1.373   .     A
C734   C751    1.422   .     A
C735   H782    1.111   .     S
C735   H779    1.110   .     S
C736   C737    1.522   .     S
C736   H783    1.110   .     S
C736   O827    1.410   .     S
C736   H784    1.117   .     S
C737   H785    1.111   .     S
C737   H786    1.110   .     S
C737   H647    1.110   1_655 S
C738   H789    1.111   .     S
C738   H788    1.118   .     S
C738   O828    1.417   .     S
C739   H793    1.109   .     S
C739   H790    1.109   .     S
C739   H791    1.111   .     S
C739   C598    1.522   1_655 S
C740   O829    1.420   .     S
C740   C741    1.517   .     S
C740   H795    1.114   .     S
C740   H794    1.114   .     S
C741   H796    1.111   .     S
C741   H797    1.106   .     S
C741   H798    1.110   .     S
C742   H800    1.110   .     S
C742   O830    1.414   .     S
C742   C743    1.518   .     S
C742   H799    1.110   .     S
C743   H804    1.109   .     S
C743   H801    1.107   .     S
C743   H802    1.111   .     S
C744   H805    1.112   .     S
C744   O831    1.416   .     S
C744   C746    1.519   .     S
C744   H806    1.116   .     S
C745   O823    1.376   .     S
C745   N819    1.387   .     A
C745   C752    1.419   .     A
C746   H808    1.109   .     S
C746   H807    1.110   .     S
C746   H809    1.109   .     S
C747   C748    1.520   .     S
C747   O833    1.413   .     S
C747   H810    1.111   .     S
C747   H811    1.113   .     S
C748   H812    1.108   .     S
C748   H815    1.111   .     S
C748   H813    1.111   .     S
C749   O824    1.382   .     S
C749   N820    1.374   .     A
C750   Cl753   1.768   .     S
C751   Cl754   1.771   .     S
C752   Cl755   1.767   .     S
Cu757  O821    1.969   .     S
Cu757  N820    2.024   .     S
Cu757  O834    1.961   .     S
Cu757  Cu758   2.694   .     S
Cu757  O838    1.928   .     S
Cu757  O836    1.925   .     S
Cu758  O839    1.928   .     S
Cu758  O832    1.969   .     S
Cu758  O837    1.925   .     S
Cu758  O835    1.961   .     S
Cu758  N819    2.024   .     S
H763   C1288   1.109   .     S
H772   C591    1.110   1_655 S
H775   C1152   1.106   1_655 S
H776   C592    1.110   1_655 S
H780   C595    1.111   1_655 S
H818   C1286   1.111   .     S
C841   C858    1.471   .     S
C841   O961    1.301   .     A
C841   O975    1.301   .     A
C842   C846    1.410   .     A
C842   C889    1.419   .     A
C842   Cl896   1.767   .     S
C843   C847    1.404   .     S
C843   O976    1.289   .     A
C843   O979    1.293   .     A
C844   C848    1.404   .     S
C844   O977    1.291   .     A
C844   O978    1.292   .     A
C845   C892    1.402   .     A
C845   C890    1.402   .     A
C846   C891    1.410   .     A
C846   C565    1.516   1_565 S
C848   C1407   1.188   .     S
C849   O965    1.384   .     S
C849   C854    1.393   .     A
C849   C860    1.411   .     A
C850   C855    1.408   .     A
C850   C861    1.408   .     A
C850   O966    1.384   .     S
C851   C861    1.405   .     A
C851   O967    1.382   .     S
C851   C856    1.396   .     A
C852   O974    1.301   .     A
C852   O972    1.306   .     A
C852   C859    1.482   .     S
C853   O968    1.384   .     S
C853   C860    1.411   .     A
C853   C857    1.405   .     A
C854   C858    1.408   .     A
C854   O969    1.383   .     S
C855   C859    1.417   .     A
C855   O970    1.385   .     S
C856   O971    1.385   .     S
C856   C859    1.414   .     A
C857   C858    1.411   .     A
C857   O973    1.385   .     S
C860   C1001   1.477   1_455 S
C861   C1000   1.477   .     S
C862   O980    1.415   .     S
C862   H899    1.109   .     S
C862   C864    1.519   .     S
C862   H910    1.116   .     S
C863   N959    1.389   .     A
C863   O980    1.377   .     S
C863   C890    1.418   .     A
C864   H1481   1.108   .     S
C864   H1492   1.111   .     S
C864   H1503   1.107   .     S
C865   O962    1.416   .     S
C865   H956    1.110   .     S
C865   C866    1.522   .     S
C865   H954    1.113   .     S
C866   H957    1.111   .     S
C866   H900    1.110   .     S
C867   H902    1.117   .     S
C867   H901    1.110   .     S
C867   O963    1.416   .     S
C867   C868    1.521   .     S
C868   H904    1.111   .     S
C868   H905    1.109   .     S
C869   O964    1.416   .     S
C869   H907    1.111   .     S
C869   C870    1.521   .     S
C869   H906    1.114   .     S
C870   H911    1.111   .     S
C870   H909    1.110   .     S
C870   H1468   1.110   .     S
C871   H913    1.116   .     S
C871   C872    1.517   .     S
C871   O965    1.411   .     S
C871   H1052   1.110   1_455 S
C872   H914    1.111   .     S
C872   H495    1.106   1_455 S
C872   H1056   1.110   1_455 S
C873   H918    1.115   .     S
C873   O966    1.409   .     S
C873   C1015   1.520   .     S
C873   H1057   1.112   .     S
C874   O962    1.382   .     S
C874   N960    1.373   .     A
C874   C891    1.422   .     A
C875   H922    1.111   .     S
C875   H919    1.110   .     S
C875   C1013   1.520   1_455 S
C875   H1060   1.111   1_455 S
C876   C877    1.522   .     S
C876   H923    1.110   .     S
C876   O967    1.410   .     S
C876   H924    1.117   .     S
C877   H925    1.111   .     S
C877   H926    1.110   .     S
C877   H1067   1.110   .     S
C878   H929    1.111   .     S
C878   H928    1.118   .     S
C878   O968    1.417   .     S
C878   C1019   1.522   1_455 S
C879   H933    1.109   .     S
C879   H930    1.109   .     S
C879   H931    1.111   .     S
C879   C1018   1.522   .     S
C880   O969    1.420   .     S
C880   C881    1.517   .     S
C880   H935    1.114   .     S
C880   H934    1.114   .     S
C881   H936    1.111   .     S
C881   H937    1.106   .     S
C881   H938    1.110   .     S
C882   H940    1.110   .     S
C882   O970    1.414   .     S
C882   C883    1.518   .     S
C882   H939    1.110   .     S
C883   H944    1.109   .     S
C883   H941    1.107   .     S
C883   H942    1.111   .     S
C884   H945    1.112   .     S
C884   O971    1.416   .     S
C884   C886    1.519   .     S
C884   H946    1.116   .     S
C885   O963    1.376   .     S
C885   N959    1.387   .     A
C885   C892    1.419   .     A
C886   H948    1.109   .     S
C886   H947    1.110   .     S
C886   H949    1.109   .     S
C887   C888    1.520   .     S
C887   O973    1.413   .     S
C887   H950    1.111   .     S
C887   H951    1.113   .     S
C888   H952    1.108   .     S
C888   H955    1.111   .     S
C888   H953    1.111   .     S
C889   O964    1.382   .     S
C889   N960    1.374   .     A
C890   Cl893   1.768   .     S
C891   Cl894   1.771   .     S
C892   Cl895   1.767   .     S
Cu897  O961    1.969   .     S
Cu897  N960    2.024   .     S
Cu897  O974    1.961   .     S
Cu897  Cu898   2.694   .     S
Cu897  O978    1.928   .     S
Cu897  O976    1.925   .     S
Cu898  O979    1.928   .     S
Cu898  O972    1.969   .     S
Cu898  O977    1.925   .     S
Cu898  O975    1.961   .     S
Cu898  N959    2.024   .     S
H903   C1428   1.109   .     S
H912   C1011   1.110   .     S
H915   C1572   1.106   .     S
H916   C1012   1.110   .     S
H917   C1013   1.112   1_455 S
H920   C1015   1.111   .     S
H927   C1017   1.110   1_455 S
H958   C1426   1.111   .     S
C981   C998    1.471   .     S
C981   O1101   1.301   .     A
C981   O1115   1.301   .     A
C982   C986    1.410   .     A
C982   C1029   1.419   .     A
C982   Cl1036  1.767   .     S
C983   C987    1.404   .     S
C983   O1116   1.289   .     A
C983   O1119   1.293   .     A
C984   C988    1.404   .     S
C984   O1117   1.291   .     A
C984   O1118   1.292   .     A
C985   C1032   1.402   .     A
C985   C1030   1.402   .     A
C986   C1031   1.410   .     A
C986   C705    1.516   1_565 S
C988   C1547   1.188   .     S
C989   O1105   1.384   .     S
C989   C994    1.393   .     A
C989   C1000   1.411   .     A
C990   C995    1.408   .     A
C990   C1001   1.408   .     A
C990   O1106   1.384   .     S
C991   C1001   1.405   .     A
C991   O1107   1.382   .     S
C991   C996    1.396   .     A
C992   O1114   1.301   .     A
C992   O1112   1.306   .     A
C992   C999    1.482   .     S
C993   O1108   1.384   .     S
C993   C1000   1.411   .     A
C993   C997    1.405   .     A
C994   C998    1.408   .     A
C994   O1109   1.383   .     S
C995   C999    1.417   .     A
C995   O1110   1.385   .     S
C996   O1111   1.385   .     S
C996   C999    1.414   .     A
C997   C998    1.411   .     A
C997   O1113   1.385   .     S
C1001  C860    1.477   1_655 S
C1002  O1120   1.415   .     S
C1002  H1039   1.109   .     S
C1002  C1004   1.519   .     S
C1002  H1050   1.116   .     S
C1003  N1099   1.389   .     A
C1003  O1120   1.377   .     S
C1003  C1030   1.418   .     A
C1004  H1621   1.108   .     S
C1004  H1632   1.111   .     S
C1004  H1643   1.107   .     S
C1005  O1102   1.416   .     S
C1005  H1096   1.110   .     S
C1005  C1006   1.522   .     S
C1005  H1094   1.113   .     S
C1006  H1097   1.111   .     S
C1006  H1040   1.110   .     S
C1007  H1042   1.117   .     S
C1007  H1041   1.110   .     S
C1007  O1103   1.416   .     S
C1007  C1008   1.521   .     S
C1008  H1044   1.111   .     S
C1008  H1045   1.109   .     S
C1009  O1104   1.416   .     S
C1009  H1047   1.111   .     S
C1009  C1010   1.521   .     S
C1009  H1046   1.114   .     S
C1010  H1051   1.111   .     S
C1010  H1049   1.110   .     S
C1010  H1608   1.110   .     S
C1011  H1053   1.116   .     S
C1011  C1012   1.517   .     S
C1011  O1105   1.411   .     S
C1012  H1054   1.111   .     S
C1013  H1058   1.115   .     S
C1013  O1106   1.409   .     S
C1013  C875    1.520   1_655 S
C1013  H917    1.112   1_655 S
C1014  O1102   1.382   .     S
C1014  N1100   1.373   .     A
C1014  C1031   1.422   .     A
C1015  H1062   1.111   .     S
C1015  H1059   1.110   .     S
C1016  C1017   1.522   .     S
C1016  H1063   1.110   .     S
C1016  O1107   1.410   .     S
C1016  H1064   1.117   .     S
C1017  H1065   1.111   .     S
C1017  H1066   1.110   .     S
C1017  H927    1.110   1_655 S
C1018  H1069   1.111   .     S
C1018  H1068   1.118   .     S
C1018  O1108   1.417   .     S
C1019  H1073   1.109   .     S
C1019  H1070   1.109   .     S
C1019  H1071   1.111   .     S
C1019  C878    1.522   1_655 S
C1020  O1109   1.420   .     S
C1020  C1021   1.517   .     S
C1020  H1075   1.114   .     S
C1020  H1074   1.114   .     S
C1021  H1076   1.111   .     S
C1021  H1077   1.106   .     S
C1021  H1078   1.110   .     S
C1022  H1080   1.110   .     S
C1022  O1110   1.414   .     S
C1022  C1023   1.518   .     S
C1022  H1079   1.110   .     S
C1023  H1084   1.109   .     S
C1023  H1081   1.107   .     S
C1023  H1082   1.111   .     S
C1024  H1085   1.112   .     S
C1024  O1111   1.416   .     S
C1024  C1026   1.519   .     S
C1024  H1086   1.116   .     S
C1025  O1103   1.376   .     S
C1025  N1099   1.387   .     A
C1025  C1032   1.419   .     A
C1026  H1088   1.109   .     S
C1026  H1087   1.110   .     S
C1026  H1089   1.109   .     S
C1027  C1028   1.520   .     S
C1027  O1113   1.413   .     S
C1027  H1090   1.111   .     S
C1027  H1091   1.113   .     S
C1028  H1092   1.108   .     S
C1028  H1095   1.111   .     S
C1028  H1093   1.111   .     S
C1029  O1104   1.382   .     S
C1029  N1100   1.374   .     A
C1030  Cl1033  1.768   .     S
C1031  Cl1034  1.771   .     S
C1032  Cl1035  1.767   .     S
Cu1037 O1101   1.969   .     S
Cu1037 N1100   2.024   .     S
Cu1037 O1114   1.961   .     S
Cu1037 Cu1038  2.694   .     S
Cu1037 O1118   1.928   .     S
Cu1037 O1116   1.925   .     S
Cu1038 O1119   1.928   .     S
Cu1038 O1112   1.969   .     S
Cu1038 O1117   1.925   .     S
Cu1038 O1115   1.961   .     S
Cu1038 N1099   2.024   .     S
H1043  C1568   1.109   .     S
H1052  C871    1.110   1_655 S
H1055  C1432   1.106   1_655 S
H1056  C872    1.110   1_655 S
H1060  C875    1.111   1_655 S
H1098  C1566   1.111   .     S
C1121  C1138   1.471   .     S
C1121  O1241   1.301   .     A
C1121  O1255   1.301   .     A
C1122  C1126   1.410   .     A
C1122  C1169   1.419   .     A
C1122  Cl1176  1.767   .     S
C1123  C1127   1.404   .     S
C1123  O1256   1.289   .     A
C1123  O1259   1.293   .     A
C1124  C1128   1.404   .     S
C1124  O1257   1.291   .     A
C1124  O1258   1.292   .     A
C1125  C1172   1.402   .     A
C1125  C1170   1.402   .     A
C1125  C1406   1.516   1_545 S
C1126  C1171   1.410   .     A
C1126  C1405   1.516   .     S
C1128  C7      1.188   1_556 S
C1129  O1245   1.384   .     S
C1129  C1134   1.393   .     A
C1129  C1140   1.411   .     A
C1130  C1135   1.408   .     A
C1130  C1141   1.408   .     A
C1130  O1246   1.384   .     S
C1131  C1141   1.405   .     A
C1131  O1247   1.382   .     S
C1131  C1136   1.396   .     A
C1132  O1254   1.301   .     A
C1132  O1252   1.306   .     A
C1132  C1139   1.482   .     S
C1133  O1248   1.384   .     S
C1133  C1140   1.411   .     A
C1133  C1137   1.405   .     A
C1134  C1138   1.408   .     A
C1134  O1249   1.383   .     S
C1135  C1139   1.417   .     A
C1135  O1250   1.385   .     S
C1136  O1251   1.385   .     S
C1136  C1139   1.414   .     A
C1137  C1138   1.411   .     A
C1137  O1253   1.385   .     S
C1140  C1281   1.477   1_455 S
C1141  C1280   1.477   .     S
C1142  O1260   1.415   .     S
C1142  H1179   1.109   .     S
C1142  C1144   1.519   .     S
C1142  H1190   1.116   .     S
C1143  N1239   1.389   .     A
C1143  O1260   1.377   .     S
C1143  C1170   1.418   .     A
C1144  H81     1.108   1_556 S
C1144  H92     1.111   1_556 S
C1144  H103    1.107   1_556 S
C1145  O1242   1.416   .     S
C1145  H1236   1.110   .     S
C1145  C1146   1.522   .     S
C1145  H1234   1.113   .     S
C1146  H1237   1.111   .     S
C1146  H1180   1.110   .     S
C1147  H1182   1.117   .     S
C1147  H1181   1.110   .     S
C1147  O1243   1.416   .     S
C1147  C1148   1.521   .     S
C1148  H1184   1.111   .     S
C1148  H1185   1.109   .     S
C1149  O1244   1.416   .     S
C1149  H1187   1.111   .     S
C1149  C1150   1.521   .     S
C1149  H1186   1.114   .     S
C1150  H1191   1.111   .     S
C1150  H1189   1.110   .     S
C1150  H68     1.110   1_556 S
C1151  H1193   1.116   .     S
C1151  C1152   1.517   .     S
C1151  O1245   1.411   .     S
C1151  H1332   1.110   1_455 S
C1152  H1194   1.111   .     S
C1152  H775    1.106   1_455 S
C1152  H1336   1.110   1_455 S
C1153  H1198   1.115   .     S
C1153  O1246   1.409   .     S
C1153  C1295   1.520   .     S
C1153  H1337   1.112   .     S
C1154  O1242   1.382   .     S
C1154  N1240   1.373   .     A
C1154  C1171   1.422   .     A
C1155  H1202   1.111   .     S
C1155  H1199   1.110   .     S
C1155  C1293   1.520   1_455 S
C1155  H1340   1.111   1_455 S
C1156  C1157   1.522   .     S
C1156  H1203   1.110   .     S
C1156  O1247   1.410   .     S
C1156  H1204   1.117   .     S
C1157  H1205   1.111   .     S
C1157  H1206   1.110   .     S
C1157  H1347   1.110   .     S
C1158  H1209   1.111   .     S
C1158  H1208   1.118   .     S
C1158  O1248   1.417   .     S
C1158  C1299   1.522   1_455 S
C1159  H1213   1.109   .     S
C1159  H1210   1.109   .     S
C1159  H1211   1.111   .     S
C1159  C1298   1.522   .     S
C1160  O1249   1.420   .     S
C1160  C1161   1.517   .     S
C1160  H1215   1.114   .     S
C1160  H1214   1.114   .     S
C1161  H1216   1.111   .     S
C1161  H1217   1.106   .     S
C1161  H1218   1.110   .     S
C1162  H1220   1.110   .     S
C1162  O1250   1.414   .     S
C1162  C1163   1.518   .     S
C1162  H1219   1.110   .     S
C1163  H1224   1.109   .     S
C1163  H1221   1.107   .     S
C1163  H1222   1.111   .     S
C1164  H1225   1.112   .     S
C1164  O1251   1.416   .     S
C1164  C1166   1.519   .     S
C1164  H1226   1.116   .     S
C1165  O1243   1.376   .     S
C1165  N1239   1.387   .     A
C1165  C1172   1.419   .     A
C1166  H1228   1.109   .     S
C1166  H1227   1.110   .     S
C1166  H1229   1.109   .     S
C1167  C1168   1.520   .     S
C1167  O1253   1.413   .     S
C1167  H1230   1.111   .     S
C1167  H1231   1.113   .     S
C1168  H1232   1.108   .     S
C1168  H1235   1.111   .     S
C1168  H1233   1.111   .     S
C1169  O1244   1.382   .     S
C1169  N1240   1.374   .     A
C1170  Cl1173  1.768   .     S
C1171  Cl1174  1.771   .     S
C1172  Cl1175  1.767   .     S
Cu1177 O1241   1.969   .     S
Cu1177 N1240   2.024   .     S
Cu1177 O1254   1.961   .     S
Cu1177 Cu1178  2.694   .     S
Cu1177 O1258   1.928   .     S
Cu1177 O1256   1.925   .     S
Cu1178 O1259   1.928   .     S
Cu1178 O1252   1.969   .     S
Cu1178 O1257   1.925   .     S
Cu1178 O1255   1.961   .     S
Cu1178 N1239   2.024   .     S
H1183  C28     1.109   1_556 S
H1192  C1291   1.110   .     S
H1195  C172    1.106   1_556 S
H1196  C1292   1.110   .     S
H1197  C1293   1.112   1_455 S
H1200  C1295   1.111   .     S
H1207  C1297   1.110   1_455 S
H1238  C26     1.111   1_556 S
C1261  C1278   1.471   .     S
C1261  O1381   1.301   .     A
C1261  O1395   1.301   .     A
C1262  C1266   1.410   .     A
C1262  C1309   1.419   .     A
C1262  Cl1316  1.767   .     S
C1263  C1267   1.404   .     S
C1263  O1396   1.289   .     A
C1263  O1399   1.293   .     A
C1264  C1268   1.404   .     S
C1264  O1397   1.291   .     A
C1264  O1398   1.292   .     A
C1265  C1312   1.402   .     A
C1265  C1310   1.402   .     A
C1265  C1546   1.516   1_545 S
C1266  C1311   1.410   .     A
C1266  C1545   1.516   .     S
C1268  C147    1.188   1_556 S
C1269  O1385   1.384   .     S
C1269  C1274   1.393   .     A
C1269  C1280   1.411   .     A
C1270  C1275   1.408   .     A
C1270  C1281   1.408   .     A
C1270  O1386   1.384   .     S
C1271  C1281   1.405   .     A
C1271  O1387   1.382   .     S
C1271  C1276   1.396   .     A
C1272  O1394   1.301   .     A
C1272  O1392   1.306   .     A
C1272  C1279   1.482   .     S
C1273  O1388   1.384   .     S
C1273  C1280   1.411   .     A
C1273  C1277   1.405   .     A
C1274  C1278   1.408   .     A
C1274  O1389   1.383   .     S
C1275  C1279   1.417   .     A
C1275  O1390   1.385   .     S
C1276  O1391   1.385   .     S
C1276  C1279   1.414   .     A
C1277  C1278   1.411   .     A
C1277  O1393   1.385   .     S
C1281  C1140   1.477   1_655 S
C1282  O1400   1.415   .     S
C1282  H1319   1.109   .     S
C1282  C1284   1.519   .     S
C1282  H1330   1.116   .     S
C1283  N1379   1.389   .     A
C1283  O1400   1.377   .     S
C1283  C1310   1.418   .     A
C1284  H221    1.108   1_556 S
C1284  H232    1.111   1_556 S
C1284  H243    1.107   1_556 S
C1285  O1382   1.416   .     S
C1285  H1376   1.110   .     S
C1285  C1286   1.522   .     S
C1285  H1374   1.113   .     S
C1286  H1377   1.111   .     S
C1286  H1320   1.110   .     S
C1287  H1322   1.117   .     S
C1287  H1321   1.110   .     S
C1287  O1383   1.416   .     S
C1287  C1288   1.521   .     S
C1288  H1324   1.111   .     S
C1288  H1325   1.109   .     S
C1289  O1384   1.416   .     S
C1289  H1327   1.111   .     S
C1289  C1290   1.521   .     S
C1289  H1326   1.114   .     S
C1290  H1331   1.111   .     S
C1290  H1329   1.110   .     S
C1290  H208    1.110   1_556 S
C1291  H1333   1.116   .     S
C1291  C1292   1.517   .     S
C1291  O1385   1.411   .     S
C1292  H1334   1.111   .     S
C1293  H1338   1.115   .     S
C1293  O1386   1.409   .     S
C1293  C1155   1.520   1_655 S
C1293  H1197   1.112   1_655 S
C1294  O1382   1.382   .     S
C1294  N1380   1.373   .     A
C1294  C1311   1.422   .     A
C1295  H1342   1.111   .     S
C1295  H1339   1.110   .     S
C1296  C1297   1.522   .     S
C1296  H1343   1.110   .     S
C1296  O1387   1.410   .     S
C1296  H1344   1.117   .     S
C1297  H1345   1.111   .     S
C1297  H1346   1.110   .     S
C1297  H1207   1.110   1_655 S
C1298  H1349   1.111   .     S
C1298  H1348   1.118   .     S
C1298  O1388   1.417   .     S
C1299  H1353   1.109   .     S
C1299  H1350   1.109   .     S
C1299  H1351   1.111   .     S
C1299  C1158   1.522   1_655 S
C1300  O1389   1.420   .     S
C1300  C1301   1.517   .     S
C1300  H1355   1.114   .     S
C1300  H1354   1.114   .     S
C1301  H1356   1.111   .     S
C1301  H1357   1.106   .     S
C1301  H1358   1.110   .     S
C1302  H1360   1.110   .     S
C1302  O1390   1.414   .     S
C1302  C1303   1.518   .     S
C1302  H1359   1.110   .     S
C1303  H1364   1.109   .     S
C1303  H1361   1.107   .     S
C1303  H1362   1.111   .     S
C1304  H1365   1.112   .     S
C1304  O1391   1.416   .     S
C1304  C1306   1.519   .     S
C1304  H1366   1.116   .     S
C1305  O1383   1.376   .     S
C1305  N1379   1.387   .     A
C1305  C1312   1.419   .     A
C1306  H1368   1.109   .     S
C1306  H1367   1.110   .     S
C1306  H1369   1.109   .     S
C1307  C1308   1.520   .     S
C1307  O1393   1.413   .     S
C1307  H1370   1.111   .     S
C1307  H1371   1.113   .     S
C1308  H1372   1.108   .     S
C1308  H1375   1.111   .     S
C1308  H1373   1.111   .     S
C1309  O1384   1.382   .     S
C1309  N1380   1.374   .     A
C1310  Cl1313  1.768   .     S
C1311  Cl1314  1.771   .     S
C1312  Cl1315  1.767   .     S
Cu1317 O1381   1.969   .     S
Cu1317 N1380   2.024   .     S
Cu1317 O1394   1.961   .     S
Cu1317 Cu1318  2.694   .     S
Cu1317 O1398   1.928   .     S
Cu1317 O1396   1.925   .     S
Cu1318 O1399   1.928   .     S
Cu1318 O1392   1.969   .     S
Cu1318 O1397   1.925   .     S
Cu1318 O1395   1.961   .     S
Cu1318 N1379   2.024   .     S
H1323  C168    1.109   1_556 S
H1332  C1151   1.110   1_655 S
H1335  C32     1.106   1_656 S
H1336  C1152   1.110   1_655 S
H1340  C1155   1.111   1_655 S
H1378  C166    1.111   1_556 S
C1401  C1418   1.471   .     S
C1401  O1521   1.301   .     A
C1401  O1535   1.301   .     A
C1402  C1406   1.410   .     A
C1402  C1449   1.419   .     A
C1402  Cl1456  1.767   .     S
C1403  C1407   1.404   .     S
C1403  O1536   1.289   .     A
C1403  O1539   1.293   .     A
C1404  C1408   1.404   .     S
C1404  O1537   1.291   .     A
C1404  O1538   1.292   .     A
C1405  C1452   1.402   .     A
C1405  C1450   1.402   .     A
C1406  C1451   1.410   .     A
C1406  C1125   1.516   1_565 S
C1408  C287    1.188   1_556 S
C1409  O1525   1.384   .     S
C1409  C1414   1.393   .     A
C1409  C1420   1.411   .     A
C1410  C1415   1.408   .     A
C1410  C1421   1.408   .     A
C1410  O1526   1.384   .     S
C1411  C1421   1.405   .     A
C1411  O1527   1.382   .     S
C1411  C1416   1.396   .     A
C1412  O1534   1.301   .     A
C1412  O1532   1.306   .     A
C1412  C1419   1.482   .     S
C1413  O1528   1.384   .     S
C1413  C1420   1.411   .     A
C1413  C1417   1.405   .     A
C1414  C1418   1.408   .     A
C1414  O1529   1.383   .     S
C1415  C1419   1.417   .     A
C1415  O1530   1.385   .     S
C1416  O1531   1.385   .     S
C1416  C1419   1.414   .     A
C1417  C1418   1.411   .     A
C1417  O1533   1.385   .     S
C1420  C1561   1.477   1_455 S
C1421  C1560   1.477   .     S
C1422  O1540   1.415   .     S
C1422  H1459   1.109   .     S
C1422  C1424   1.519   .     S
C1422  H1470   1.116   .     S
C1423  N1519   1.389   .     A
C1423  O1540   1.377   .     S
C1423  C1450   1.418   .     A
C1424  H361    1.108   1_556 S
C1424  H372    1.111   1_556 S
C1424  H383    1.107   1_556 S
C1425  O1522   1.416   .     S
C1425  H1516   1.110   .     S
C1425  C1426   1.522   .     S
C1425  H1514   1.113   .     S
C1426  H1517   1.111   .     S
C1426  H1460   1.110   .     S
C1427  H1462   1.117   .     S
C1427  H1461   1.110   .     S
C1427  O1523   1.416   .     S
C1427  C1428   1.521   .     S
C1428  H1464   1.111   .     S
C1428  H1465   1.109   .     S
C1429  O1524   1.416   .     S
C1429  H1467   1.111   .     S
C1429  C1430   1.521   .     S
C1429  H1466   1.114   .     S
C1430  H1471   1.111   .     S
C1430  H1469   1.110   .     S
C1430  H348    1.110   1_556 S
C1431  H1473   1.116   .     S
C1431  C1432   1.517   .     S
C1431  O1525   1.411   .     S
C1431  H1612   1.110   1_455 S
C1432  H1474   1.111   .     S
C1432  H1055   1.106   1_455 S
C1432  H1616   1.110   1_455 S
C1433  H1478   1.115   .     S
C1433  O1526   1.409   .     S
C1433  C1575   1.520   .     S
C1433  H1617   1.112   .     S
C1434  O1522   1.382   .     S
C1434  N1520   1.373   .     A
C1434  C1451   1.422   .     A
C1435  H1482   1.111   .     S
C1435  H1479   1.110   .     S
C1435  C1573   1.520   1_455 S
C1435  H1620   1.111   1_455 S
C1436  C1437   1.522   .     S
C1436  H1483   1.110   .     S
C1436  O1527   1.410   .     S
C1436  H1484   1.117   .     S
C1437  H1485   1.111   .     S
C1437  H1486   1.110   .     S
C1437  H1627   1.110   .     S
C1438  H1489   1.111   .     S
C1438  H1488   1.118   .     S
C1438  O1528   1.417   .     S
C1438  C1579   1.522   1_455 S
C1439  H1493   1.109   .     S
C1439  H1490   1.109   .     S
C1439  H1491   1.111   .     S
C1439  C1578   1.522   .     S
C1440  O1529   1.420   .     S
C1440  C1441   1.517   .     S
C1440  H1495   1.114   .     S
C1440  H1494   1.114   .     S
C1441  H1496   1.111   .     S
C1441  H1497   1.106   .     S
C1441  H1498   1.110   .     S
C1442  H1500   1.110   .     S
C1442  O1530   1.414   .     S
C1442  C1443   1.518   .     S
C1442  H1499   1.110   .     S
C1443  H1504   1.109   .     S
C1443  H1501   1.107   .     S
C1443  H1502   1.111   .     S
C1444  H1505   1.112   .     S
C1444  O1531   1.416   .     S
C1444  C1446   1.519   .     S
C1444  H1506   1.116   .     S
C1445  O1523   1.376   .     S
C1445  N1519   1.387   .     A
C1445  C1452   1.419   .     A
C1446  H1508   1.109   .     S
C1446  H1507   1.110   .     S
C1446  H1509   1.109   .     S
C1447  C1448   1.520   .     S
C1447  O1533   1.413   .     S
C1447  H1510   1.111   .     S
C1447  H1511   1.113   .     S
C1448  H1512   1.108   .     S
C1448  H1515   1.111   .     S
C1448  H1513   1.111   .     S
C1449  O1524   1.382   .     S
C1449  N1520   1.374   .     A
C1450  Cl1453  1.768   .     S
C1451  Cl1454  1.771   .     S
C1452  Cl1455  1.767   .     S
Cu1457 O1521   1.969   .     S
Cu1457 N1520   2.024   .     S
Cu1457 O1534   1.961   .     S
Cu1457 Cu1458  2.694   .     S
Cu1457 O1538   1.928   .     S
Cu1457 O1536   1.925   .     S
Cu1458 O1539   1.928   .     S
Cu1458 O1532   1.969   .     S
Cu1458 O1537   1.925   .     S
Cu1458 O1535   1.961   .     S
Cu1458 N1519   2.024   .     S
H1463  C308    1.109   1_556 S
H1472  C1571   1.110   .     S
H1475  C452    1.106   1_556 S
H1476  C1572   1.110   .     S
H1477  C1573   1.112   1_455 S
H1480  C1575   1.111   .     S
H1487  C1577   1.110   1_455 S
H1518  C306    1.111   1_556 S
C1541  C1558   1.471   .     S
C1541  O1661   1.301   .     A
C1541  O1675   1.301   .     A
C1542  C1546   1.410   .     A
C1542  C1589   1.419   .     A
C1542  Cl1596  1.767   .     S
C1543  C1547   1.404   .     S
C1543  O1676   1.289   .     A
C1543  O1679   1.293   .     A
C1544  C1548   1.404   .     S
C1544  O1677   1.291   .     A
C1544  O1678   1.292   .     A
C1545  C1592   1.402   .     A
C1545  C1590   1.402   .     A
C1546  C1591   1.410   .     A
C1546  C1265   1.516   1_565 S
C1548  C427    1.188   1_556 S
C1549  O1665   1.384   .     S
C1549  C1554   1.393   .     A
C1549  C1560   1.411   .     A
C1550  C1555   1.408   .     A
C1550  C1561   1.408   .     A
C1550  O1666   1.384   .     S
C1551  C1561   1.405   .     A
C1551  O1667   1.382   .     S
C1551  C1556   1.396   .     A
C1552  O1674   1.301   .     A
C1552  O1672   1.306   .     A
C1552  C1559   1.482   .     S
C1553  O1668   1.384   .     S
C1553  C1560   1.411   .     A
C1553  C1557   1.405   .     A
C1554  C1558   1.408   .     A
C1554  O1669   1.383   .     S
C1555  C1559   1.417   .     A
C1555  O1670   1.385   .     S
C1556  O1671   1.385   .     S
C1556  C1559   1.414   .     A
C1557  C1558   1.411   .     A
C1557  O1673   1.385   .     S
C1561  C1420   1.477   1_655 S
C1562  O1680   1.415   .     S
C1562  H1599   1.109   .     S
C1562  C1564   1.519   .     S
C1562  H1610   1.116   .     S
C1563  N1659   1.389   .     A
C1563  O1680   1.377   .     S
C1563  C1590   1.418   .     A
C1564  H501    1.108   1_556 S
C1564  H512    1.111   1_556 S
C1564  H523    1.107   1_556 S
C1565  O1662   1.416   .     S
C1565  H1656   1.110   .     S
C1565  C1566   1.522   .     S
C1565  H1654   1.113   .     S
C1566  H1657   1.111   .     S
C1566  H1600   1.110   .     S
C1567  H1602   1.117   .     S
C1567  H1601   1.110   .     S
C1567  O1663   1.416   .     S
C1567  C1568   1.521   .     S
C1568  H1604   1.111   .     S
C1568  H1605   1.109   .     S
C1569  O1664   1.416   .     S
C1569  H1607   1.111   .     S
C1569  C1570   1.521   .     S
C1569  H1606   1.114   .     S
C1570  H1611   1.111   .     S
C1570  H1609   1.110   .     S
C1570  H488    1.110   1_556 S
C1571  H1613   1.116   .     S
C1571  C1572   1.517   .     S
C1571  O1665   1.411   .     S
C1572  H1614   1.111   .     S
C1573  H1618   1.115   .     S
C1573  O1666   1.409   .     S
C1573  C1435   1.520   1_655 S
C1573  H1477   1.112   1_655 S
C1574  O1662   1.382   .     S
C1574  N1660   1.373   .     A
C1574  C1591   1.422   .     A
C1575  H1622   1.111   .     S
C1575  H1619   1.110   .     S
C1576  C1577   1.522   .     S
C1576  H1623   1.110   .     S
C1576  O1667   1.410   .     S
C1576  H1624   1.117   .     S
C1577  H1625   1.111   .     S
C1577  H1626   1.110   .     S
C1577  H1487   1.110   1_655 S
C1578  H1629   1.111   .     S
C1578  H1628   1.118   .     S
C1578  O1668   1.417   .     S
C1579  H1633   1.109   .     S
C1579  H1630   1.109   .     S
C1579  H1631   1.111   .     S
C1579  C1438   1.522   1_655 S
C1580  O1669   1.420   .     S
C1580  C1581   1.517   .     S
C1580  H1635   1.114   .     S
C1580  H1634   1.114   .     S
C1581  H1636   1.111   .     S
C1581  H1637   1.106   .     S
C1581  H1638   1.110   .     S
C1582  H1640   1.110   .     S
C1582  O1670   1.414   .     S
C1582  C1583   1.518   .     S
C1582  H1639   1.110   .     S
C1583  H1644   1.109   .     S
C1583  H1641   1.107   .     S
C1583  H1642   1.111   .     S
C1584  H1645   1.112   .     S
C1584  O1671   1.416   .     S
C1584  C1586   1.519   .     S
C1584  H1646   1.116   .     S
C1585  O1663   1.376   .     S
C1585  N1659   1.387   .     A
C1585  C1592   1.419   .     A
C1586  H1648   1.109   .     S
C1586  H1647   1.110   .     S
C1586  H1649   1.109   .     S
C1587  C1588   1.520   .     S
C1587  O1673   1.413   .     S
C1587  H1650   1.111   .     S
C1587  H1651   1.113   .     S
C1588  H1652   1.108   .     S
C1588  H1655   1.111   .     S
C1588  H1653   1.111   .     S
C1589  O1664   1.382   .     S
C1589  N1660   1.374   .     A
C1590  Cl1593  1.768   .     S
C1591  Cl1594  1.771   .     S
C1592  Cl1595  1.767   .     S
Cu1597 O1661   1.969   .     S
Cu1597 N1660   2.024   .     S
Cu1597 O1674   1.961   .     S
Cu1597 Cu1598  2.694   .     S
Cu1597 O1678   1.928   .     S
Cu1597 O1676   1.925   .     S
Cu1598 O1679   1.928   .     S
Cu1598 O1672   1.969   .     S
Cu1598 O1677   1.925   .     S
Cu1598 O1675   1.961   .     S
Cu1598 N1659   2.024   .     S
H1603  C448    1.109   1_556 S
H1612  C1431   1.110   1_655 S
H1615  C312    1.106   1_656 S
H1616  C1432   1.110   1_655 S
H1620  C1435   1.111   1_655 S
H1658  C446    1.111   1_556 S
