data_str_m2_o1_o18_pcu_sym.107
_audit_creation_date              2020-01-03
_audit_creation_method            'Materials Studio'
_symmetry_space_group_name_H-M    'P1'
_symmetry_Int_Tables_number       1
_symmetry_cell_setting            triclinic
loop_
_symmetry_equiv_pos_as_xyz
  x,y,z
_cell_length_a                    28.5676
_cell_length_b                    32.4728
_cell_length_c                    31.1560
_cell_angle_alpha                 89.8701
_cell_angle_beta                  74.0030
_cell_angle_gamma                 89.9933
loop_
_atom_site_label
_atom_site_type_symbol
_atom_site_fract_x
_atom_site_fract_y
_atom_site_fract_z
_atom_site_U_iso_or_equiv
_atom_site_adp_type
_atom_site_occupancy
C1     C     0.00002   0.08736   0.24991   0.00000  Uiso   1.00
C2     C     0.00006   0.24596   0.24985   0.00000  Uiso   1.00
C3     C     0.19582   0.16540   0.04851   0.00000  Uiso   1.00
C4     C     0.14427   0.13482   0.45773   0.00000  Uiso   1.00
C5     C     0.24525   0.16555   0.02602   0.00000  Uiso   1.00
C6     C     0.09687   0.12500   0.48149   0.00000  Uiso   1.00
C7     C     0.28970   0.02126   0.25470   0.00000  Uiso   1.00
C8     C     0.04389   0.31203   0.24434   0.00000  Uiso   1.00
C9     C     0.28971   0.31200   0.25471   0.00000  Uiso   1.00
C10    C     0.04387   0.02129   0.24441   0.00000  Uiso   1.00
C11    C     0.00012   0.29057   0.24961   0.00000  Uiso   1.00
C12    C     0.00009   0.04273   0.24967   0.00000  Uiso   1.00
C13    C     0.18735   0.13270   0.26350   0.00000  Uiso   1.00
C14    C     0.14581   0.20079   0.23714   0.00000  Uiso   1.00
C15    C     0.13786   0.13269   0.26344   0.00000  Uiso   1.00
C16    C     0.19545   0.20065   0.23662   0.00000  Uiso   1.00
C17    C     0.30573   0.16765   0.33618   0.00000  Uiso   1.00
C18    C     0.02746   0.16654   0.16399   0.00000  Uiso   1.00
C19    C     0.29001   0.16761   0.38560   0.00000  Uiso   1.00
C20    C     0.04293   0.16066   0.11542   0.00000  Uiso   1.00
C21    C     0.30980   0.16476   0.45664   0.00000  Uiso   1.00
C22    C     0.03158   0.12641   0.04996   0.00000  Uiso   1.00
C23    C     0.32461   0.16397   0.41016   0.00000  Uiso   1.00
C24    C     0.01421   0.13680   0.09480   0.00000  Uiso   1.00
C25    C     0.23989   0.17080   0.40892   0.00000  Uiso   1.00
C26    C     0.08926   0.17452   0.09035   0.00000  Uiso   1.00
C27    C     0.22520   0.16237   0.45523   0.00000  Uiso   1.00
C28    C     0.11001   0.15743   0.04761   0.00000  Uiso   1.00
C29    C     0.26030   0.16422   0.47942   0.00000  Uiso   1.00
C30    C     0.07927   0.13639   0.02621   0.00000  Uiso   1.00
C31    C     0.17609   0.15434   0.47862   0.00000  Uiso   1.00
C32    C     0.16030   0.16093   0.02516   0.00000  Uiso   1.00
Cu33   Cu    0.04689   0.16667   0.25000   0.00000  Uiso   1.00
Cu34   Cu    0.28645   0.16666   0.25000   0.00000  Uiso   1.00
H35    H     0.27166   0.16714   0.04512   0.00000  Uiso   1.00
H36    H     0.07398   0.10843   0.46483   0.00000  Uiso   1.00
H37    H     0.00376   0.16496   0.47480   0.00000  Uiso   1.00
H38    H     0.00837   0.10908   0.03428   0.00000  Uiso   1.00
H39    H     0.18607   0.16458   0.08441   0.00000  Uiso   1.00
H40    H     0.15724   0.12330   0.42417   0.00000  Uiso   1.00
H41    H     0.25548   0.03727   0.25889   0.00000  Uiso   1.00
H42    H     0.07812   0.29601   0.24007   0.00000  Uiso   1.00
H43    H     0.25548   0.29595   0.25896   0.00000  Uiso   1.00
H44    H     0.07808   0.03734   0.24021   0.00000  Uiso   1.00
H45    H     0.20227   0.10558   0.27493   0.00000  Uiso   1.00
H46    H     0.13038   0.22833   0.22730   0.00000  Uiso   1.00
H47    H     0.11609   0.10553   0.27474   0.00000  Uiso   1.00
H48    H     0.21709   0.22793   0.22562   0.00000  Uiso   1.00
N49    N     0.11736   0.16668   0.24999   0.00000  Uiso   1.00
N50    N     0.21597   0.16666   0.25001   0.00000  Uiso   1.00
O51    O     0.03958   0.10655   0.25000   0.00000  Uiso   1.00
O52    O     0.29375   0.22678   0.25000   0.00000  Uiso   1.00
O53    O     0.29372   0.10654   0.25001   0.00000  Uiso   1.00
O54    O     0.03961   0.22679   0.25000   0.00000  Uiso   1.00
O55    O     0.01852   0.16668   0.31492   0.00000  Uiso   1.00
O56    O     0.31481   0.16666   0.18509   0.00000  Uiso   1.00
O57    O     0.27267   0.16667   0.31492   0.00000  Uiso   1.00
O58    O     0.06067   0.16667   0.18508   0.00000  Uiso   1.00
C59    C     0.10574   0.21608   0.10031   0.00000  Uiso   1.00
C60    C     0.13310   0.22227   0.13096   0.00000  Uiso   1.00
C61    C     0.14817   0.26192   0.13867   0.00000  Uiso   1.00
C62    C     0.13529   0.29573   0.11660   0.00000  Uiso   1.00
C63    C     0.10783   0.28995   0.08633   0.00000  Uiso   1.00
C64    C     0.09328   0.25035   0.07807   0.00000  Uiso   1.00
H65    H     0.14360   0.19646   0.14820   0.00000  Uiso   1.00
H66    H     0.17005   0.26651   0.16161   0.00000  Uiso   1.00
H67    H     0.14676   0.32639   0.12282   0.00000  Uiso   1.00
H68    H     0.09795   0.31615   0.06913   0.00000  Uiso   1.00
H69    H     0.07214   0.24632   0.05437   0.00000  Uiso   1.00
C70    C     0.20742   0.19788   0.39096   0.00000  Uiso   1.00
C71    C     0.17757   0.18260   0.36547   0.00000  Uiso   1.00
C72    C     0.14565   0.20888   0.35178   0.00000  Uiso   1.00
C73    C     0.14411   0.25072   0.36223   0.00000  Uiso   1.00
C74    C     0.17419   0.26636   0.38684   0.00000  Uiso   1.00
C75    C     0.20548   0.24007   0.40136   0.00000  Uiso   1.00
H76    H     0.17901   0.15048   0.35611   0.00000  Uiso   1.00
H77    H     0.12202   0.19683   0.33307   0.00000  Uiso   1.00
H78    H     0.11957   0.27100   0.35130   0.00000  Uiso   1.00
H79    H     0.17297   0.29879   0.39500   0.00000  Uiso   1.00
H80    H     0.22811   0.25252   0.42097   0.00000  Uiso   1.00
F81    F     0.30274   0.12322   0.11800   0.00000  Uiso   1.00
F82    F     0.03968   0.16161   0.38951   0.00000  Uiso   1.00
C83    C     0.33335   0.08736   0.24991   0.00000  Uiso   1.00
C84    C     0.33339   0.24596   0.24985   0.00000  Uiso   1.00
C85    C     0.52915   0.16540   0.04851   0.00000  Uiso   1.00
C86    C     0.47760   0.13482   0.45773   0.00000  Uiso   1.00
C87    C     0.57859   0.16555   0.02602   0.00000  Uiso   1.00
C88    C     0.43021   0.12500   0.48149   0.00000  Uiso   1.00
C89    C     0.62304   0.02126   0.25470   0.00000  Uiso   1.00
C90    C     0.37722   0.31203   0.24434   0.00000  Uiso   1.00
C91    C     0.62304   0.31200   0.25471   0.00000  Uiso   1.00
C92    C     0.37720   0.02129   0.24441   0.00000  Uiso   1.00
C93    C     0.33345   0.29057   0.24961   0.00000  Uiso   1.00
C94    C     0.33343   0.04273   0.24967   0.00000  Uiso   1.00
C95    C     0.52068   0.13270   0.26350   0.00000  Uiso   1.00
C96    C     0.47915   0.20079   0.23714   0.00000  Uiso   1.00
C97    C     0.47120   0.13269   0.26344   0.00000  Uiso   1.00
C98    C     0.52878   0.20065   0.23662   0.00000  Uiso   1.00
C99    C     0.63907   0.16765   0.33618   0.00000  Uiso   1.00
C100   C     0.36079   0.16654   0.16399   0.00000  Uiso   1.00
C101   C     0.62334   0.16761   0.38560   0.00000  Uiso   1.00
C102   C     0.37627   0.16066   0.11542   0.00000  Uiso   1.00
C103   C     0.64313   0.16476   0.45664   0.00000  Uiso   1.00
C104   C     0.36492   0.12641   0.04996   0.00000  Uiso   1.00
C105   C     0.65794   0.16397   0.41016   0.00000  Uiso   1.00
C106   C     0.34754   0.13680   0.09480   0.00000  Uiso   1.00
C107   C     0.57322   0.17080   0.40892   0.00000  Uiso   1.00
C108   C     0.42260   0.17452   0.09035   0.00000  Uiso   1.00
C109   C     0.55854   0.16237   0.45523   0.00000  Uiso   1.00
C110   C     0.44334   0.15743   0.04761   0.00000  Uiso   1.00
C111   C     0.59363   0.16422   0.47942   0.00000  Uiso   1.00
C112   C     0.41261   0.13639   0.02621   0.00000  Uiso   1.00
C113   C     0.50942   0.15434   0.47862   0.00000  Uiso   1.00
C114   C     0.49364   0.16093   0.02516   0.00000  Uiso   1.00
Cu115  Cu    0.38022   0.16667   0.25000   0.00000  Uiso   1.00
Cu116  Cu    0.61978   0.16666   0.25000   0.00000  Uiso   1.00
H117   H     0.60500   0.16714   0.04512   0.00000  Uiso   1.00
H118   H     0.40731   0.10843   0.46483   0.00000  Uiso   1.00
H119   H     0.33709   0.16496   0.47480   0.00000  Uiso   1.00
H120   H     0.34170   0.10908   0.03428   0.00000  Uiso   1.00
H121   H     0.51940   0.16458   0.08441   0.00000  Uiso   1.00
H122   H     0.49057   0.12330   0.42417   0.00000  Uiso   1.00
H123   H     0.58882   0.03727   0.25889   0.00000  Uiso   1.00
H124   H     0.41145   0.29601   0.24007   0.00000  Uiso   1.00
H125   H     0.58881   0.29595   0.25896   0.00000  Uiso   1.00
H126   H     0.41141   0.03734   0.24021   0.00000  Uiso   1.00
H127   H     0.53561   0.10558   0.27493   0.00000  Uiso   1.00
H128   H     0.46372   0.22833   0.22730   0.00000  Uiso   1.00
H129   H     0.44942   0.10553   0.27474   0.00000  Uiso   1.00
H130   H     0.55043   0.22793   0.22562   0.00000  Uiso   1.00
N131   N     0.45069   0.16668   0.24999   0.00000  Uiso   1.00
N132   N     0.54931   0.16666   0.25001   0.00000  Uiso   1.00
O133   O     0.37291   0.10655   0.25000   0.00000  Uiso   1.00
O134   O     0.62709   0.22678   0.25000   0.00000  Uiso   1.00
O135   O     0.62706   0.10654   0.25001   0.00000  Uiso   1.00
O136   O     0.37294   0.22679   0.25000   0.00000  Uiso   1.00
O137   O     0.35186   0.16668   0.31492   0.00000  Uiso   1.00
O138   O     0.64814   0.16666   0.18509   0.00000  Uiso   1.00
O139   O     0.60600   0.16667   0.31492   0.00000  Uiso   1.00
O140   O     0.39400   0.16667   0.18508   0.00000  Uiso   1.00
C141   C     0.43908   0.21608   0.10031   0.00000  Uiso   1.00
C142   C     0.46643   0.22227   0.13096   0.00000  Uiso   1.00
C143   C     0.48150   0.26192   0.13867   0.00000  Uiso   1.00
C144   C     0.46862   0.29573   0.11660   0.00000  Uiso   1.00
C145   C     0.44116   0.28995   0.08633   0.00000  Uiso   1.00
C146   C     0.42661   0.25035   0.07807   0.00000  Uiso   1.00
H147   H     0.47693   0.19646   0.14820   0.00000  Uiso   1.00
H148   H     0.50338   0.26651   0.16161   0.00000  Uiso   1.00
H149   H     0.48010   0.32639   0.12282   0.00000  Uiso   1.00
H150   H     0.43128   0.31615   0.06913   0.00000  Uiso   1.00
H151   H     0.40547   0.24632   0.05437   0.00000  Uiso   1.00
C152   C     0.54075   0.19788   0.39096   0.00000  Uiso   1.00
C153   C     0.51091   0.18260   0.36547   0.00000  Uiso   1.00
C154   C     0.47898   0.20888   0.35178   0.00000  Uiso   1.00
C155   C     0.47744   0.25072   0.36223   0.00000  Uiso   1.00
C156   C     0.50752   0.26636   0.38684   0.00000  Uiso   1.00
C157   C     0.53882   0.24007   0.40136   0.00000  Uiso   1.00
H158   H     0.51235   0.15048   0.35611   0.00000  Uiso   1.00
H159   H     0.45535   0.19683   0.33307   0.00000  Uiso   1.00
H160   H     0.45290   0.27100   0.35130   0.00000  Uiso   1.00
H161   H     0.50630   0.29879   0.39500   0.00000  Uiso   1.00
H162   H     0.56145   0.25252   0.42097   0.00000  Uiso   1.00
F163   F     0.63607   0.12322   0.11800   0.00000  Uiso   1.00
F164   F     0.37301   0.16161   0.38951   0.00000  Uiso   1.00
C165   C     0.66669   0.08736   0.24991   0.00000  Uiso   1.00
C166   C     0.66673   0.24596   0.24985   0.00000  Uiso   1.00
C167   C     0.86248   0.16540   0.04851   0.00000  Uiso   1.00
C168   C     0.81093   0.13482   0.45773   0.00000  Uiso   1.00
C169   C     0.91192   0.16555   0.02602   0.00000  Uiso   1.00
C170   C     0.76354   0.12500   0.48149   0.00000  Uiso   1.00
C171   C     0.95637   0.02126   0.25470   0.00000  Uiso   1.00
C172   C     0.71056   0.31203   0.24434   0.00000  Uiso   1.00
C173   C     0.95637   0.31200   0.25471   0.00000  Uiso   1.00
C174   C     0.71053   0.02129   0.24441   0.00000  Uiso   1.00
C175   C     0.66679   0.29057   0.24961   0.00000  Uiso   1.00
C176   C     0.66676   0.04273   0.24967   0.00000  Uiso   1.00
C177   C     0.85401   0.13270   0.26350   0.00000  Uiso   1.00
C178   C     0.81248   0.20079   0.23714   0.00000  Uiso   1.00
C179   C     0.80453   0.13269   0.26344   0.00000  Uiso   1.00
C180   C     0.86211   0.20065   0.23662   0.00000  Uiso   1.00
C181   C     0.97240   0.16765   0.33618   0.00000  Uiso   1.00
C182   C     0.69413   0.16654   0.16399   0.00000  Uiso   1.00
C183   C     0.95667   0.16761   0.38560   0.00000  Uiso   1.00
C184   C     0.70960   0.16066   0.11542   0.00000  Uiso   1.00
C185   C     0.97646   0.16476   0.45664   0.00000  Uiso   1.00
C186   C     0.69825   0.12641   0.04996   0.00000  Uiso   1.00
C187   C     0.99127   0.16397   0.41016   0.00000  Uiso   1.00
C188   C     0.68088   0.13680   0.09480   0.00000  Uiso   1.00
C189   C     0.90655   0.17080   0.40892   0.00000  Uiso   1.00
C190   C     0.75593   0.17452   0.09035   0.00000  Uiso   1.00
C191   C     0.89187   0.16237   0.45523   0.00000  Uiso   1.00
C192   C     0.77668   0.15743   0.04761   0.00000  Uiso   1.00
C193   C     0.92696   0.16422   0.47942   0.00000  Uiso   1.00
C194   C     0.74594   0.13639   0.02621   0.00000  Uiso   1.00
C195   C     0.84276   0.15434   0.47862   0.00000  Uiso   1.00
C196   C     0.82697   0.16093   0.02516   0.00000  Uiso   1.00
Cu197  Cu    0.71355   0.16667   0.25000   0.00000  Uiso   1.00
Cu198  Cu    0.95311   0.16666   0.25000   0.00000  Uiso   1.00
H199   H     0.93833   0.16714   0.04512   0.00000  Uiso   1.00
H200   H     0.74065   0.10843   0.46483   0.00000  Uiso   1.00
H201   H     0.67043   0.16496   0.47480   0.00000  Uiso   1.00
H202   H     0.67503   0.10908   0.03428   0.00000  Uiso   1.00
H203   H     0.85273   0.16458   0.08441   0.00000  Uiso   1.00
H204   H     0.82391   0.12330   0.42417   0.00000  Uiso   1.00
H205   H     0.92215   0.03727   0.25889   0.00000  Uiso   1.00
H206   H     0.74479   0.29601   0.24007   0.00000  Uiso   1.00
H207   H     0.92215   0.29595   0.25896   0.00000  Uiso   1.00
H208   H     0.74475   0.03734   0.24021   0.00000  Uiso   1.00
H209   H     0.86894   0.10558   0.27493   0.00000  Uiso   1.00
H210   H     0.79705   0.22833   0.22730   0.00000  Uiso   1.00
H211   H     0.78276   0.10553   0.27474   0.00000  Uiso   1.00
H212   H     0.88376   0.22793   0.22562   0.00000  Uiso   1.00
N213   N     0.78403   0.16668   0.24999   0.00000  Uiso   1.00
N214   N     0.88264   0.16666   0.25001   0.00000  Uiso   1.00
O215   O     0.70625   0.10655   0.25000   0.00000  Uiso   1.00
O216   O     0.96042   0.22678   0.25000   0.00000  Uiso   1.00
O217   O     0.96039   0.10654   0.25001   0.00000  Uiso   1.00
O218   O     0.70628   0.22679   0.25000   0.00000  Uiso   1.00
O219   O     0.68519   0.16668   0.31492   0.00000  Uiso   1.00
O220   O     0.98148   0.16666   0.18509   0.00000  Uiso   1.00
O221   O     0.93933   0.16667   0.31492   0.00000  Uiso   1.00
O222   O     0.72733   0.16667   0.18508   0.00000  Uiso   1.00
C223   C     0.77241   0.21608   0.10031   0.00000  Uiso   1.00
C224   C     0.79977   0.22227   0.13096   0.00000  Uiso   1.00
C225   C     0.81484   0.26192   0.13867   0.00000  Uiso   1.00
C226   C     0.80196   0.29573   0.11660   0.00000  Uiso   1.00
C227   C     0.77450   0.28995   0.08633   0.00000  Uiso   1.00
C228   C     0.75995   0.25035   0.07807   0.00000  Uiso   1.00
H229   H     0.81026   0.19646   0.14820   0.00000  Uiso   1.00
H230   H     0.83671   0.26651   0.16161   0.00000  Uiso   1.00
H231   H     0.81343   0.32639   0.12282   0.00000  Uiso   1.00
H232   H     0.76461   0.31615   0.06913   0.00000  Uiso   1.00
H233   H     0.73880   0.24632   0.05437   0.00000  Uiso   1.00
C234   C     0.87409   0.19788   0.39096   0.00000  Uiso   1.00
C235   C     0.84424   0.18260   0.36547   0.00000  Uiso   1.00
C236   C     0.81232   0.20888   0.35178   0.00000  Uiso   1.00
C237   C     0.81078   0.25072   0.36223   0.00000  Uiso   1.00
C238   C     0.84085   0.26636   0.38684   0.00000  Uiso   1.00
C239   C     0.87215   0.24007   0.40136   0.00000  Uiso   1.00
H240   H     0.84568   0.15048   0.35611   0.00000  Uiso   1.00
H241   H     0.78869   0.19683   0.33307   0.00000  Uiso   1.00
H242   H     0.78623   0.27100   0.35130   0.00000  Uiso   1.00
H243   H     0.83964   0.29879   0.39500   0.00000  Uiso   1.00
H244   H     0.89478   0.25252   0.42097   0.00000  Uiso   1.00
F245   F     0.96941   0.12322   0.11800   0.00000  Uiso   1.00
F246   F     0.70635   0.16161   0.38951   0.00000  Uiso   1.00
C247   C     0.00002   0.42069   0.24991   0.00000  Uiso   1.00
C248   C     0.00006   0.57930   0.24985   0.00000  Uiso   1.00
C249   C     0.19582   0.49873   0.04851   0.00000  Uiso   1.00
C250   C     0.14427   0.46816   0.45773   0.00000  Uiso   1.00
C251   C     0.24525   0.49888   0.02602   0.00000  Uiso   1.00
C252   C     0.09687   0.45833   0.48149   0.00000  Uiso   1.00
C253   C     0.28970   0.35459   0.25470   0.00000  Uiso   1.00
C254   C     0.04389   0.64536   0.24434   0.00000  Uiso   1.00
C255   C     0.28971   0.64533   0.25471   0.00000  Uiso   1.00
C256   C     0.04387   0.35463   0.24441   0.00000  Uiso   1.00
C257   C     0.00012   0.62390   0.24961   0.00000  Uiso   1.00
C258   C     0.00009   0.37607   0.24967   0.00000  Uiso   1.00
C259   C     0.18735   0.46603   0.26350   0.00000  Uiso   1.00
C260   C     0.14581   0.53412   0.23714   0.00000  Uiso   1.00
C261   C     0.13786   0.46602   0.26344   0.00000  Uiso   1.00
C262   C     0.19545   0.53398   0.23662   0.00000  Uiso   1.00
C263   C     0.30573   0.50098   0.33618   0.00000  Uiso   1.00
C264   C     0.02746   0.49987   0.16399   0.00000  Uiso   1.00
C265   C     0.29001   0.50095   0.38560   0.00000  Uiso   1.00
C266   C     0.04293   0.49399   0.11542   0.00000  Uiso   1.00
C267   C     0.30980   0.49809   0.45664   0.00000  Uiso   1.00
C268   C     0.03158   0.45974   0.04996   0.00000  Uiso   1.00
C269   C     0.32461   0.49730   0.41016   0.00000  Uiso   1.00
C270   C     0.01421   0.47013   0.09480   0.00000  Uiso   1.00
C271   C     0.23989   0.50413   0.40892   0.00000  Uiso   1.00
C272   C     0.08926   0.50785   0.09035   0.00000  Uiso   1.00
C273   C     0.22520   0.49571   0.45523   0.00000  Uiso   1.00
C274   C     0.11001   0.49076   0.04761   0.00000  Uiso   1.00
C275   C     0.26030   0.49755   0.47942   0.00000  Uiso   1.00
C276   C     0.07927   0.46972   0.02621   0.00000  Uiso   1.00
C277   C     0.17609   0.48767   0.47862   0.00000  Uiso   1.00
C278   C     0.16030   0.49427   0.02516   0.00000  Uiso   1.00
Cu279  Cu    0.04689   0.50001   0.25000   0.00000  Uiso   1.00
Cu280  Cu    0.28645   0.49999   0.25000   0.00000  Uiso   1.00
H281   H     0.27166   0.50048   0.04512   0.00000  Uiso   1.00
H282   H     0.07398   0.44177   0.46483   0.00000  Uiso   1.00
H283   H     0.00376   0.49829   0.47480   0.00000  Uiso   1.00
H284   H     0.00837   0.44241   0.03428   0.00000  Uiso   1.00
H285   H     0.18607   0.49792   0.08441   0.00000  Uiso   1.00
H286   H     0.15724   0.45663   0.42417   0.00000  Uiso   1.00
H287   H     0.25548   0.37060   0.25889   0.00000  Uiso   1.00
H288   H     0.07812   0.62934   0.24007   0.00000  Uiso   1.00
H289   H     0.25548   0.62929   0.25896   0.00000  Uiso   1.00
H290   H     0.07808   0.37068   0.24021   0.00000  Uiso   1.00
H291   H     0.20227   0.43891   0.27493   0.00000  Uiso   1.00
H292   H     0.13038   0.56166   0.22730   0.00000  Uiso   1.00
H293   H     0.11609   0.43886   0.27474   0.00000  Uiso   1.00
H294   H     0.21709   0.56126   0.22562   0.00000  Uiso   1.00
N295   N     0.11736   0.50001   0.24999   0.00000  Uiso   1.00
N296   N     0.21597   0.49999   0.25001   0.00000  Uiso   1.00
O297   O     0.03958   0.43989   0.25000   0.00000  Uiso   1.00
O298   O     0.29375   0.56011   0.25000   0.00000  Uiso   1.00
O299   O     0.29372   0.43988   0.25001   0.00000  Uiso   1.00
O300   O     0.03961   0.56012   0.25000   0.00000  Uiso   1.00
O301   O     0.01852   0.50001   0.31492   0.00000  Uiso   1.00
O302   O     0.31481   0.49999   0.18509   0.00000  Uiso   1.00
O303   O     0.27267   0.50000   0.31492   0.00000  Uiso   1.00
O304   O     0.06067   0.50000   0.18508   0.00000  Uiso   1.00
C305   C     0.10574   0.54942   0.10031   0.00000  Uiso   1.00
C306   C     0.13310   0.55560   0.13096   0.00000  Uiso   1.00
C307   C     0.14817   0.59525   0.13867   0.00000  Uiso   1.00
C308   C     0.13529   0.62907   0.11660   0.00000  Uiso   1.00
C309   C     0.10783   0.62329   0.08633   0.00000  Uiso   1.00
C310   C     0.09328   0.58368   0.07807   0.00000  Uiso   1.00
H311   H     0.14360   0.52979   0.14820   0.00000  Uiso   1.00
H312   H     0.17005   0.59984   0.16161   0.00000  Uiso   1.00
H313   H     0.14676   0.65972   0.12282   0.00000  Uiso   1.00
H314   H     0.09795   0.64948   0.06913   0.00000  Uiso   1.00
H315   H     0.07214   0.57965   0.05437   0.00000  Uiso   1.00
C316   C     0.20742   0.53121   0.39096   0.00000  Uiso   1.00
C317   C     0.17757   0.51593   0.36547   0.00000  Uiso   1.00
C318   C     0.14565   0.54221   0.35178   0.00000  Uiso   1.00
C319   C     0.14411   0.58406   0.36223   0.00000  Uiso   1.00
C320   C     0.17419   0.59969   0.38684   0.00000  Uiso   1.00
C321   C     0.20548   0.57340   0.40136   0.00000  Uiso   1.00
H322   H     0.17901   0.48381   0.35611   0.00000  Uiso   1.00
H323   H     0.12202   0.53016   0.33307   0.00000  Uiso   1.00
H324   H     0.11957   0.60434   0.35130   0.00000  Uiso   1.00
H325   H     0.17297   0.63212   0.39500   0.00000  Uiso   1.00
H326   H     0.22811   0.58585   0.42097   0.00000  Uiso   1.00
F327   F     0.30274   0.45655   0.11800   0.00000  Uiso   1.00
F328   F     0.03968   0.49494   0.38951   0.00000  Uiso   1.00
C329   C     0.33335   0.42069   0.24991   0.00000  Uiso   1.00
C330   C     0.33339   0.57930   0.24985   0.00000  Uiso   1.00
C331   C     0.52915   0.49873   0.04851   0.00000  Uiso   1.00
C332   C     0.47760   0.46816   0.45773   0.00000  Uiso   1.00
C333   C     0.57859   0.49888   0.02602   0.00000  Uiso   1.00
C334   C     0.43021   0.45833   0.48149   0.00000  Uiso   1.00
C335   C     0.62304   0.35459   0.25470   0.00000  Uiso   1.00
C336   C     0.37722   0.64536   0.24434   0.00000  Uiso   1.00
C337   C     0.62304   0.64533   0.25471   0.00000  Uiso   1.00
C338   C     0.37720   0.35463   0.24441   0.00000  Uiso   1.00
C339   C     0.33345   0.62390   0.24961   0.00000  Uiso   1.00
C340   C     0.33343   0.37607   0.24967   0.00000  Uiso   1.00
C341   C     0.52068   0.46603   0.26350   0.00000  Uiso   1.00
C342   C     0.47915   0.53412   0.23714   0.00000  Uiso   1.00
C343   C     0.47120   0.46602   0.26344   0.00000  Uiso   1.00
C344   C     0.52878   0.53398   0.23662   0.00000  Uiso   1.00
C345   C     0.63907   0.50098   0.33618   0.00000  Uiso   1.00
C346   C     0.36079   0.49987   0.16399   0.00000  Uiso   1.00
C347   C     0.62334   0.50095   0.38560   0.00000  Uiso   1.00
C348   C     0.37627   0.49399   0.11542   0.00000  Uiso   1.00
C349   C     0.64313   0.49809   0.45664   0.00000  Uiso   1.00
C350   C     0.36492   0.45974   0.04996   0.00000  Uiso   1.00
C351   C     0.65794   0.49730   0.41016   0.00000  Uiso   1.00
C352   C     0.34754   0.47013   0.09480   0.00000  Uiso   1.00
C353   C     0.57322   0.50413   0.40892   0.00000  Uiso   1.00
C354   C     0.42260   0.50785   0.09035   0.00000  Uiso   1.00
C355   C     0.55854   0.49571   0.45523   0.00000  Uiso   1.00
C356   C     0.44334   0.49076   0.04761   0.00000  Uiso   1.00
C357   C     0.59363   0.49755   0.47942   0.00000  Uiso   1.00
C358   C     0.41261   0.46972   0.02621   0.00000  Uiso   1.00
C359   C     0.50942   0.48767   0.47862   0.00000  Uiso   1.00
C360   C     0.49364   0.49427   0.02516   0.00000  Uiso   1.00
Cu361  Cu    0.38022   0.50001   0.25000   0.00000  Uiso   1.00
Cu362  Cu    0.61978   0.49999   0.25000   0.00000  Uiso   1.00
H363   H     0.60500   0.50048   0.04512   0.00000  Uiso   1.00
H364   H     0.40731   0.44177   0.46483   0.00000  Uiso   1.00
H365   H     0.33709   0.49829   0.47480   0.00000  Uiso   1.00
H366   H     0.34170   0.44241   0.03428   0.00000  Uiso   1.00
H367   H     0.51940   0.49792   0.08441   0.00000  Uiso   1.00
H368   H     0.49057   0.45663   0.42417   0.00000  Uiso   1.00
H369   H     0.58882   0.37060   0.25889   0.00000  Uiso   1.00
H370   H     0.41145   0.62934   0.24007   0.00000  Uiso   1.00
H371   H     0.58881   0.62929   0.25896   0.00000  Uiso   1.00
H372   H     0.41141   0.37068   0.24021   0.00000  Uiso   1.00
H373   H     0.53561   0.43891   0.27493   0.00000  Uiso   1.00
H374   H     0.46372   0.56166   0.22730   0.00000  Uiso   1.00
H375   H     0.44942   0.43886   0.27474   0.00000  Uiso   1.00
H376   H     0.55043   0.56126   0.22562   0.00000  Uiso   1.00
N377   N     0.45069   0.50001   0.24999   0.00000  Uiso   1.00
N378   N     0.54931   0.49999   0.25001   0.00000  Uiso   1.00
O379   O     0.37291   0.43989   0.25000   0.00000  Uiso   1.00
O380   O     0.62709   0.56011   0.25000   0.00000  Uiso   1.00
O381   O     0.62706   0.43988   0.25001   0.00000  Uiso   1.00
O382   O     0.37294   0.56012   0.25000   0.00000  Uiso   1.00
O383   O     0.35186   0.50001   0.31492   0.00000  Uiso   1.00
O384   O     0.64814   0.49999   0.18509   0.00000  Uiso   1.00
O385   O     0.60600   0.50000   0.31492   0.00000  Uiso   1.00
O386   O     0.39400   0.50000   0.18508   0.00000  Uiso   1.00
C387   C     0.43908   0.54942   0.10031   0.00000  Uiso   1.00
C388   C     0.46643   0.55560   0.13096   0.00000  Uiso   1.00
C389   C     0.48150   0.59525   0.13867   0.00000  Uiso   1.00
C390   C     0.46862   0.62907   0.11660   0.00000  Uiso   1.00
C391   C     0.44116   0.62329   0.08633   0.00000  Uiso   1.00
C392   C     0.42661   0.58368   0.07807   0.00000  Uiso   1.00
H393   H     0.47693   0.52979   0.14820   0.00000  Uiso   1.00
H394   H     0.50338   0.59984   0.16161   0.00000  Uiso   1.00
H395   H     0.48010   0.65972   0.12282   0.00000  Uiso   1.00
H396   H     0.43128   0.64948   0.06913   0.00000  Uiso   1.00
H397   H     0.40547   0.57965   0.05437   0.00000  Uiso   1.00
C398   C     0.54075   0.53121   0.39096   0.00000  Uiso   1.00
C399   C     0.51091   0.51593   0.36547   0.00000  Uiso   1.00
C400   C     0.47898   0.54221   0.35178   0.00000  Uiso   1.00
C401   C     0.47744   0.58406   0.36223   0.00000  Uiso   1.00
C402   C     0.50752   0.59969   0.38684   0.00000  Uiso   1.00
C403   C     0.53882   0.57340   0.40136   0.00000  Uiso   1.00
H404   H     0.51235   0.48381   0.35611   0.00000  Uiso   1.00
H405   H     0.45535   0.53016   0.33307   0.00000  Uiso   1.00
H406   H     0.45290   0.60434   0.35130   0.00000  Uiso   1.00
H407   H     0.50630   0.63212   0.39500   0.00000  Uiso   1.00
H408   H     0.56145   0.58585   0.42097   0.00000  Uiso   1.00
F409   F     0.63607   0.45655   0.11800   0.00000  Uiso   1.00
F410   F     0.37301   0.49494   0.38951   0.00000  Uiso   1.00
C411   C     0.66669   0.42069   0.24991   0.00000  Uiso   1.00
C412   C     0.66673   0.57930   0.24985   0.00000  Uiso   1.00
C413   C     0.86248   0.49873   0.04851   0.00000  Uiso   1.00
C414   C     0.81093   0.46816   0.45773   0.00000  Uiso   1.00
C415   C     0.91192   0.49888   0.02602   0.00000  Uiso   1.00
C416   C     0.76354   0.45833   0.48149   0.00000  Uiso   1.00
C417   C     0.95637   0.35459   0.25470   0.00000  Uiso   1.00
C418   C     0.71056   0.64536   0.24434   0.00000  Uiso   1.00
C419   C     0.95637   0.64533   0.25471   0.00000  Uiso   1.00
C420   C     0.71053   0.35463   0.24441   0.00000  Uiso   1.00
C421   C     0.66679   0.62390   0.24961   0.00000  Uiso   1.00
C422   C     0.66676   0.37607   0.24967   0.00000  Uiso   1.00
C423   C     0.85401   0.46603   0.26350   0.00000  Uiso   1.00
C424   C     0.81248   0.53412   0.23714   0.00000  Uiso   1.00
C425   C     0.80453   0.46602   0.26344   0.00000  Uiso   1.00
C426   C     0.86211   0.53398   0.23662   0.00000  Uiso   1.00
C427   C     0.97240   0.50098   0.33618   0.00000  Uiso   1.00
C428   C     0.69413   0.49987   0.16399   0.00000  Uiso   1.00
C429   C     0.95667   0.50095   0.38560   0.00000  Uiso   1.00
C430   C     0.70960   0.49399   0.11542   0.00000  Uiso   1.00
C431   C     0.97646   0.49809   0.45664   0.00000  Uiso   1.00
C432   C     0.69825   0.45974   0.04996   0.00000  Uiso   1.00
C433   C     0.99127   0.49730   0.41016   0.00000  Uiso   1.00
C434   C     0.68088   0.47013   0.09480   0.00000  Uiso   1.00
C435   C     0.90655   0.50413   0.40892   0.00000  Uiso   1.00
C436   C     0.75593   0.50785   0.09035   0.00000  Uiso   1.00
C437   C     0.89187   0.49571   0.45523   0.00000  Uiso   1.00
C438   C     0.77668   0.49076   0.04761   0.00000  Uiso   1.00
C439   C     0.92696   0.49755   0.47942   0.00000  Uiso   1.00
C440   C     0.74594   0.46972   0.02621   0.00000  Uiso   1.00
C441   C     0.84276   0.48767   0.47862   0.00000  Uiso   1.00
C442   C     0.82697   0.49427   0.02516   0.00000  Uiso   1.00
Cu443  Cu    0.71355   0.50001   0.25000   0.00000  Uiso   1.00
Cu444  Cu    0.95311   0.49999   0.25000   0.00000  Uiso   1.00
H445   H     0.93833   0.50048   0.04512   0.00000  Uiso   1.00
H446   H     0.74065   0.44177   0.46483   0.00000  Uiso   1.00
H447   H     0.67043   0.49829   0.47480   0.00000  Uiso   1.00
H448   H     0.67503   0.44241   0.03428   0.00000  Uiso   1.00
H449   H     0.85273   0.49792   0.08441   0.00000  Uiso   1.00
H450   H     0.82391   0.45663   0.42417   0.00000  Uiso   1.00
H451   H     0.92215   0.37060   0.25889   0.00000  Uiso   1.00
H452   H     0.74479   0.62934   0.24007   0.00000  Uiso   1.00
H453   H     0.92215   0.62929   0.25896   0.00000  Uiso   1.00
H454   H     0.74475   0.37068   0.24021   0.00000  Uiso   1.00
H455   H     0.86894   0.43891   0.27493   0.00000  Uiso   1.00
H456   H     0.79705   0.56166   0.22730   0.00000  Uiso   1.00
H457   H     0.78276   0.43886   0.27474   0.00000  Uiso   1.00
H458   H     0.88376   0.56126   0.22562   0.00000  Uiso   1.00
N459   N     0.78403   0.50001   0.24999   0.00000  Uiso   1.00
N460   N     0.88264   0.49999   0.25001   0.00000  Uiso   1.00
O461   O     0.70625   0.43989   0.25000   0.00000  Uiso   1.00
O462   O     0.96042   0.56011   0.25000   0.00000  Uiso   1.00
O463   O     0.96039   0.43988   0.25001   0.00000  Uiso   1.00
O464   O     0.70628   0.56012   0.25000   0.00000  Uiso   1.00
O465   O     0.68519   0.50001   0.31492   0.00000  Uiso   1.00
O466   O     0.98148   0.49999   0.18509   0.00000  Uiso   1.00
O467   O     0.93933   0.50000   0.31492   0.00000  Uiso   1.00
O468   O     0.72733   0.50000   0.18508   0.00000  Uiso   1.00
C469   C     0.77241   0.54942   0.10031   0.00000  Uiso   1.00
C470   C     0.79977   0.55560   0.13096   0.00000  Uiso   1.00
C471   C     0.81484   0.59525   0.13867   0.00000  Uiso   1.00
C472   C     0.80196   0.62907   0.11660   0.00000  Uiso   1.00
C473   C     0.77450   0.62329   0.08633   0.00000  Uiso   1.00
C474   C     0.75995   0.58368   0.07807   0.00000  Uiso   1.00
H475   H     0.81026   0.52979   0.14820   0.00000  Uiso   1.00
H476   H     0.83671   0.59984   0.16161   0.00000  Uiso   1.00
H477   H     0.81343   0.65972   0.12282   0.00000  Uiso   1.00
H478   H     0.76461   0.64948   0.06913   0.00000  Uiso   1.00
H479   H     0.73880   0.57965   0.05437   0.00000  Uiso   1.00
C480   C     0.87409   0.53121   0.39096   0.00000  Uiso   1.00
C481   C     0.84424   0.51593   0.36547   0.00000  Uiso   1.00
C482   C     0.81232   0.54221   0.35178   0.00000  Uiso   1.00
C483   C     0.81078   0.58406   0.36223   0.00000  Uiso   1.00
C484   C     0.84085   0.59969   0.38684   0.00000  Uiso   1.00
C485   C     0.87215   0.57340   0.40136   0.00000  Uiso   1.00
H486   H     0.84568   0.48381   0.35611   0.00000  Uiso   1.00
H487   H     0.78869   0.53016   0.33307   0.00000  Uiso   1.00
H488   H     0.78623   0.60434   0.35130   0.00000  Uiso   1.00
H489   H     0.83964   0.63212   0.39500   0.00000  Uiso   1.00
H490   H     0.89478   0.58585   0.42097   0.00000  Uiso   1.00
F491   F     0.96941   0.45655   0.11800   0.00000  Uiso   1.00
F492   F     0.70635   0.49494   0.38951   0.00000  Uiso   1.00
C493   C     0.00002   0.75403   0.24991   0.00000  Uiso   1.00
C494   C     0.00006   0.91263   0.24985   0.00000  Uiso   1.00
C495   C     0.19582   0.83207   0.04851   0.00000  Uiso   1.00
C496   C     0.14427   0.80149   0.45773   0.00000  Uiso   1.00
C497   C     0.24525   0.83222   0.02602   0.00000  Uiso   1.00
C498   C     0.09687   0.79166   0.48149   0.00000  Uiso   1.00
C499   C     0.28970   0.68793   0.25470   0.00000  Uiso   1.00
C500   C     0.04389   0.97870   0.24434   0.00000  Uiso   1.00
C501   C     0.28971   0.97867   0.25471   0.00000  Uiso   1.00
C502   C     0.04387   0.68796   0.24441   0.00000  Uiso   1.00
C503   C     0.00012   0.95724   0.24961   0.00000  Uiso   1.00
C504   C     0.00009   0.70940   0.24967   0.00000  Uiso   1.00
C505   C     0.18735   0.79937   0.26350   0.00000  Uiso   1.00
C506   C     0.14581   0.86745   0.23714   0.00000  Uiso   1.00
C507   C     0.13786   0.79936   0.26344   0.00000  Uiso   1.00
C508   C     0.19545   0.86731   0.23662   0.00000  Uiso   1.00
C509   C     0.30573   0.83432   0.33618   0.00000  Uiso   1.00
C510   C     0.02746   0.83321   0.16399   0.00000  Uiso   1.00
C511   C     0.29001   0.83428   0.38560   0.00000  Uiso   1.00
C512   C     0.04293   0.82733   0.11542   0.00000  Uiso   1.00
C513   C     0.30980   0.83142   0.45664   0.00000  Uiso   1.00
C514   C     0.03158   0.79308   0.04996   0.00000  Uiso   1.00
C515   C     0.32461   0.83063   0.41016   0.00000  Uiso   1.00
C516   C     0.01421   0.80347   0.09480   0.00000  Uiso   1.00
C517   C     0.23989   0.83746   0.40892   0.00000  Uiso   1.00
C518   C     0.08926   0.84119   0.09035   0.00000  Uiso   1.00
C519   C     0.22520   0.82904   0.45523   0.00000  Uiso   1.00
C520   C     0.11001   0.82410   0.04761   0.00000  Uiso   1.00
C521   C     0.26030   0.83089   0.47942   0.00000  Uiso   1.00
C522   C     0.07927   0.80305   0.02621   0.00000  Uiso   1.00
C523   C     0.17609   0.82101   0.47862   0.00000  Uiso   1.00
C524   C     0.16030   0.82760   0.02516   0.00000  Uiso   1.00
Cu525  Cu    0.04689   0.83334   0.25000   0.00000  Uiso   1.00
Cu526  Cu    0.28645   0.83333   0.25000   0.00000  Uiso   1.00
H527   H     0.27166   0.83381   0.04512   0.00000  Uiso   1.00
H528   H     0.07398   0.77510   0.46483   0.00000  Uiso   1.00
H529   H     0.00376   0.83162   0.47480   0.00000  Uiso   1.00
H530   H     0.00837   0.77574   0.03428   0.00000  Uiso   1.00
H531   H     0.18607   0.83125   0.08441   0.00000  Uiso   1.00
H532   H     0.15724   0.78996   0.42417   0.00000  Uiso   1.00
H533   H     0.25548   0.70393   0.25889   0.00000  Uiso   1.00
H534   H     0.07812   0.96268   0.24007   0.00000  Uiso   1.00
H535   H     0.25548   0.96262   0.25896   0.00000  Uiso   1.00
H536   H     0.07808   0.70401   0.24021   0.00000  Uiso   1.00
H537   H     0.20227   0.77224   0.27493   0.00000  Uiso   1.00
H538   H     0.13038   0.89500   0.22730   0.00000  Uiso   1.00
H539   H     0.11609   0.77219   0.27474   0.00000  Uiso   1.00
H540   H     0.21709   0.89460   0.22562   0.00000  Uiso   1.00
N541   N     0.11736   0.83334   0.24999   0.00000  Uiso   1.00
N542   N     0.21597   0.83332   0.25001   0.00000  Uiso   1.00
O543   O     0.03958   0.77322   0.25000   0.00000  Uiso   1.00
O544   O     0.29375   0.89345   0.25000   0.00000  Uiso   1.00
O545   O     0.29372   0.77321   0.25001   0.00000  Uiso   1.00
O546   O     0.03961   0.89346   0.25000   0.00000  Uiso   1.00
O547   O     0.01852   0.83334   0.31492   0.00000  Uiso   1.00
O548   O     0.31481   0.83332   0.18509   0.00000  Uiso   1.00
O549   O     0.27267   0.83333   0.31492   0.00000  Uiso   1.00
O550   O     0.06067   0.83333   0.18508   0.00000  Uiso   1.00
C551   C     0.10574   0.88275   0.10031   0.00000  Uiso   1.00
C552   C     0.13310   0.88894   0.13096   0.00000  Uiso   1.00
C553   C     0.14817   0.92859   0.13867   0.00000  Uiso   1.00
C554   C     0.13529   0.96240   0.11660   0.00000  Uiso   1.00
C555   C     0.10783   0.95662   0.08633   0.00000  Uiso   1.00
C556   C     0.09328   0.91701   0.07807   0.00000  Uiso   1.00
H557   H     0.14360   0.86312   0.14820   0.00000  Uiso   1.00
H558   H     0.17005   0.93317   0.16161   0.00000  Uiso   1.00
H559   H     0.14676   0.99305   0.12282   0.00000  Uiso   1.00
H560   H     0.09795   0.98282   0.06913   0.00000  Uiso   1.00
H561   H     0.07214   0.91298   0.05437   0.00000  Uiso   1.00
C562   C     0.20742   0.86455   0.39096   0.00000  Uiso   1.00
C563   C     0.17757   0.84926   0.36547   0.00000  Uiso   1.00
C564   C     0.14565   0.87555   0.35178   0.00000  Uiso   1.00
C565   C     0.14411   0.91739   0.36223   0.00000  Uiso   1.00
C566   C     0.17419   0.93302   0.38684   0.00000  Uiso   1.00
C567   C     0.20548   0.90673   0.40136   0.00000  Uiso   1.00
H568   H     0.17901   0.81714   0.35611   0.00000  Uiso   1.00
H569   H     0.12202   0.86349   0.33307   0.00000  Uiso   1.00
H570   H     0.11957   0.93767   0.35130   0.00000  Uiso   1.00
H571   H     0.17297   0.96546   0.39500   0.00000  Uiso   1.00
H572   H     0.22811   0.91919   0.42097   0.00000  Uiso   1.00
F573   F     0.30274   0.78988   0.11800   0.00000  Uiso   1.00
F574   F     0.03968   0.82827   0.38951   0.00000  Uiso   1.00
C575   C     0.33335   0.75403   0.24991   0.00000  Uiso   1.00
C576   C     0.33339   0.91263   0.24985   0.00000  Uiso   1.00
C577   C     0.52915   0.83207   0.04851   0.00000  Uiso   1.00
C578   C     0.47760   0.80149   0.45773   0.00000  Uiso   1.00
C579   C     0.57859   0.83222   0.02602   0.00000  Uiso   1.00
C580   C     0.43021   0.79166   0.48149   0.00000  Uiso   1.00
C581   C     0.62304   0.68793   0.25470   0.00000  Uiso   1.00
C582   C     0.37722   0.97870   0.24434   0.00000  Uiso   1.00
C583   C     0.62304   0.97867   0.25471   0.00000  Uiso   1.00
C584   C     0.37720   0.68796   0.24441   0.00000  Uiso   1.00
C585   C     0.33345   0.95724   0.24961   0.00000  Uiso   1.00
C586   C     0.33343   0.70940   0.24967   0.00000  Uiso   1.00
C587   C     0.52068   0.79937   0.26350   0.00000  Uiso   1.00
C588   C     0.47915   0.86745   0.23714   0.00000  Uiso   1.00
C589   C     0.47120   0.79936   0.26344   0.00000  Uiso   1.00
C590   C     0.52878   0.86731   0.23662   0.00000  Uiso   1.00
C591   C     0.63907   0.83432   0.33618   0.00000  Uiso   1.00
C592   C     0.36079   0.83321   0.16399   0.00000  Uiso   1.00
C593   C     0.62334   0.83428   0.38560   0.00000  Uiso   1.00
C594   C     0.37627   0.82733   0.11542   0.00000  Uiso   1.00
C595   C     0.64313   0.83142   0.45664   0.00000  Uiso   1.00
C596   C     0.36492   0.79308   0.04996   0.00000  Uiso   1.00
C597   C     0.65794   0.83063   0.41016   0.00000  Uiso   1.00
C598   C     0.34754   0.80347   0.09480   0.00000  Uiso   1.00
C599   C     0.57322   0.83746   0.40892   0.00000  Uiso   1.00
C600   C     0.42260   0.84119   0.09035   0.00000  Uiso   1.00
C601   C     0.55854   0.82904   0.45523   0.00000  Uiso   1.00
C602   C     0.44334   0.82410   0.04761   0.00000  Uiso   1.00
C603   C     0.59363   0.83089   0.47942   0.00000  Uiso   1.00
C604   C     0.41261   0.80305   0.02621   0.00000  Uiso   1.00
C605   C     0.50942   0.82101   0.47862   0.00000  Uiso   1.00
C606   C     0.49364   0.82760   0.02516   0.00000  Uiso   1.00
Cu607  Cu    0.38022   0.83334   0.25000   0.00000  Uiso   1.00
Cu608  Cu    0.61978   0.83333   0.25000   0.00000  Uiso   1.00
H609   H     0.60500   0.83381   0.04512   0.00000  Uiso   1.00
H610   H     0.40731   0.77510   0.46483   0.00000  Uiso   1.00
H611   H     0.33709   0.83162   0.47480   0.00000  Uiso   1.00
H612   H     0.34170   0.77574   0.03428   0.00000  Uiso   1.00
H613   H     0.51940   0.83125   0.08441   0.00000  Uiso   1.00
H614   H     0.49057   0.78996   0.42417   0.00000  Uiso   1.00
H615   H     0.58882   0.70393   0.25889   0.00000  Uiso   1.00
H616   H     0.41145   0.96268   0.24007   0.00000  Uiso   1.00
H617   H     0.58881   0.96262   0.25896   0.00000  Uiso   1.00
H618   H     0.41141   0.70401   0.24021   0.00000  Uiso   1.00
H619   H     0.53561   0.77224   0.27493   0.00000  Uiso   1.00
H620   H     0.46372   0.89500   0.22730   0.00000  Uiso   1.00
H621   H     0.44942   0.77219   0.27474   0.00000  Uiso   1.00
H622   H     0.55043   0.89460   0.22562   0.00000  Uiso   1.00
N623   N     0.45069   0.83334   0.24999   0.00000  Uiso   1.00
N624   N     0.54931   0.83332   0.25001   0.00000  Uiso   1.00
O625   O     0.37291   0.77322   0.25000   0.00000  Uiso   1.00
O626   O     0.62709   0.89345   0.25000   0.00000  Uiso   1.00
O627   O     0.62706   0.77321   0.25001   0.00000  Uiso   1.00
O628   O     0.37294   0.89346   0.25000   0.00000  Uiso   1.00
O629   O     0.35186   0.83334   0.31492   0.00000  Uiso   1.00
O630   O     0.64814   0.83332   0.18509   0.00000  Uiso   1.00
O631   O     0.60600   0.83333   0.31492   0.00000  Uiso   1.00
O632   O     0.39400   0.83333   0.18508   0.00000  Uiso   1.00
C633   C     0.43908   0.88275   0.10031   0.00000  Uiso   1.00
C634   C     0.46643   0.88894   0.13096   0.00000  Uiso   1.00
C635   C     0.48150   0.92859   0.13867   0.00000  Uiso   1.00
C636   C     0.46862   0.96240   0.11660   0.00000  Uiso   1.00
C637   C     0.44116   0.95662   0.08633   0.00000  Uiso   1.00
C638   C     0.42661   0.91701   0.07807   0.00000  Uiso   1.00
H639   H     0.47693   0.86312   0.14820   0.00000  Uiso   1.00
H640   H     0.50338   0.93317   0.16161   0.00000  Uiso   1.00
H641   H     0.48010   0.99305   0.12282   0.00000  Uiso   1.00
H642   H     0.43128   0.98282   0.06913   0.00000  Uiso   1.00
H643   H     0.40547   0.91298   0.05437   0.00000  Uiso   1.00
C644   C     0.54075   0.86455   0.39096   0.00000  Uiso   1.00
C645   C     0.51091   0.84926   0.36547   0.00000  Uiso   1.00
C646   C     0.47898   0.87555   0.35178   0.00000  Uiso   1.00
C647   C     0.47744   0.91739   0.36223   0.00000  Uiso   1.00
C648   C     0.50752   0.93302   0.38684   0.00000  Uiso   1.00
C649   C     0.53882   0.90673   0.40136   0.00000  Uiso   1.00
H650   H     0.51235   0.81714   0.35611   0.00000  Uiso   1.00
H651   H     0.45535   0.86349   0.33307   0.00000  Uiso   1.00
H652   H     0.45290   0.93767   0.35130   0.00000  Uiso   1.00
H653   H     0.50630   0.96546   0.39500   0.00000  Uiso   1.00
H654   H     0.56145   0.91919   0.42097   0.00000  Uiso   1.00
F655   F     0.63607   0.78988   0.11800   0.00000  Uiso   1.00
F656   F     0.37301   0.82827   0.38951   0.00000  Uiso   1.00
C657   C     0.66669   0.75403   0.24991   0.00000  Uiso   1.00
C658   C     0.66673   0.91263   0.24985   0.00000  Uiso   1.00
C659   C     0.86248   0.83207   0.04851   0.00000  Uiso   1.00
C660   C     0.81093   0.80149   0.45773   0.00000  Uiso   1.00
C661   C     0.91192   0.83222   0.02602   0.00000  Uiso   1.00
C662   C     0.76354   0.79166   0.48149   0.00000  Uiso   1.00
C663   C     0.95637   0.68793   0.25470   0.00000  Uiso   1.00
C664   C     0.71056   0.97870   0.24434   0.00000  Uiso   1.00
C665   C     0.95637   0.97867   0.25471   0.00000  Uiso   1.00
C666   C     0.71053   0.68796   0.24441   0.00000  Uiso   1.00
C667   C     0.66679   0.95724   0.24961   0.00000  Uiso   1.00
C668   C     0.66676   0.70940   0.24967   0.00000  Uiso   1.00
C669   C     0.85401   0.79937   0.26350   0.00000  Uiso   1.00
C670   C     0.81248   0.86745   0.23714   0.00000  Uiso   1.00
C671   C     0.80453   0.79936   0.26344   0.00000  Uiso   1.00
C672   C     0.86211   0.86731   0.23662   0.00000  Uiso   1.00
C673   C     0.97240   0.83432   0.33618   0.00000  Uiso   1.00
C674   C     0.69413   0.83321   0.16399   0.00000  Uiso   1.00
C675   C     0.95667   0.83428   0.38560   0.00000  Uiso   1.00
C676   C     0.70960   0.82733   0.11542   0.00000  Uiso   1.00
C677   C     0.97646   0.83142   0.45664   0.00000  Uiso   1.00
C678   C     0.69825   0.79308   0.04996   0.00000  Uiso   1.00
C679   C     0.99127   0.83063   0.41016   0.00000  Uiso   1.00
C680   C     0.68088   0.80347   0.09480   0.00000  Uiso   1.00
C681   C     0.90655   0.83746   0.40892   0.00000  Uiso   1.00
C682   C     0.75593   0.84119   0.09035   0.00000  Uiso   1.00
C683   C     0.89187   0.82904   0.45523   0.00000  Uiso   1.00
C684   C     0.77668   0.82410   0.04761   0.00000  Uiso   1.00
C685   C     0.92696   0.83089   0.47942   0.00000  Uiso   1.00
C686   C     0.74594   0.80305   0.02621   0.00000  Uiso   1.00
C687   C     0.84276   0.82101   0.47862   0.00000  Uiso   1.00
C688   C     0.82697   0.82760   0.02516   0.00000  Uiso   1.00
Cu689  Cu    0.71355   0.83334   0.25000   0.00000  Uiso   1.00
Cu690  Cu    0.95311   0.83333   0.25000   0.00000  Uiso   1.00
H691   H     0.93833   0.83381   0.04512   0.00000  Uiso   1.00
H692   H     0.74065   0.77510   0.46483   0.00000  Uiso   1.00
H693   H     0.67043   0.83162   0.47480   0.00000  Uiso   1.00
H694   H     0.67503   0.77574   0.03428   0.00000  Uiso   1.00
H695   H     0.85273   0.83125   0.08441   0.00000  Uiso   1.00
H696   H     0.82391   0.78996   0.42417   0.00000  Uiso   1.00
H697   H     0.92215   0.70393   0.25889   0.00000  Uiso   1.00
H698   H     0.74479   0.96268   0.24007   0.00000  Uiso   1.00
H699   H     0.92215   0.96262   0.25896   0.00000  Uiso   1.00
H700   H     0.74475   0.70401   0.24021   0.00000  Uiso   1.00
H701   H     0.86894   0.77224   0.27493   0.00000  Uiso   1.00
H702   H     0.79705   0.89500   0.22730   0.00000  Uiso   1.00
H703   H     0.78276   0.77219   0.27474   0.00000  Uiso   1.00
H704   H     0.88376   0.89460   0.22562   0.00000  Uiso   1.00
N705   N     0.78403   0.83334   0.24999   0.00000  Uiso   1.00
N706   N     0.88264   0.83332   0.25001   0.00000  Uiso   1.00
O707   O     0.70625   0.77322   0.25000   0.00000  Uiso   1.00
O708   O     0.96042   0.89345   0.25000   0.00000  Uiso   1.00
O709   O     0.96039   0.77321   0.25001   0.00000  Uiso   1.00
O710   O     0.70628   0.89346   0.25000   0.00000  Uiso   1.00
O711   O     0.68519   0.83334   0.31492   0.00000  Uiso   1.00
O712   O     0.98148   0.83332   0.18509   0.00000  Uiso   1.00
O713   O     0.93933   0.83333   0.31492   0.00000  Uiso   1.00
O714   O     0.72733   0.83333   0.18508   0.00000  Uiso   1.00
C715   C     0.77241   0.88275   0.10031   0.00000  Uiso   1.00
C716   C     0.79977   0.88894   0.13096   0.00000  Uiso   1.00
C717   C     0.81484   0.92859   0.13867   0.00000  Uiso   1.00
C718   C     0.80196   0.96240   0.11660   0.00000  Uiso   1.00
C719   C     0.77450   0.95662   0.08633   0.00000  Uiso   1.00
C720   C     0.75995   0.91701   0.07807   0.00000  Uiso   1.00
H721   H     0.81026   0.86312   0.14820   0.00000  Uiso   1.00
H722   H     0.83671   0.93317   0.16161   0.00000  Uiso   1.00
H723   H     0.81343   0.99305   0.12282   0.00000  Uiso   1.00
H724   H     0.76461   0.98282   0.06913   0.00000  Uiso   1.00
H725   H     0.73880   0.91298   0.05437   0.00000  Uiso   1.00
C726   C     0.87409   0.86455   0.39096   0.00000  Uiso   1.00
C727   C     0.84424   0.84926   0.36547   0.00000  Uiso   1.00
C728   C     0.81232   0.87555   0.35178   0.00000  Uiso   1.00
C729   C     0.81078   0.91739   0.36223   0.00000  Uiso   1.00
C730   C     0.84085   0.93302   0.38684   0.00000  Uiso   1.00
C731   C     0.87215   0.90673   0.40136   0.00000  Uiso   1.00
H732   H     0.84568   0.81714   0.35611   0.00000  Uiso   1.00
H733   H     0.78869   0.86349   0.33307   0.00000  Uiso   1.00
H734   H     0.78623   0.93767   0.35130   0.00000  Uiso   1.00
H735   H     0.83964   0.96546   0.39500   0.00000  Uiso   1.00
H736   H     0.89478   0.91919   0.42097   0.00000  Uiso   1.00
F737   F     0.96941   0.78988   0.11800   0.00000  Uiso   1.00
F738   F     0.70635   0.82827   0.38951   0.00000  Uiso   1.00
C739   C     0.00002   0.08736   0.74991   0.00000  Uiso   1.00
C740   C     0.00006   0.24596   0.74985   0.00000  Uiso   1.00
C741   C     0.19582   0.16540   0.54851   0.00000  Uiso   1.00
C742   C     0.14427   0.13482   0.95773   0.00000  Uiso   1.00
C743   C     0.24525   0.16555   0.52602   0.00000  Uiso   1.00
C744   C     0.09687   0.12500   0.98149   0.00000  Uiso   1.00
C745   C     0.28970   0.02126   0.75470   0.00000  Uiso   1.00
C746   C     0.04389   0.31203   0.74434   0.00000  Uiso   1.00
C747   C     0.28971   0.31200   0.75471   0.00000  Uiso   1.00
C748   C     0.04387   0.02129   0.74441   0.00000  Uiso   1.00
C749   C     0.00012   0.29057   0.74961   0.00000  Uiso   1.00
C750   C     0.00009   0.04273   0.74967   0.00000  Uiso   1.00
C751   C     0.18735   0.13270   0.76350   0.00000  Uiso   1.00
C752   C     0.14581   0.20079   0.73714   0.00000  Uiso   1.00
C753   C     0.13786   0.13269   0.76344   0.00000  Uiso   1.00
C754   C     0.19545   0.20065   0.73662   0.00000  Uiso   1.00
C755   C     0.30573   0.16765   0.83618   0.00000  Uiso   1.00
C756   C     0.02746   0.16654   0.66399   0.00000  Uiso   1.00
C757   C     0.29001   0.16761   0.88560   0.00000  Uiso   1.00
C758   C     0.04293   0.16066   0.61542   0.00000  Uiso   1.00
C759   C     0.30980   0.16476   0.95664   0.00000  Uiso   1.00
C760   C     0.03158   0.12641   0.54996   0.00000  Uiso   1.00
C761   C     0.32461   0.16397   0.91016   0.00000  Uiso   1.00
C762   C     0.01421   0.13680   0.59480   0.00000  Uiso   1.00
C763   C     0.23989   0.17080   0.90892   0.00000  Uiso   1.00
C764   C     0.08926   0.17452   0.59035   0.00000  Uiso   1.00
C765   C     0.22520   0.16237   0.95523   0.00000  Uiso   1.00
C766   C     0.11001   0.15743   0.54761   0.00000  Uiso   1.00
C767   C     0.26030   0.16422   0.97942   0.00000  Uiso   1.00
C768   C     0.07927   0.13639   0.52621   0.00000  Uiso   1.00
C769   C     0.17609   0.15434   0.97862   0.00000  Uiso   1.00
C770   C     0.16030   0.16093   0.52516   0.00000  Uiso   1.00
Cu771  Cu    0.04689   0.16667   0.75000   0.00000  Uiso   1.00
Cu772  Cu    0.28645   0.16666   0.75000   0.00000  Uiso   1.00
H773   H     0.27166   0.16714   0.54512   0.00000  Uiso   1.00
H774   H     0.07398   0.10843   0.96483   0.00000  Uiso   1.00
H775   H     0.00376   0.16496   0.97480   0.00000  Uiso   1.00
H776   H     0.00837   0.10908   0.53428   0.00000  Uiso   1.00
H777   H     0.18607   0.16458   0.58441   0.00000  Uiso   1.00
H778   H     0.15724   0.12330   0.92417   0.00000  Uiso   1.00
H779   H     0.25548   0.03727   0.75889   0.00000  Uiso   1.00
H780   H     0.07812   0.29601   0.74007   0.00000  Uiso   1.00
H781   H     0.25548   0.29595   0.75896   0.00000  Uiso   1.00
H782   H     0.07808   0.03734   0.74021   0.00000  Uiso   1.00
H783   H     0.20227   0.10558   0.77493   0.00000  Uiso   1.00
H784   H     0.13038   0.22833   0.72730   0.00000  Uiso   1.00
H785   H     0.11609   0.10553   0.77474   0.00000  Uiso   1.00
H786   H     0.21709   0.22793   0.72562   0.00000  Uiso   1.00
N787   N     0.11736   0.16668   0.74999   0.00000  Uiso   1.00
N788   N     0.21597   0.16666   0.75001   0.00000  Uiso   1.00
O789   O     0.03958   0.10655   0.75000   0.00000  Uiso   1.00
O790   O     0.29375   0.22678   0.75000   0.00000  Uiso   1.00
O791   O     0.29372   0.10654   0.75001   0.00000  Uiso   1.00
O792   O     0.03961   0.22679   0.75000   0.00000  Uiso   1.00
O793   O     0.01852   0.16668   0.81492   0.00000  Uiso   1.00
O794   O     0.31481   0.16666   0.68509   0.00000  Uiso   1.00
O795   O     0.27267   0.16667   0.81492   0.00000  Uiso   1.00
O796   O     0.06067   0.16667   0.68508   0.00000  Uiso   1.00
C797   C     0.10574   0.21608   0.60031   0.00000  Uiso   1.00
C798   C     0.13310   0.22227   0.63096   0.00000  Uiso   1.00
C799   C     0.14817   0.26192   0.63867   0.00000  Uiso   1.00
C800   C     0.13529   0.29573   0.61660   0.00000  Uiso   1.00
C801   C     0.10783   0.28995   0.58633   0.00000  Uiso   1.00
C802   C     0.09328   0.25035   0.57807   0.00000  Uiso   1.00
H803   H     0.14360   0.19646   0.64820   0.00000  Uiso   1.00
H804   H     0.17005   0.26651   0.66161   0.00000  Uiso   1.00
H805   H     0.14676   0.32639   0.62282   0.00000  Uiso   1.00
H806   H     0.09795   0.31615   0.56913   0.00000  Uiso   1.00
H807   H     0.07214   0.24632   0.55437   0.00000  Uiso   1.00
C808   C     0.20742   0.19788   0.89096   0.00000  Uiso   1.00
C809   C     0.17757   0.18260   0.86547   0.00000  Uiso   1.00
C810   C     0.14565   0.20888   0.85178   0.00000  Uiso   1.00
C811   C     0.14411   0.25072   0.86223   0.00000  Uiso   1.00
C812   C     0.17419   0.26636   0.88684   0.00000  Uiso   1.00
C813   C     0.20548   0.24007   0.90136   0.00000  Uiso   1.00
H814   H     0.17901   0.15048   0.85611   0.00000  Uiso   1.00
H815   H     0.12202   0.19683   0.83307   0.00000  Uiso   1.00
H816   H     0.11957   0.27100   0.85130   0.00000  Uiso   1.00
H817   H     0.17297   0.29879   0.89500   0.00000  Uiso   1.00
H818   H     0.22811   0.25252   0.92097   0.00000  Uiso   1.00
F819   F     0.30274   0.12322   0.61800   0.00000  Uiso   1.00
F820   F     0.03968   0.16161   0.88951   0.00000  Uiso   1.00
C821   C     0.33335   0.08736   0.74991   0.00000  Uiso   1.00
C822   C     0.33339   0.24596   0.74985   0.00000  Uiso   1.00
C823   C     0.52915   0.16540   0.54851   0.00000  Uiso   1.00
C824   C     0.47760   0.13482   0.95773   0.00000  Uiso   1.00
C825   C     0.57859   0.16555   0.52602   0.00000  Uiso   1.00
C826   C     0.43021   0.12500   0.98149   0.00000  Uiso   1.00
C827   C     0.62304   0.02126   0.75470   0.00000  Uiso   1.00
C828   C     0.37722   0.31203   0.74434   0.00000  Uiso   1.00
C829   C     0.62304   0.31200   0.75471   0.00000  Uiso   1.00
C830   C     0.37720   0.02129   0.74441   0.00000  Uiso   1.00
C831   C     0.33345   0.29057   0.74961   0.00000  Uiso   1.00
C832   C     0.33343   0.04273   0.74967   0.00000  Uiso   1.00
C833   C     0.52068   0.13270   0.76350   0.00000  Uiso   1.00
C834   C     0.47915   0.20079   0.73714   0.00000  Uiso   1.00
C835   C     0.47120   0.13269   0.76344   0.00000  Uiso   1.00
C836   C     0.52878   0.20065   0.73662   0.00000  Uiso   1.00
C837   C     0.63907   0.16765   0.83618   0.00000  Uiso   1.00
C838   C     0.36079   0.16654   0.66399   0.00000  Uiso   1.00
C839   C     0.62334   0.16761   0.88560   0.00000  Uiso   1.00
C840   C     0.37627   0.16066   0.61542   0.00000  Uiso   1.00
C841   C     0.64313   0.16476   0.95664   0.00000  Uiso   1.00
C842   C     0.36492   0.12641   0.54996   0.00000  Uiso   1.00
C843   C     0.65794   0.16397   0.91016   0.00000  Uiso   1.00
C844   C     0.34754   0.13680   0.59480   0.00000  Uiso   1.00
C845   C     0.57322   0.17080   0.90892   0.00000  Uiso   1.00
C846   C     0.42260   0.17452   0.59035   0.00000  Uiso   1.00
C847   C     0.55854   0.16237   0.95523   0.00000  Uiso   1.00
C848   C     0.44334   0.15743   0.54761   0.00000  Uiso   1.00
C849   C     0.59363   0.16422   0.97942   0.00000  Uiso   1.00
C850   C     0.41261   0.13639   0.52621   0.00000  Uiso   1.00
C851   C     0.50942   0.15434   0.97862   0.00000  Uiso   1.00
C852   C     0.49364   0.16093   0.52516   0.00000  Uiso   1.00
Cu853  Cu    0.38022   0.16667   0.75000   0.00000  Uiso   1.00
Cu854  Cu    0.61978   0.16666   0.75000   0.00000  Uiso   1.00
H855   H     0.60500   0.16714   0.54512   0.00000  Uiso   1.00
H856   H     0.40731   0.10843   0.96483   0.00000  Uiso   1.00
H857   H     0.33709   0.16496   0.97480   0.00000  Uiso   1.00
H858   H     0.34170   0.10908   0.53428   0.00000  Uiso   1.00
H859   H     0.51940   0.16458   0.58441   0.00000  Uiso   1.00
H860   H     0.49057   0.12330   0.92417   0.00000  Uiso   1.00
H861   H     0.58882   0.03727   0.75889   0.00000  Uiso   1.00
H862   H     0.41145   0.29601   0.74007   0.00000  Uiso   1.00
H863   H     0.58881   0.29595   0.75896   0.00000  Uiso   1.00
H864   H     0.41141   0.03734   0.74021   0.00000  Uiso   1.00
H865   H     0.53561   0.10558   0.77493   0.00000  Uiso   1.00
H866   H     0.46372   0.22833   0.72730   0.00000  Uiso   1.00
H867   H     0.44942   0.10553   0.77474   0.00000  Uiso   1.00
H868   H     0.55043   0.22793   0.72562   0.00000  Uiso   1.00
N869   N     0.45069   0.16668   0.74999   0.00000  Uiso   1.00
N870   N     0.54931   0.16666   0.75001   0.00000  Uiso   1.00
O871   O     0.37291   0.10655   0.75000   0.00000  Uiso   1.00
O872   O     0.62709   0.22678   0.75000   0.00000  Uiso   1.00
O873   O     0.62706   0.10654   0.75001   0.00000  Uiso   1.00
O874   O     0.37294   0.22679   0.75000   0.00000  Uiso   1.00
O875   O     0.35186   0.16668   0.81492   0.00000  Uiso   1.00
O876   O     0.64814   0.16666   0.68509   0.00000  Uiso   1.00
O877   O     0.60600   0.16667   0.81492   0.00000  Uiso   1.00
O878   O     0.39400   0.16667   0.68508   0.00000  Uiso   1.00
C879   C     0.43908   0.21608   0.60031   0.00000  Uiso   1.00
C880   C     0.46643   0.22227   0.63096   0.00000  Uiso   1.00
C881   C     0.48150   0.26192   0.63867   0.00000  Uiso   1.00
C882   C     0.46862   0.29573   0.61660   0.00000  Uiso   1.00
C883   C     0.44116   0.28995   0.58633   0.00000  Uiso   1.00
C884   C     0.42661   0.25035   0.57807   0.00000  Uiso   1.00
H885   H     0.47693   0.19646   0.64820   0.00000  Uiso   1.00
H886   H     0.50338   0.26651   0.66161   0.00000  Uiso   1.00
H887   H     0.48010   0.32639   0.62282   0.00000  Uiso   1.00
H888   H     0.43128   0.31615   0.56913   0.00000  Uiso   1.00
H889   H     0.40547   0.24632   0.55437   0.00000  Uiso   1.00
C890   C     0.54075   0.19788   0.89096   0.00000  Uiso   1.00
C891   C     0.51091   0.18260   0.86547   0.00000  Uiso   1.00
C892   C     0.47898   0.20888   0.85178   0.00000  Uiso   1.00
C893   C     0.47744   0.25072   0.86223   0.00000  Uiso   1.00
C894   C     0.50752   0.26636   0.88684   0.00000  Uiso   1.00
C895   C     0.53882   0.24007   0.90136   0.00000  Uiso   1.00
H896   H     0.51235   0.15048   0.85611   0.00000  Uiso   1.00
H897   H     0.45535   0.19683   0.83307   0.00000  Uiso   1.00
H898   H     0.45290   0.27100   0.85130   0.00000  Uiso   1.00
H899   H     0.50630   0.29879   0.89500   0.00000  Uiso   1.00
H900   H     0.56145   0.25252   0.92097   0.00000  Uiso   1.00
F901   F     0.63607   0.12322   0.61800   0.00000  Uiso   1.00
F902   F     0.37301   0.16161   0.88951   0.00000  Uiso   1.00
C903   C     0.66669   0.08736   0.74991   0.00000  Uiso   1.00
C904   C     0.66673   0.24596   0.74985   0.00000  Uiso   1.00
C905   C     0.86248   0.16540   0.54851   0.00000  Uiso   1.00
C906   C     0.81093   0.13482   0.95773   0.00000  Uiso   1.00
C907   C     0.91192   0.16555   0.52602   0.00000  Uiso   1.00
C908   C     0.76354   0.12500   0.98149   0.00000  Uiso   1.00
C909   C     0.95637   0.02126   0.75470   0.00000  Uiso   1.00
C910   C     0.71056   0.31203   0.74434   0.00000  Uiso   1.00
C911   C     0.95637   0.31200   0.75471   0.00000  Uiso   1.00
C912   C     0.71053   0.02129   0.74441   0.00000  Uiso   1.00
C913   C     0.66679   0.29057   0.74961   0.00000  Uiso   1.00
C914   C     0.66676   0.04273   0.74967   0.00000  Uiso   1.00
C915   C     0.85401   0.13270   0.76350   0.00000  Uiso   1.00
C916   C     0.81248   0.20079   0.73714   0.00000  Uiso   1.00
C917   C     0.80453   0.13269   0.76344   0.00000  Uiso   1.00
C918   C     0.86211   0.20065   0.73662   0.00000  Uiso   1.00
C919   C     0.97240   0.16765   0.83618   0.00000  Uiso   1.00
C920   C     0.69413   0.16654   0.66399   0.00000  Uiso   1.00
C921   C     0.95667   0.16761   0.88560   0.00000  Uiso   1.00
C922   C     0.70960   0.16066   0.61542   0.00000  Uiso   1.00
C923   C     0.97646   0.16476   0.95664   0.00000  Uiso   1.00
C924   C     0.69825   0.12641   0.54996   0.00000  Uiso   1.00
C925   C     0.99127   0.16397   0.91016   0.00000  Uiso   1.00
C926   C     0.68088   0.13680   0.59480   0.00000  Uiso   1.00
C927   C     0.90655   0.17080   0.90892   0.00000  Uiso   1.00
C928   C     0.75593   0.17452   0.59035   0.00000  Uiso   1.00
C929   C     0.89187   0.16237   0.95523   0.00000  Uiso   1.00
C930   C     0.77668   0.15743   0.54761   0.00000  Uiso   1.00
C931   C     0.92696   0.16422   0.97942   0.00000  Uiso   1.00
C932   C     0.74594   0.13639   0.52621   0.00000  Uiso   1.00
C933   C     0.84276   0.15434   0.97862   0.00000  Uiso   1.00
C934   C     0.82697   0.16093   0.52516   0.00000  Uiso   1.00
Cu935  Cu    0.71355   0.16667   0.75000   0.00000  Uiso   1.00
Cu936  Cu    0.95311   0.16666   0.75000   0.00000  Uiso   1.00
H937   H     0.93833   0.16714   0.54512   0.00000  Uiso   1.00
H938   H     0.74065   0.10843   0.96483   0.00000  Uiso   1.00
H939   H     0.67043   0.16496   0.97480   0.00000  Uiso   1.00
H940   H     0.67503   0.10908   0.53428   0.00000  Uiso   1.00
H941   H     0.85273   0.16458   0.58441   0.00000  Uiso   1.00
H942   H     0.82391   0.12330   0.92417   0.00000  Uiso   1.00
H943   H     0.92215   0.03727   0.75889   0.00000  Uiso   1.00
H944   H     0.74479   0.29601   0.74007   0.00000  Uiso   1.00
H945   H     0.92215   0.29595   0.75896   0.00000  Uiso   1.00
H946   H     0.74475   0.03734   0.74021   0.00000  Uiso   1.00
H947   H     0.86894   0.10558   0.77493   0.00000  Uiso   1.00
H948   H     0.79705   0.22833   0.72730   0.00000  Uiso   1.00
H949   H     0.78276   0.10553   0.77474   0.00000  Uiso   1.00
H950   H     0.88376   0.22793   0.72562   0.00000  Uiso   1.00
N951   N     0.78403   0.16668   0.74999   0.00000  Uiso   1.00
N952   N     0.88264   0.16666   0.75001   0.00000  Uiso   1.00
O953   O     0.70625   0.10655   0.75000   0.00000  Uiso   1.00
O954   O     0.96042   0.22678   0.75000   0.00000  Uiso   1.00
O955   O     0.96039   0.10654   0.75001   0.00000  Uiso   1.00
O956   O     0.70628   0.22679   0.75000   0.00000  Uiso   1.00
O957   O     0.68519   0.16668   0.81492   0.00000  Uiso   1.00
O958   O     0.98148   0.16666   0.68509   0.00000  Uiso   1.00
O959   O     0.93933   0.16667   0.81492   0.00000  Uiso   1.00
O960   O     0.72733   0.16667   0.68508   0.00000  Uiso   1.00
C961   C     0.77241   0.21608   0.60031   0.00000  Uiso   1.00
C962   C     0.79977   0.22227   0.63096   0.00000  Uiso   1.00
C963   C     0.81484   0.26192   0.63867   0.00000  Uiso   1.00
C964   C     0.80196   0.29573   0.61660   0.00000  Uiso   1.00
C965   C     0.77450   0.28995   0.58633   0.00000  Uiso   1.00
C966   C     0.75995   0.25035   0.57807   0.00000  Uiso   1.00
H967   H     0.81026   0.19646   0.64820   0.00000  Uiso   1.00
H968   H     0.83671   0.26651   0.66161   0.00000  Uiso   1.00
H969   H     0.81343   0.32639   0.62282   0.00000  Uiso   1.00
H970   H     0.76461   0.31615   0.56913   0.00000  Uiso   1.00
H971   H     0.73880   0.24632   0.55437   0.00000  Uiso   1.00
C972   C     0.87409   0.19788   0.89096   0.00000  Uiso   1.00
C973   C     0.84424   0.18260   0.86547   0.00000  Uiso   1.00
C974   C     0.81232   0.20888   0.85178   0.00000  Uiso   1.00
C975   C     0.81078   0.25072   0.86223   0.00000  Uiso   1.00
C976   C     0.84085   0.26636   0.88684   0.00000  Uiso   1.00
C977   C     0.87215   0.24007   0.90136   0.00000  Uiso   1.00
H978   H     0.84568   0.15048   0.85611   0.00000  Uiso   1.00
H979   H     0.78869   0.19683   0.83307   0.00000  Uiso   1.00
H980   H     0.78623   0.27100   0.85130   0.00000  Uiso   1.00
H981   H     0.83964   0.29879   0.89500   0.00000  Uiso   1.00
H982   H     0.89478   0.25252   0.92097   0.00000  Uiso   1.00
F983   F     0.96941   0.12322   0.61800   0.00000  Uiso   1.00
F984   F     0.70635   0.16161   0.88951   0.00000  Uiso   1.00
C985   C     0.00002   0.42069   0.74991   0.00000  Uiso   1.00
C986   C     0.00006   0.57930   0.74985   0.00000  Uiso   1.00
C987   C     0.19582   0.49873   0.54851   0.00000  Uiso   1.00
C988   C     0.14427   0.46816   0.95773   0.00000  Uiso   1.00
C989   C     0.24525   0.49888   0.52602   0.00000  Uiso   1.00
C990   C     0.09687   0.45833   0.98149   0.00000  Uiso   1.00
C991   C     0.28970   0.35459   0.75470   0.00000  Uiso   1.00
C992   C     0.04389   0.64536   0.74434   0.00000  Uiso   1.00
C993   C     0.28971   0.64533   0.75471   0.00000  Uiso   1.00
C994   C     0.04387   0.35463   0.74441   0.00000  Uiso   1.00
C995   C     0.00012   0.62390   0.74961   0.00000  Uiso   1.00
C996   C     0.00009   0.37607   0.74967   0.00000  Uiso   1.00
C997   C     0.18735   0.46603   0.76350   0.00000  Uiso   1.00
C998   C     0.14581   0.53412   0.73714   0.00000  Uiso   1.00
C999   C     0.13786   0.46602   0.76344   0.00000  Uiso   1.00
C1000  C     0.19545   0.53398   0.73662   0.00000  Uiso   1.00
C1001  C     0.30573   0.50098   0.83618   0.00000  Uiso   1.00
C1002  C     0.02746   0.49987   0.66399   0.00000  Uiso   1.00
C1003  C     0.29001   0.50095   0.88560   0.00000  Uiso   1.00
C1004  C     0.04293   0.49399   0.61542   0.00000  Uiso   1.00
C1005  C     0.30980   0.49809   0.95664   0.00000  Uiso   1.00
C1006  C     0.03158   0.45974   0.54996   0.00000  Uiso   1.00
C1007  C     0.32461   0.49730   0.91016   0.00000  Uiso   1.00
C1008  C     0.01421   0.47013   0.59480   0.00000  Uiso   1.00
C1009  C     0.23989   0.50413   0.90892   0.00000  Uiso   1.00
C1010  C     0.08926   0.50785   0.59035   0.00000  Uiso   1.00
C1011  C     0.22520   0.49571   0.95523   0.00000  Uiso   1.00
C1012  C     0.11001   0.49076   0.54761   0.00000  Uiso   1.00
C1013  C     0.26030   0.49755   0.97942   0.00000  Uiso   1.00
C1014  C     0.07927   0.46972   0.52621   0.00000  Uiso   1.00
C1015  C     0.17609   0.48767   0.97862   0.00000  Uiso   1.00
C1016  C     0.16030   0.49427   0.52516   0.00000  Uiso   1.00
Cu1017 Cu    0.04689   0.50001   0.75000   0.00000  Uiso   1.00
Cu1018 Cu    0.28645   0.49999   0.75000   0.00000  Uiso   1.00
H1019  H     0.27166   0.50048   0.54512   0.00000  Uiso   1.00
H1020  H     0.07398   0.44177   0.96483   0.00000  Uiso   1.00
H1021  H     0.00376   0.49829   0.97480   0.00000  Uiso   1.00
H1022  H     0.00837   0.44241   0.53428   0.00000  Uiso   1.00
H1023  H     0.18607   0.49792   0.58441   0.00000  Uiso   1.00
H1024  H     0.15724   0.45663   0.92417   0.00000  Uiso   1.00
H1025  H     0.25548   0.37060   0.75889   0.00000  Uiso   1.00
H1026  H     0.07812   0.62934   0.74007   0.00000  Uiso   1.00
H1027  H     0.25548   0.62929   0.75896   0.00000  Uiso   1.00
H1028  H     0.07808   0.37068   0.74021   0.00000  Uiso   1.00
H1029  H     0.20227   0.43891   0.77493   0.00000  Uiso   1.00
H1030  H     0.13038   0.56166   0.72730   0.00000  Uiso   1.00
H1031  H     0.11609   0.43886   0.77474   0.00000  Uiso   1.00
H1032  H     0.21709   0.56126   0.72562   0.00000  Uiso   1.00
N1033  N     0.11736   0.50001   0.74999   0.00000  Uiso   1.00
N1034  N     0.21597   0.49999   0.75001   0.00000  Uiso   1.00
O1035  O     0.03958   0.43989   0.75000   0.00000  Uiso   1.00
O1036  O     0.29375   0.56011   0.75000   0.00000  Uiso   1.00
O1037  O     0.29372   0.43988   0.75001   0.00000  Uiso   1.00
O1038  O     0.03961   0.56012   0.75000   0.00000  Uiso   1.00
O1039  O     0.01852   0.50001   0.81492   0.00000  Uiso   1.00
O1040  O     0.31481   0.49999   0.68509   0.00000  Uiso   1.00
O1041  O     0.27267   0.50000   0.81492   0.00000  Uiso   1.00
O1042  O     0.06067   0.50000   0.68508   0.00000  Uiso   1.00
C1043  C     0.10574   0.54942   0.60031   0.00000  Uiso   1.00
C1044  C     0.13310   0.55560   0.63096   0.00000  Uiso   1.00
C1045  C     0.14817   0.59525   0.63867   0.00000  Uiso   1.00
C1046  C     0.13529   0.62907   0.61660   0.00000  Uiso   1.00
C1047  C     0.10783   0.62329   0.58633   0.00000  Uiso   1.00
C1048  C     0.09328   0.58368   0.57807   0.00000  Uiso   1.00
H1049  H     0.14360   0.52979   0.64820   0.00000  Uiso   1.00
H1050  H     0.17005   0.59984   0.66161   0.00000  Uiso   1.00
H1051  H     0.14676   0.65972   0.62282   0.00000  Uiso   1.00
H1052  H     0.09795   0.64948   0.56913   0.00000  Uiso   1.00
H1053  H     0.07214   0.57965   0.55437   0.00000  Uiso   1.00
C1054  C     0.20742   0.53121   0.89096   0.00000  Uiso   1.00
C1055  C     0.17757   0.51593   0.86547   0.00000  Uiso   1.00
C1056  C     0.14565   0.54221   0.85178   0.00000  Uiso   1.00
C1057  C     0.14411   0.58406   0.86223   0.00000  Uiso   1.00
C1058  C     0.17419   0.59969   0.88684   0.00000  Uiso   1.00
C1059  C     0.20548   0.57340   0.90136   0.00000  Uiso   1.00
H1060  H     0.17901   0.48381   0.85611   0.00000  Uiso   1.00
H1061  H     0.12202   0.53016   0.83307   0.00000  Uiso   1.00
H1062  H     0.11957   0.60434   0.85130   0.00000  Uiso   1.00
H1063  H     0.17297   0.63212   0.89500   0.00000  Uiso   1.00
H1064  H     0.22811   0.58585   0.92097   0.00000  Uiso   1.00
F1065  F     0.30274   0.45655   0.61800   0.00000  Uiso   1.00
F1066  F     0.03968   0.49494   0.88951   0.00000  Uiso   1.00
C1067  C     0.33335   0.42069   0.74991   0.00000  Uiso   1.00
C1068  C     0.33339   0.57930   0.74985   0.00000  Uiso   1.00
C1069  C     0.52915   0.49873   0.54851   0.00000  Uiso   1.00
C1070  C     0.47760   0.46816   0.95773   0.00000  Uiso   1.00
C1071  C     0.57859   0.49888   0.52602   0.00000  Uiso   1.00
C1072  C     0.43021   0.45833   0.98149   0.00000  Uiso   1.00
C1073  C     0.62304   0.35459   0.75470   0.00000  Uiso   1.00
C1074  C     0.37722   0.64536   0.74434   0.00000  Uiso   1.00
C1075  C     0.62304   0.64533   0.75471   0.00000  Uiso   1.00
C1076  C     0.37720   0.35463   0.74441   0.00000  Uiso   1.00
C1077  C     0.33345   0.62390   0.74961   0.00000  Uiso   1.00
C1078  C     0.33343   0.37607   0.74967   0.00000  Uiso   1.00
C1079  C     0.52068   0.46603   0.76350   0.00000  Uiso   1.00
C1080  C     0.47915   0.53412   0.73714   0.00000  Uiso   1.00
C1081  C     0.47120   0.46602   0.76344   0.00000  Uiso   1.00
C1082  C     0.52878   0.53398   0.73662   0.00000  Uiso   1.00
C1083  C     0.63907   0.50098   0.83618   0.00000  Uiso   1.00
C1084  C     0.36079   0.49987   0.66399   0.00000  Uiso   1.00
C1085  C     0.62334   0.50095   0.88560   0.00000  Uiso   1.00
C1086  C     0.37627   0.49399   0.61542   0.00000  Uiso   1.00
C1087  C     0.64313   0.49809   0.95664   0.00000  Uiso   1.00
C1088  C     0.36492   0.45974   0.54996   0.00000  Uiso   1.00
C1089  C     0.65794   0.49730   0.91016   0.00000  Uiso   1.00
C1090  C     0.34754   0.47013   0.59480   0.00000  Uiso   1.00
C1091  C     0.57322   0.50413   0.90892   0.00000  Uiso   1.00
C1092  C     0.42260   0.50785   0.59035   0.00000  Uiso   1.00
C1093  C     0.55854   0.49571   0.95523   0.00000  Uiso   1.00
C1094  C     0.44334   0.49076   0.54761   0.00000  Uiso   1.00
C1095  C     0.59363   0.49755   0.97942   0.00000  Uiso   1.00
C1096  C     0.41261   0.46972   0.52621   0.00000  Uiso   1.00
C1097  C     0.50942   0.48767   0.97862   0.00000  Uiso   1.00
C1098  C     0.49364   0.49427   0.52516   0.00000  Uiso   1.00
Cu1099 Cu    0.38022   0.50001   0.75000   0.00000  Uiso   1.00
Cu1100 Cu    0.61978   0.49999   0.75000   0.00000  Uiso   1.00
H1101  H     0.60500   0.50048   0.54512   0.00000  Uiso   1.00
H1102  H     0.40731   0.44177   0.96483   0.00000  Uiso   1.00
H1103  H     0.33709   0.49829   0.97480   0.00000  Uiso   1.00
H1104  H     0.34170   0.44241   0.53428   0.00000  Uiso   1.00
H1105  H     0.51940   0.49792   0.58441   0.00000  Uiso   1.00
H1106  H     0.49057   0.45663   0.92417   0.00000  Uiso   1.00
H1107  H     0.58882   0.37060   0.75889   0.00000  Uiso   1.00
H1108  H     0.41145   0.62934   0.74007   0.00000  Uiso   1.00
H1109  H     0.58881   0.62929   0.75896   0.00000  Uiso   1.00
H1110  H     0.41141   0.37068   0.74021   0.00000  Uiso   1.00
H1111  H     0.53561   0.43891   0.77493   0.00000  Uiso   1.00
H1112  H     0.46372   0.56166   0.72730   0.00000  Uiso   1.00
H1113  H     0.44942   0.43886   0.77474   0.00000  Uiso   1.00
H1114  H     0.55043   0.56126   0.72562   0.00000  Uiso   1.00
N1115  N     0.45069   0.50001   0.74999   0.00000  Uiso   1.00
N1116  N     0.54931   0.49999   0.75001   0.00000  Uiso   1.00
O1117  O     0.37291   0.43989   0.75000   0.00000  Uiso   1.00
O1118  O     0.62709   0.56011   0.75000   0.00000  Uiso   1.00
O1119  O     0.62706   0.43988   0.75001   0.00000  Uiso   1.00
O1120  O     0.37294   0.56012   0.75000   0.00000  Uiso   1.00
O1121  O     0.35186   0.50001   0.81492   0.00000  Uiso   1.00
O1122  O     0.64814   0.49999   0.68509   0.00000  Uiso   1.00
O1123  O     0.60600   0.50000   0.81492   0.00000  Uiso   1.00
O1124  O     0.39400   0.50000   0.68508   0.00000  Uiso   1.00
C1125  C     0.43908   0.54942   0.60031   0.00000  Uiso   1.00
C1126  C     0.46643   0.55560   0.63096   0.00000  Uiso   1.00
C1127  C     0.48150   0.59525   0.63867   0.00000  Uiso   1.00
C1128  C     0.46862   0.62907   0.61660   0.00000  Uiso   1.00
C1129  C     0.44116   0.62329   0.58633   0.00000  Uiso   1.00
C1130  C     0.42661   0.58368   0.57807   0.00000  Uiso   1.00
H1131  H     0.47693   0.52979   0.64820   0.00000  Uiso   1.00
H1132  H     0.50338   0.59984   0.66161   0.00000  Uiso   1.00
H1133  H     0.48010   0.65972   0.62282   0.00000  Uiso   1.00
H1134  H     0.43128   0.64948   0.56913   0.00000  Uiso   1.00
H1135  H     0.40547   0.57965   0.55437   0.00000  Uiso   1.00
C1136  C     0.54075   0.53121   0.89096   0.00000  Uiso   1.00
C1137  C     0.51091   0.51593   0.86547   0.00000  Uiso   1.00
C1138  C     0.47898   0.54221   0.85178   0.00000  Uiso   1.00
C1139  C     0.47744   0.58406   0.86223   0.00000  Uiso   1.00
C1140  C     0.50752   0.59969   0.88684   0.00000  Uiso   1.00
C1141  C     0.53882   0.57340   0.90136   0.00000  Uiso   1.00
H1142  H     0.51235   0.48381   0.85611   0.00000  Uiso   1.00
H1143  H     0.45535   0.53016   0.83307   0.00000  Uiso   1.00
H1144  H     0.45290   0.60434   0.85130   0.00000  Uiso   1.00
H1145  H     0.50630   0.63212   0.89500   0.00000  Uiso   1.00
H1146  H     0.56145   0.58585   0.92097   0.00000  Uiso   1.00
F1147  F     0.63607   0.45655   0.61800   0.00000  Uiso   1.00
F1148  F     0.37301   0.49494   0.88951   0.00000  Uiso   1.00
C1149  C     0.66669   0.42069   0.74991   0.00000  Uiso   1.00
C1150  C     0.66673   0.57930   0.74985   0.00000  Uiso   1.00
C1151  C     0.86248   0.49873   0.54851   0.00000  Uiso   1.00
C1152  C     0.81093   0.46816   0.95773   0.00000  Uiso   1.00
C1153  C     0.91192   0.49888   0.52602   0.00000  Uiso   1.00
C1154  C     0.76354   0.45833   0.98149   0.00000  Uiso   1.00
C1155  C     0.95637   0.35459   0.75470   0.00000  Uiso   1.00
C1156  C     0.71056   0.64536   0.74434   0.00000  Uiso   1.00
C1157  C     0.95637   0.64533   0.75471   0.00000  Uiso   1.00
C1158  C     0.71053   0.35463   0.74441   0.00000  Uiso   1.00
C1159  C     0.66679   0.62390   0.74961   0.00000  Uiso   1.00
C1160  C     0.66676   0.37607   0.74967   0.00000  Uiso   1.00
C1161  C     0.85401   0.46603   0.76350   0.00000  Uiso   1.00
C1162  C     0.81248   0.53412   0.73714   0.00000  Uiso   1.00
C1163  C     0.80453   0.46602   0.76344   0.00000  Uiso   1.00
C1164  C     0.86211   0.53398   0.73662   0.00000  Uiso   1.00
C1165  C     0.97240   0.50098   0.83618   0.00000  Uiso   1.00
C1166  C     0.69413   0.49987   0.66399   0.00000  Uiso   1.00
C1167  C     0.95667   0.50095   0.88560   0.00000  Uiso   1.00
C1168  C     0.70960   0.49399   0.61542   0.00000  Uiso   1.00
C1169  C     0.97646   0.49809   0.95664   0.00000  Uiso   1.00
C1170  C     0.69825   0.45974   0.54996   0.00000  Uiso   1.00
C1171  C     0.99127   0.49730   0.91016   0.00000  Uiso   1.00
C1172  C     0.68088   0.47013   0.59480   0.00000  Uiso   1.00
C1173  C     0.90655   0.50413   0.90892   0.00000  Uiso   1.00
C1174  C     0.75593   0.50785   0.59035   0.00000  Uiso   1.00
C1175  C     0.89187   0.49571   0.95523   0.00000  Uiso   1.00
C1176  C     0.77668   0.49076   0.54761   0.00000  Uiso   1.00
C1177  C     0.92696   0.49755   0.97942   0.00000  Uiso   1.00
C1178  C     0.74594   0.46972   0.52621   0.00000  Uiso   1.00
C1179  C     0.84276   0.48767   0.97862   0.00000  Uiso   1.00
C1180  C     0.82697   0.49427   0.52516   0.00000  Uiso   1.00
Cu1181 Cu    0.71355   0.50001   0.75000   0.00000  Uiso   1.00
Cu1182 Cu    0.95311   0.49999   0.75000   0.00000  Uiso   1.00
H1183  H     0.93833   0.50048   0.54512   0.00000  Uiso   1.00
H1184  H     0.74065   0.44177   0.96483   0.00000  Uiso   1.00
H1185  H     0.67043   0.49829   0.97480   0.00000  Uiso   1.00
H1186  H     0.67503   0.44241   0.53428   0.00000  Uiso   1.00
H1187  H     0.85273   0.49792   0.58441   0.00000  Uiso   1.00
H1188  H     0.82391   0.45663   0.92417   0.00000  Uiso   1.00
H1189  H     0.92215   0.37060   0.75889   0.00000  Uiso   1.00
H1190  H     0.74479   0.62934   0.74007   0.00000  Uiso   1.00
H1191  H     0.92215   0.62929   0.75896   0.00000  Uiso   1.00
H1192  H     0.74475   0.37068   0.74021   0.00000  Uiso   1.00
H1193  H     0.86894   0.43891   0.77493   0.00000  Uiso   1.00
H1194  H     0.79705   0.56166   0.72730   0.00000  Uiso   1.00
H1195  H     0.78276   0.43886   0.77474   0.00000  Uiso   1.00
H1196  H     0.88376   0.56126   0.72562   0.00000  Uiso   1.00
N1197  N     0.78403   0.50001   0.74999   0.00000  Uiso   1.00
N1198  N     0.88264   0.49999   0.75001   0.00000  Uiso   1.00
O1199  O     0.70625   0.43989   0.75000   0.00000  Uiso   1.00
O1200  O     0.96042   0.56011   0.75000   0.00000  Uiso   1.00
O1201  O     0.96039   0.43988   0.75001   0.00000  Uiso   1.00
O1202  O     0.70628   0.56012   0.75000   0.00000  Uiso   1.00
O1203  O     0.68519   0.50001   0.81492   0.00000  Uiso   1.00
O1204  O     0.98148   0.49999   0.68509   0.00000  Uiso   1.00
O1205  O     0.93933   0.50000   0.81492   0.00000  Uiso   1.00
O1206  O     0.72733   0.50000   0.68508   0.00000  Uiso   1.00
C1207  C     0.77241   0.54942   0.60031   0.00000  Uiso   1.00
C1208  C     0.79977   0.55560   0.63096   0.00000  Uiso   1.00
C1209  C     0.81484   0.59525   0.63867   0.00000  Uiso   1.00
C1210  C     0.80196   0.62907   0.61660   0.00000  Uiso   1.00
C1211  C     0.77450   0.62329   0.58633   0.00000  Uiso   1.00
C1212  C     0.75995   0.58368   0.57807   0.00000  Uiso   1.00
H1213  H     0.81026   0.52979   0.64820   0.00000  Uiso   1.00
H1214  H     0.83671   0.59984   0.66161   0.00000  Uiso   1.00
H1215  H     0.81343   0.65972   0.62282   0.00000  Uiso   1.00
H1216  H     0.76461   0.64948   0.56913   0.00000  Uiso   1.00
H1217  H     0.73880   0.57965   0.55437   0.00000  Uiso   1.00
C1218  C     0.87409   0.53121   0.89096   0.00000  Uiso   1.00
C1219  C     0.84424   0.51593   0.86547   0.00000  Uiso   1.00
C1220  C     0.81232   0.54221   0.85178   0.00000  Uiso   1.00
C1221  C     0.81078   0.58406   0.86223   0.00000  Uiso   1.00
C1222  C     0.84085   0.59969   0.88684   0.00000  Uiso   1.00
C1223  C     0.87215   0.57340   0.90136   0.00000  Uiso   1.00
H1224  H     0.84568   0.48381   0.85611   0.00000  Uiso   1.00
H1225  H     0.78869   0.53016   0.83307   0.00000  Uiso   1.00
H1226  H     0.78623   0.60434   0.85130   0.00000  Uiso   1.00
H1227  H     0.83964   0.63212   0.89500   0.00000  Uiso   1.00
H1228  H     0.89478   0.58585   0.92097   0.00000  Uiso   1.00
F1229  F     0.96941   0.45655   0.61800   0.00000  Uiso   1.00
F1230  F     0.70635   0.49494   0.88951   0.00000  Uiso   1.00
C1231  C     0.00002   0.75403   0.74991   0.00000  Uiso   1.00
C1232  C     0.00006   0.91263   0.74985   0.00000  Uiso   1.00
C1233  C     0.19582   0.83207   0.54851   0.00000  Uiso   1.00
C1234  C     0.14427   0.80149   0.95773   0.00000  Uiso   1.00
C1235  C     0.24525   0.83222   0.52602   0.00000  Uiso   1.00
C1236  C     0.09687   0.79166   0.98149   0.00000  Uiso   1.00
C1237  C     0.28970   0.68793   0.75470   0.00000  Uiso   1.00
C1238  C     0.04389   0.97870   0.74434   0.00000  Uiso   1.00
C1239  C     0.28971   0.97867   0.75471   0.00000  Uiso   1.00
C1240  C     0.04387   0.68796   0.74441   0.00000  Uiso   1.00
C1241  C     0.00012   0.95724   0.74961   0.00000  Uiso   1.00
C1242  C     0.00009   0.70940   0.74967   0.00000  Uiso   1.00
C1243  C     0.18735   0.79937   0.76350   0.00000  Uiso   1.00
C1244  C     0.14581   0.86745   0.73714   0.00000  Uiso   1.00
C1245  C     0.13786   0.79936   0.76344   0.00000  Uiso   1.00
C1246  C     0.19545   0.86731   0.73662   0.00000  Uiso   1.00
C1247  C     0.30573   0.83432   0.83618   0.00000  Uiso   1.00
C1248  C     0.02746   0.83321   0.66399   0.00000  Uiso   1.00
C1249  C     0.29001   0.83428   0.88560   0.00000  Uiso   1.00
C1250  C     0.04293   0.82733   0.61542   0.00000  Uiso   1.00
C1251  C     0.30980   0.83142   0.95664   0.00000  Uiso   1.00
C1252  C     0.03158   0.79308   0.54996   0.00000  Uiso   1.00
C1253  C     0.32461   0.83063   0.91016   0.00000  Uiso   1.00
C1254  C     0.01421   0.80347   0.59480   0.00000  Uiso   1.00
C1255  C     0.23989   0.83746   0.90892   0.00000  Uiso   1.00
C1256  C     0.08926   0.84119   0.59035   0.00000  Uiso   1.00
C1257  C     0.22520   0.82904   0.95523   0.00000  Uiso   1.00
C1258  C     0.11001   0.82410   0.54761   0.00000  Uiso   1.00
C1259  C     0.26030   0.83089   0.97942   0.00000  Uiso   1.00
C1260  C     0.07927   0.80305   0.52621   0.00000  Uiso   1.00
C1261  C     0.17609   0.82101   0.97862   0.00000  Uiso   1.00
C1262  C     0.16030   0.82760   0.52516   0.00000  Uiso   1.00
Cu1263 Cu    0.04689   0.83334   0.75000   0.00000  Uiso   1.00
Cu1264 Cu    0.28645   0.83333   0.75000   0.00000  Uiso   1.00
H1265  H     0.27166   0.83381   0.54512   0.00000  Uiso   1.00
H1266  H     0.07398   0.77510   0.96483   0.00000  Uiso   1.00
H1267  H     0.00376   0.83162   0.97480   0.00000  Uiso   1.00
H1268  H     0.00837   0.77574   0.53428   0.00000  Uiso   1.00
H1269  H     0.18607   0.83125   0.58441   0.00000  Uiso   1.00
H1270  H     0.15724   0.78996   0.92417   0.00000  Uiso   1.00
H1271  H     0.25548   0.70393   0.75889   0.00000  Uiso   1.00
H1272  H     0.07812   0.96268   0.74007   0.00000  Uiso   1.00
H1273  H     0.25548   0.96262   0.75896   0.00000  Uiso   1.00
H1274  H     0.07808   0.70401   0.74021   0.00000  Uiso   1.00
H1275  H     0.20227   0.77224   0.77493   0.00000  Uiso   1.00
H1276  H     0.13038   0.89500   0.72730   0.00000  Uiso   1.00
H1277  H     0.11609   0.77219   0.77474   0.00000  Uiso   1.00
H1278  H     0.21709   0.89460   0.72562   0.00000  Uiso   1.00
N1279  N     0.11736   0.83334   0.74999   0.00000  Uiso   1.00
N1280  N     0.21597   0.83332   0.75001   0.00000  Uiso   1.00
O1281  O     0.03958   0.77322   0.75000   0.00000  Uiso   1.00
O1282  O     0.29375   0.89345   0.75000   0.00000  Uiso   1.00
O1283  O     0.29372   0.77321   0.75001   0.00000  Uiso   1.00
O1284  O     0.03961   0.89346   0.75000   0.00000  Uiso   1.00
O1285  O     0.01852   0.83334   0.81492   0.00000  Uiso   1.00
O1286  O     0.31481   0.83332   0.68509   0.00000  Uiso   1.00
O1287  O     0.27267   0.83333   0.81492   0.00000  Uiso   1.00
O1288  O     0.06067   0.83333   0.68508   0.00000  Uiso   1.00
C1289  C     0.10574   0.88275   0.60031   0.00000  Uiso   1.00
C1290  C     0.13310   0.88894   0.63096   0.00000  Uiso   1.00
C1291  C     0.14817   0.92859   0.63867   0.00000  Uiso   1.00
C1292  C     0.13529   0.96240   0.61660   0.00000  Uiso   1.00
C1293  C     0.10783   0.95662   0.58633   0.00000  Uiso   1.00
C1294  C     0.09328   0.91701   0.57807   0.00000  Uiso   1.00
H1295  H     0.14360   0.86312   0.64820   0.00000  Uiso   1.00
H1296  H     0.17005   0.93317   0.66161   0.00000  Uiso   1.00
H1297  H     0.14676   0.99305   0.62282   0.00000  Uiso   1.00
H1298  H     0.09795   0.98282   0.56913   0.00000  Uiso   1.00
H1299  H     0.07214   0.91298   0.55437   0.00000  Uiso   1.00
C1300  C     0.20742   0.86455   0.89096   0.00000  Uiso   1.00
C1301  C     0.17757   0.84926   0.86547   0.00000  Uiso   1.00
C1302  C     0.14565   0.87555   0.85178   0.00000  Uiso   1.00
C1303  C     0.14411   0.91739   0.86223   0.00000  Uiso   1.00
C1304  C     0.17419   0.93302   0.88684   0.00000  Uiso   1.00
C1305  C     0.20548   0.90673   0.90136   0.00000  Uiso   1.00
H1306  H     0.17901   0.81714   0.85611   0.00000  Uiso   1.00
H1307  H     0.12202   0.86349   0.83307   0.00000  Uiso   1.00
H1308  H     0.11957   0.93767   0.85130   0.00000  Uiso   1.00
H1309  H     0.17297   0.96546   0.89500   0.00000  Uiso   1.00
H1310  H     0.22811   0.91919   0.92097   0.00000  Uiso   1.00
F1311  F     0.30274   0.78988   0.61800   0.00000  Uiso   1.00
F1312  F     0.03968   0.82827   0.88951   0.00000  Uiso   1.00
C1313  C     0.33335   0.75403   0.74991   0.00000  Uiso   1.00
C1314  C     0.33339   0.91263   0.74985   0.00000  Uiso   1.00
C1315  C     0.52915   0.83207   0.54851   0.00000  Uiso   1.00
C1316  C     0.47760   0.80149   0.95773   0.00000  Uiso   1.00
C1317  C     0.57859   0.83222   0.52602   0.00000  Uiso   1.00
C1318  C     0.43021   0.79166   0.98149   0.00000  Uiso   1.00
C1319  C     0.62304   0.68793   0.75470   0.00000  Uiso   1.00
C1320  C     0.37722   0.97870   0.74434   0.00000  Uiso   1.00
C1321  C     0.62304   0.97867   0.75471   0.00000  Uiso   1.00
C1322  C     0.37720   0.68796   0.74441   0.00000  Uiso   1.00
C1323  C     0.33345   0.95724   0.74961   0.00000  Uiso   1.00
C1324  C     0.33343   0.70940   0.74967   0.00000  Uiso   1.00
C1325  C     0.52068   0.79937   0.76350   0.00000  Uiso   1.00
C1326  C     0.47915   0.86745   0.73714   0.00000  Uiso   1.00
C1327  C     0.47120   0.79936   0.76344   0.00000  Uiso   1.00
C1328  C     0.52878   0.86731   0.73662   0.00000  Uiso   1.00
C1329  C     0.63907   0.83432   0.83618   0.00000  Uiso   1.00
C1330  C     0.36079   0.83321   0.66399   0.00000  Uiso   1.00
C1331  C     0.62334   0.83428   0.88560   0.00000  Uiso   1.00
C1332  C     0.37627   0.82733   0.61542   0.00000  Uiso   1.00
C1333  C     0.64313   0.83142   0.95664   0.00000  Uiso   1.00
C1334  C     0.36492   0.79308   0.54996   0.00000  Uiso   1.00
C1335  C     0.65794   0.83063   0.91016   0.00000  Uiso   1.00
C1336  C     0.34754   0.80347   0.59480   0.00000  Uiso   1.00
C1337  C     0.57322   0.83746   0.90892   0.00000  Uiso   1.00
C1338  C     0.42260   0.84119   0.59035   0.00000  Uiso   1.00
C1339  C     0.55854   0.82904   0.95523   0.00000  Uiso   1.00
C1340  C     0.44334   0.82410   0.54761   0.00000  Uiso   1.00
C1341  C     0.59363   0.83089   0.97942   0.00000  Uiso   1.00
C1342  C     0.41261   0.80305   0.52621   0.00000  Uiso   1.00
C1343  C     0.50942   0.82101   0.97862   0.00000  Uiso   1.00
C1344  C     0.49364   0.82760   0.52516   0.00000  Uiso   1.00
Cu1345 Cu    0.38022   0.83334   0.75000   0.00000  Uiso   1.00
Cu1346 Cu    0.61978   0.83333   0.75000   0.00000  Uiso   1.00
H1347  H     0.60500   0.83381   0.54512   0.00000  Uiso   1.00
H1348  H     0.40731   0.77510   0.96483   0.00000  Uiso   1.00
H1349  H     0.33709   0.83162   0.97480   0.00000  Uiso   1.00
H1350  H     0.34170   0.77574   0.53428   0.00000  Uiso   1.00
H1351  H     0.51940   0.83125   0.58441   0.00000  Uiso   1.00
H1352  H     0.49057   0.78996   0.92417   0.00000  Uiso   1.00
H1353  H     0.58882   0.70393   0.75889   0.00000  Uiso   1.00
H1354  H     0.41145   0.96268   0.74007   0.00000  Uiso   1.00
H1355  H     0.58881   0.96262   0.75896   0.00000  Uiso   1.00
H1356  H     0.41141   0.70401   0.74021   0.00000  Uiso   1.00
H1357  H     0.53561   0.77224   0.77493   0.00000  Uiso   1.00
H1358  H     0.46372   0.89500   0.72730   0.00000  Uiso   1.00
H1359  H     0.44942   0.77219   0.77474   0.00000  Uiso   1.00
H1360  H     0.55043   0.89460   0.72562   0.00000  Uiso   1.00
N1361  N     0.45069   0.83334   0.74999   0.00000  Uiso   1.00
N1362  N     0.54931   0.83332   0.75001   0.00000  Uiso   1.00
O1363  O     0.37291   0.77322   0.75000   0.00000  Uiso   1.00
O1364  O     0.62709   0.89345   0.75000   0.00000  Uiso   1.00
O1365  O     0.62706   0.77321   0.75001   0.00000  Uiso   1.00
O1366  O     0.37294   0.89346   0.75000   0.00000  Uiso   1.00
O1367  O     0.35186   0.83334   0.81492   0.00000  Uiso   1.00
O1368  O     0.64814   0.83332   0.68509   0.00000  Uiso   1.00
O1369  O     0.60600   0.83333   0.81492   0.00000  Uiso   1.00
O1370  O     0.39400   0.83333   0.68508   0.00000  Uiso   1.00
C1371  C     0.43908   0.88275   0.60031   0.00000  Uiso   1.00
C1372  C     0.46643   0.88894   0.63096   0.00000  Uiso   1.00
C1373  C     0.48150   0.92859   0.63867   0.00000  Uiso   1.00
C1374  C     0.46862   0.96240   0.61660   0.00000  Uiso   1.00
C1375  C     0.44116   0.95662   0.58633   0.00000  Uiso   1.00
C1376  C     0.42661   0.91701   0.57807   0.00000  Uiso   1.00
H1377  H     0.47693   0.86312   0.64820   0.00000  Uiso   1.00
H1378  H     0.50338   0.93317   0.66161   0.00000  Uiso   1.00
H1379  H     0.48010   0.99305   0.62282   0.00000  Uiso   1.00
H1380  H     0.43128   0.98282   0.56913   0.00000  Uiso   1.00
H1381  H     0.40547   0.91298   0.55437   0.00000  Uiso   1.00
C1382  C     0.54075   0.86455   0.89096   0.00000  Uiso   1.00
C1383  C     0.51091   0.84926   0.86547   0.00000  Uiso   1.00
C1384  C     0.47898   0.87555   0.85178   0.00000  Uiso   1.00
C1385  C     0.47744   0.91739   0.86223   0.00000  Uiso   1.00
C1386  C     0.50752   0.93302   0.88684   0.00000  Uiso   1.00
C1387  C     0.53882   0.90673   0.90136   0.00000  Uiso   1.00
H1388  H     0.51235   0.81714   0.85611   0.00000  Uiso   1.00
H1389  H     0.45535   0.86349   0.83307   0.00000  Uiso   1.00
H1390  H     0.45290   0.93767   0.85130   0.00000  Uiso   1.00
H1391  H     0.50630   0.96546   0.89500   0.00000  Uiso   1.00
H1392  H     0.56145   0.91919   0.92097   0.00000  Uiso   1.00
F1393  F     0.63607   0.78988   0.61800   0.00000  Uiso   1.00
F1394  F     0.37301   0.82827   0.88951   0.00000  Uiso   1.00
C1395  C     0.66669   0.75403   0.74991   0.00000  Uiso   1.00
C1396  C     0.66673   0.91263   0.74985   0.00000  Uiso   1.00
C1397  C     0.86248   0.83207   0.54851   0.00000  Uiso   1.00
C1398  C     0.81093   0.80149   0.95773   0.00000  Uiso   1.00
C1399  C     0.91192   0.83222   0.52602   0.00000  Uiso   1.00
C1400  C     0.76354   0.79166   0.98149   0.00000  Uiso   1.00
C1401  C     0.95637   0.68793   0.75470   0.00000  Uiso   1.00
C1402  C     0.71056   0.97870   0.74434   0.00000  Uiso   1.00
C1403  C     0.95637   0.97867   0.75471   0.00000  Uiso   1.00
C1404  C     0.71053   0.68796   0.74441   0.00000  Uiso   1.00
C1405  C     0.66679   0.95724   0.74961   0.00000  Uiso   1.00
C1406  C     0.66676   0.70940   0.74967   0.00000  Uiso   1.00
C1407  C     0.85401   0.79937   0.76350   0.00000  Uiso   1.00
C1408  C     0.81248   0.86745   0.73714   0.00000  Uiso   1.00
C1409  C     0.80453   0.79936   0.76344   0.00000  Uiso   1.00
C1410  C     0.86211   0.86731   0.73662   0.00000  Uiso   1.00
C1411  C     0.97240   0.83432   0.83618   0.00000  Uiso   1.00
C1412  C     0.69413   0.83321   0.66399   0.00000  Uiso   1.00
C1413  C     0.95667   0.83428   0.88560   0.00000  Uiso   1.00
C1414  C     0.70960   0.82733   0.61542   0.00000  Uiso   1.00
C1415  C     0.97646   0.83142   0.95664   0.00000  Uiso   1.00
C1416  C     0.69825   0.79308   0.54996   0.00000  Uiso   1.00
C1417  C     0.99127   0.83063   0.91016   0.00000  Uiso   1.00
C1418  C     0.68088   0.80347   0.59480   0.00000  Uiso   1.00
C1419  C     0.90655   0.83746   0.90892   0.00000  Uiso   1.00
C1420  C     0.75593   0.84119   0.59035   0.00000  Uiso   1.00
C1421  C     0.89187   0.82904   0.95523   0.00000  Uiso   1.00
C1422  C     0.77668   0.82410   0.54761   0.00000  Uiso   1.00
C1423  C     0.92696   0.83089   0.97942   0.00000  Uiso   1.00
C1424  C     0.74594   0.80305   0.52621   0.00000  Uiso   1.00
C1425  C     0.84276   0.82101   0.97862   0.00000  Uiso   1.00
C1426  C     0.82697   0.82760   0.52516   0.00000  Uiso   1.00
Cu1427 Cu    0.71355   0.83334   0.75000   0.00000  Uiso   1.00
Cu1428 Cu    0.95311   0.83333   0.75000   0.00000  Uiso   1.00
H1429  H     0.93833   0.83381   0.54512   0.00000  Uiso   1.00
H1430  H     0.74065   0.77510   0.96483   0.00000  Uiso   1.00
H1431  H     0.67043   0.83162   0.97480   0.00000  Uiso   1.00
H1432  H     0.67503   0.77574   0.53428   0.00000  Uiso   1.00
H1433  H     0.85273   0.83125   0.58441   0.00000  Uiso   1.00
H1434  H     0.82391   0.78996   0.92417   0.00000  Uiso   1.00
H1435  H     0.92215   0.70393   0.75889   0.00000  Uiso   1.00
H1436  H     0.74479   0.96268   0.74007   0.00000  Uiso   1.00
H1437  H     0.92215   0.96262   0.75896   0.00000  Uiso   1.00
H1438  H     0.74475   0.70401   0.74021   0.00000  Uiso   1.00
H1439  H     0.86894   0.77224   0.77493   0.00000  Uiso   1.00
H1440  H     0.79705   0.89500   0.72730   0.00000  Uiso   1.00
H1441  H     0.78276   0.77219   0.77474   0.00000  Uiso   1.00
H1442  H     0.88376   0.89460   0.72562   0.00000  Uiso   1.00
N1443  N     0.78403   0.83334   0.74999   0.00000  Uiso   1.00
N1444  N     0.88264   0.83332   0.75001   0.00000  Uiso   1.00
O1445  O     0.70625   0.77322   0.75000   0.00000  Uiso   1.00
O1446  O     0.96042   0.89345   0.75000   0.00000  Uiso   1.00
O1447  O     0.96039   0.77321   0.75001   0.00000  Uiso   1.00
O1448  O     0.70628   0.89346   0.75000   0.00000  Uiso   1.00
O1449  O     0.68519   0.83334   0.81492   0.00000  Uiso   1.00
O1450  O     0.98148   0.83332   0.68509   0.00000  Uiso   1.00
O1451  O     0.93933   0.83333   0.81492   0.00000  Uiso   1.00
O1452  O     0.72733   0.83333   0.68508   0.00000  Uiso   1.00
C1453  C     0.77241   0.88275   0.60031   0.00000  Uiso   1.00
C1454  C     0.79977   0.88894   0.63096   0.00000  Uiso   1.00
C1455  C     0.81484   0.92859   0.63867   0.00000  Uiso   1.00
C1456  C     0.80196   0.96240   0.61660   0.00000  Uiso   1.00
C1457  C     0.77450   0.95662   0.58633   0.00000  Uiso   1.00
C1458  C     0.75995   0.91701   0.57807   0.00000  Uiso   1.00
H1459  H     0.81026   0.86312   0.64820   0.00000  Uiso   1.00
H1460  H     0.83671   0.93317   0.66161   0.00000  Uiso   1.00
H1461  H     0.81343   0.99305   0.62282   0.00000  Uiso   1.00
H1462  H     0.76461   0.98282   0.56913   0.00000  Uiso   1.00
H1463  H     0.73880   0.91298   0.55437   0.00000  Uiso   1.00
C1464  C     0.87409   0.86455   0.89096   0.00000  Uiso   1.00
C1465  C     0.84424   0.84926   0.86547   0.00000  Uiso   1.00
C1466  C     0.81232   0.87555   0.85178   0.00000  Uiso   1.00
C1467  C     0.81078   0.91739   0.86223   0.00000  Uiso   1.00
C1468  C     0.84085   0.93302   0.88684   0.00000  Uiso   1.00
C1469  C     0.87215   0.90673   0.90136   0.00000  Uiso   1.00
H1470  H     0.84568   0.81714   0.85611   0.00000  Uiso   1.00
H1471  H     0.78869   0.86349   0.83307   0.00000  Uiso   1.00
H1472  H     0.78623   0.93767   0.85130   0.00000  Uiso   1.00
H1473  H     0.83964   0.96546   0.89500   0.00000  Uiso   1.00
H1474  H     0.89478   0.91919   0.92097   0.00000  Uiso   1.00
F1475  F     0.96941   0.78988   0.61800   0.00000  Uiso   1.00
F1476  F     0.70635   0.82827   0.88951   0.00000  Uiso   1.00
loop_
_geom_bond_atom_site_label_1
_geom_bond_atom_site_label_2
_geom_bond_distance
_geom_bond_site_symmetry_2
_ccdc_geom_bond_type
C1     C12     1.449   .     S
C1     O51     1.291   .     A
C1     O217    1.291   1_455 S
C2     C11     1.448   .     S
C2     O54     1.291   .     A
C2     O216    1.291   1_455 S
C3     H39     1.076   .     S
C3     C32     1.410   .     A
C3     C5      1.393   .     A
C4     H40     1.077   .     S
C4     C6      1.389   .     A
C4     C31     1.407   .     A
C5     H35     1.083   .     S
C5     C767    1.397   1_554 S
C6     H36     1.084   .     S
C6     C768    1.395   .     S
C7     H41     1.083   .     S
C7     C501    1.383   1_545 S
C7     C94     1.401   .     S
C8     H42     1.083   .     S
C8     C11     1.401   .     A
C8     C256    1.383   .     S
C9     H43     1.083   .     S
C9     C253    1.383   .     S
C9     C93     1.401   .     S
C10    H44     1.083   .     S
C10    C12     1.401   .     A
C10    C500    1.383   1_545 S
C11    C173    1.401   1_455 S
C12    C171    1.401   1_455 S
C13    N50     1.367   .     A
C13    C15     1.414   .     A
C13    H45     1.080   .     S
C14    H46     1.078   .     S
C14    N49     1.366   .     A
C14    C16     1.413   .     A
C15    H47     1.080   .     S
C15    N49     1.367   .     A
C16    H48     1.080   .     S
C16    N50     1.367   .     A
C17    C19     1.480   .     S
C17    O57     1.295   .     A
C17    O137    1.302   .     S
C18    O58     1.294   .     A
C18    C20     1.468   .     S
C18    O220    1.297   1_455 S
C19    C23     1.412   .     A
C19    C25     1.420   .     A
C20    C24     1.407   .     A
C20    C26     1.412   .     A
C21    C29     1.397   .     A
C21    C23     1.393   .     A
C21    H119    1.082   .     S
C22    H38     1.084   .     S
C22    C24     1.390   .     A
C22    C30     1.397   .     A
C23    F164    1.357   .     S
C24    F245    1.358   1_455 S
C25    C27     1.413   .     A
C25    C70     1.493   .     S
C26    C59     1.491   .     S
C26    C28     1.414   .     A
C27    C29     1.412   .     A
C27    C31     1.415   .     A
C28    C32     1.419   .     A
C28    C30     1.417   .     A
C29    C743    1.397   .     S
C30    C744    1.395   1_554 S
C31    C770    1.412   .     S
C32    C769    1.412   1_554 S
Cu33   O55     1.961   .     S
Cu33   O58     1.951   .     S
Cu33   N49     2.013   .     S
Cu33   O54     1.963   .     S
Cu33   O51     1.963   .     S
Cu33   Cu198   2.679   1_455 S
Cu34   O56     1.961   .     S
Cu34   O57     1.951   .     S
Cu34   N50     2.013   .     S
Cu34   O52     1.963   .     S
Cu34   O53     1.963   .     S
Cu34   Cu115   2.679   .     S
H37    C185    1.082   1_455 S
O52    C84     1.291   .     S
O53    C83     1.291   .     S
O55    C181    1.302   1_455 S
O56    C100    1.297   .     S
C59    C64     1.406   .     A
C59    C60     1.405   .     A
C60    C61     1.400   .     A
C60    H65     1.081   .     S
C61    H66     1.082   .     S
C61    C62     1.396   .     A
C62    H67     1.082   .     S
C62    C63     1.396   .     A
C63    H68     1.082   .     S
C63    C64     1.398   .     A
C64    H69     1.083   .     S
C70    C71     1.407   .     A
C70    C75     1.406   .     A
C71    H76     1.081   .     S
C71    C72     1.398   .     A
C72    H77     1.080   .     S
C72    C73     1.396   .     A
C73    C74     1.396   .     A
C73    H78     1.082   .     S
C74    C75     1.398   .     A
C74    H79     1.082   .     S
C75    H80     1.083   .     S
F81    C106    1.358   .     S
F82    C187    1.357   1_455 S
C83    C94     1.449   .     S
C83    O133    1.291   .     A
C84    C93     1.448   .     S
C84    O136    1.291   .     A
C85    H121    1.076   .     S
C85    C114    1.410   .     A
C85    C87     1.393   .     A
C86    H122    1.077   .     S
C86    C88     1.389   .     A
C86    C113    1.407   .     A
C87    H117    1.083   .     S
C87    C849    1.397   1_554 S
C88    H118    1.084   .     S
C88    C850    1.395   .     S
C89    H123    1.083   .     S
C89    C583    1.383   1_545 S
C89    C176    1.401   .     S
C90    H124    1.083   .     S
C90    C93     1.401   .     A
C90    C338    1.383   .     S
C91    H125    1.083   .     S
C91    C335    1.383   .     S
C91    C175    1.401   .     S
C92    H126    1.083   .     S
C92    C94     1.401   .     A
C92    C582    1.383   1_545 S
C95    N132    1.367   .     A
C95    C97     1.414   .     A
C95    H127    1.080   .     S
C96    H128    1.078   .     S
C96    N131    1.366   .     A
C96    C98     1.413   .     A
C97    H129    1.080   .     S
C97    N131    1.367   .     A
C98    H130    1.080   .     S
C98    N132    1.367   .     A
C99    C101    1.480   .     S
C99    O139    1.295   .     A
C99    O219    1.302   .     S
C100   O140    1.294   .     A
C100   C102    1.468   .     S
C101   C105    1.412   .     A
C101   C107    1.420   .     A
C102   C106    1.407   .     A
C102   C108    1.412   .     A
C103   C111    1.397   .     A
C103   C105    1.393   .     A
C103   H201    1.082   .     S
C104   H120    1.084   .     S
C104   C106    1.390   .     A
C104   C112    1.397   .     A
C105   F246    1.357   .     S
C107   C109    1.413   .     A
C107   C152    1.493   .     S
C108   C141    1.491   .     S
C108   C110    1.414   .     A
C109   C111    1.412   .     A
C109   C113    1.415   .     A
C110   C114    1.419   .     A
C110   C112    1.417   .     A
C111   C825    1.397   .     S
C112   C826    1.395   1_554 S
C113   C852    1.412   .     S
C114   C851    1.412   1_554 S
Cu115  O137    1.961   .     S
Cu115  O140    1.951   .     S
Cu115  N131    2.013   .     S
Cu115  O136    1.963   .     S
Cu115  O133    1.963   .     S
Cu116  O138    1.961   .     S
Cu116  O139    1.951   .     S
Cu116  N132    2.013   .     S
Cu116  O134    1.963   .     S
Cu116  O135    1.963   .     S
Cu116  Cu197   2.679   .     S
O134   C166    1.291   .     S
O135   C165    1.291   .     S
O138   C182    1.297   .     S
C141   C146    1.406   .     A
C141   C142    1.405   .     A
C142   C143    1.400   .     A
C142   H147    1.081   .     S
C143   H148    1.082   .     S
C143   C144    1.396   .     A
C144   H149    1.082   .     S
C144   C145    1.396   .     A
C145   H150    1.082   .     S
C145   C146    1.398   .     A
C146   H151    1.083   .     S
C152   C153    1.407   .     A
C152   C157    1.406   .     A
C153   H158    1.081   .     S
C153   C154    1.398   .     A
C154   H159    1.080   .     S
C154   C155    1.396   .     A
C155   C156    1.396   .     A
C155   H160    1.082   .     S
C156   C157    1.398   .     A
C156   H161    1.082   .     S
C157   H162    1.083   .     S
F163   C188    1.358   .     S
C165   C176    1.449   .     S
C165   O215    1.291   .     A
C166   C175    1.448   .     S
C166   O218    1.291   .     A
C167   H203    1.076   .     S
C167   C196    1.410   .     A
C167   C169    1.393   .     A
C168   H204    1.077   .     S
C168   C170    1.389   .     A
C168   C195    1.407   .     A
C169   H199    1.083   .     S
C169   C931    1.397   1_554 S
C170   H200    1.084   .     S
C170   C932    1.395   .     S
C171   H205    1.083   .     S
C171   C665    1.383   1_545 S
C171   C12     1.401   1_655 S
C172   H206    1.083   .     S
C172   C175    1.401   .     A
C172   C420    1.383   .     S
C173   H207    1.083   .     S
C173   C417    1.383   .     S
C173   C11     1.401   1_655 S
C174   H208    1.083   .     S
C174   C176    1.401   .     A
C174   C664    1.383   1_545 S
C177   N214    1.367   .     A
C177   C179    1.414   .     A
C177   H209    1.080   .     S
C178   H210    1.078   .     S
C178   N213    1.366   .     A
C178   C180    1.413   .     A
C179   H211    1.080   .     S
C179   N213    1.367   .     A
C180   H212    1.080   .     S
C180   N214    1.367   .     A
C181   C183    1.480   .     S
C181   O221    1.295   .     A
C181   O55     1.302   1_655 S
C182   O222    1.294   .     A
C182   C184    1.468   .     S
C183   C187    1.412   .     A
C183   C189    1.420   .     A
C184   C188    1.407   .     A
C184   C190    1.412   .     A
C185   C193    1.397   .     A
C185   C187    1.393   .     A
C185   H37     1.082   1_655 S
C186   H202    1.084   .     S
C186   C188    1.390   .     A
C186   C194    1.397   .     A
C187   F82     1.357   1_655 S
C189   C191    1.413   .     A
C189   C234    1.493   .     S
C190   C223    1.491   .     S
C190   C192    1.414   .     A
C191   C193    1.412   .     A
C191   C195    1.415   .     A
C192   C196    1.419   .     A
C192   C194    1.417   .     A
C193   C907    1.397   .     S
C194   C908    1.395   1_554 S
C195   C934    1.412   .     S
C196   C933    1.412   1_554 S
Cu197  O219    1.961   .     S
Cu197  O222    1.951   .     S
Cu197  N213    2.013   .     S
Cu197  O218    1.963   .     S
Cu197  O215    1.963   .     S
Cu198  O220    1.961   .     S
Cu198  O221    1.951   .     S
Cu198  N214    2.013   .     S
Cu198  O216    1.963   .     S
Cu198  O217    1.963   .     S
Cu198  Cu33    2.679   1_655 S
O216   C2      1.291   1_655 S
O217   C1      1.291   1_655 S
O220   C18     1.297   1_655 S
C223   C228    1.406   .     A
C223   C224    1.405   .     A
C224   C225    1.400   .     A
C224   H229    1.081   .     S
C225   H230    1.082   .     S
C225   C226    1.396   .     A
C226   H231    1.082   .     S
C226   C227    1.396   .     A
C227   H232    1.082   .     S
C227   C228    1.398   .     A
C228   H233    1.083   .     S
C234   C235    1.407   .     A
C234   C239    1.406   .     A
C235   H240    1.081   .     S
C235   C236    1.398   .     A
C236   H241    1.080   .     S
C236   C237    1.396   .     A
C237   C238    1.396   .     A
C237   H242    1.082   .     S
C238   C239    1.398   .     A
C238   H243    1.082   .     S
C239   H244    1.083   .     S
F245   C24     1.358   1_655 S
C247   C258    1.449   .     S
C247   O297    1.291   .     A
C247   O463    1.291   1_455 S
C248   C257    1.448   .     S
C248   O300    1.291   .     A
C248   O462    1.291   1_455 S
C249   H285    1.076   .     S
C249   C278    1.410   .     A
C249   C251    1.393   .     A
C250   H286    1.077   .     S
C250   C252    1.389   .     A
C250   C277    1.407   .     A
C251   H281    1.083   .     S
C251   C1013   1.397   1_554 S
C252   H282    1.084   .     S
C252   C1014   1.395   .     S
C253   H287    1.083   .     S
C253   C340    1.401   .     S
C254   H288    1.083   .     S
C254   C257    1.401   .     A
C254   C502    1.383   .     S
C255   H289    1.083   .     S
C255   C499    1.383   .     S
C255   C339    1.401   .     S
C256   H290    1.083   .     S
C256   C258    1.401   .     A
C257   C419    1.401   1_455 S
C258   C417    1.401   1_455 S
C259   N296    1.367   .     A
C259   C261    1.414   .     A
C259   H291    1.080   .     S
C260   H292    1.078   .     S
C260   N295    1.366   .     A
C260   C262    1.413   .     A
C261   H293    1.080   .     S
C261   N295    1.367   .     A
C262   H294    1.080   .     S
C262   N296    1.367   .     A
C263   C265    1.480   .     S
C263   O303    1.295   .     A
C263   O383    1.302   .     S
C264   O304    1.294   .     A
C264   C266    1.468   .     S
C264   O466    1.297   1_455 S
C265   C269    1.412   .     A
C265   C271    1.420   .     A
C266   C270    1.407   .     A
C266   C272    1.412   .     A
C267   C275    1.397   .     A
C267   C269    1.393   .     A
C267   H365    1.082   .     S
C268   H284    1.084   .     S
C268   C270    1.390   .     A
C268   C276    1.397   .     A
C269   F410    1.357   .     S
C270   F491    1.358   1_455 S
C271   C273    1.413   .     A
C271   C316    1.493   .     S
C272   C305    1.491   .     S
C272   C274    1.414   .     A
C273   C275    1.412   .     A
C273   C277    1.415   .     A
C274   C278    1.419   .     A
C274   C276    1.417   .     A
C275   C989    1.397   .     S
C276   C990    1.395   1_554 S
C277   C1016   1.412   .     S
C278   C1015   1.412   1_554 S
Cu279  O301    1.961   .     S
Cu279  O304    1.951   .     S
Cu279  N295    2.013   .     S
Cu279  O300    1.963   .     S
Cu279  O297    1.963   .     S
Cu279  Cu444   2.679   1_455 S
Cu280  O302    1.961   .     S
Cu280  O303    1.951   .     S
Cu280  N296    2.013   .     S
Cu280  O298    1.963   .     S
Cu280  O299    1.963   .     S
Cu280  Cu361   2.679   .     S
H283   C431    1.082   1_455 S
O298   C330    1.291   .     S
O299   C329    1.291   .     S
O301   C427    1.302   1_455 S
O302   C346    1.297   .     S
C305   C310    1.406   .     A
C305   C306    1.405   .     A
C306   C307    1.400   .     A
C306   H311    1.081   .     S
C307   H312    1.082   .     S
C307   C308    1.396   .     A
C308   H313    1.082   .     S
C308   C309    1.396   .     A
C309   H314    1.082   .     S
C309   C310    1.398   .     A
C310   H315    1.083   .     S
C316   C317    1.407   .     A
C316   C321    1.406   .     A
C317   H322    1.081   .     S
C317   C318    1.398   .     A
C318   H323    1.080   .     S
C318   C319    1.396   .     A
C319   C320    1.396   .     A
C319   H324    1.082   .     S
C320   C321    1.398   .     A
C320   H325    1.082   .     S
C321   H326    1.083   .     S
F327   C352    1.358   .     S
F328   C433    1.357   1_455 S
C329   C340    1.449   .     S
C329   O379    1.291   .     A
C330   C339    1.448   .     S
C330   O382    1.291   .     A
C331   H367    1.076   .     S
C331   C360    1.410   .     A
C331   C333    1.393   .     A
C332   H368    1.077   .     S
C332   C334    1.389   .     A
C332   C359    1.407   .     A
C333   H363    1.083   .     S
C333   C1095   1.397   1_554 S
C334   H364    1.084   .     S
C334   C1096   1.395   .     S
C335   H369    1.083   .     S
C335   C422    1.401   .     S
C336   H370    1.083   .     S
C336   C339    1.401   .     A
C336   C584    1.383   .     S
C337   H371    1.083   .     S
C337   C581    1.383   .     S
C337   C421    1.401   .     S
C338   H372    1.083   .     S
C338   C340    1.401   .     A
C341   N378    1.367   .     A
C341   C343    1.414   .     A
C341   H373    1.080   .     S
C342   H374    1.078   .     S
C342   N377    1.366   .     A
C342   C344    1.413   .     A
C343   H375    1.080   .     S
C343   N377    1.367   .     A
C344   H376    1.080   .     S
C344   N378    1.367   .     A
C345   C347    1.480   .     S
C345   O385    1.295   .     A
C345   O465    1.302   .     S
C346   O386    1.294   .     A
C346   C348    1.468   .     S
C347   C351    1.412   .     A
C347   C353    1.420   .     A
C348   C352    1.407   .     A
C348   C354    1.412   .     A
C349   C357    1.397   .     A
C349   C351    1.393   .     A
C349   H447    1.082   .     S
C350   H366    1.084   .     S
C350   C352    1.390   .     A
C350   C358    1.397   .     A
C351   F492    1.357   .     S
C353   C355    1.413   .     A
C353   C398    1.493   .     S
C354   C387    1.491   .     S
C354   C356    1.414   .     A
C355   C357    1.412   .     A
C355   C359    1.415   .     A
C356   C360    1.419   .     A
C356   C358    1.417   .     A
C357   C1071   1.397   .     S
C358   C1072   1.395   1_554 S
C359   C1098   1.412   .     S
C360   C1097   1.412   1_554 S
Cu361  O383    1.961   .     S
Cu361  O386    1.951   .     S
Cu361  N377    2.013   .     S
Cu361  O382    1.963   .     S
Cu361  O379    1.963   .     S
Cu362  O384    1.961   .     S
Cu362  O385    1.951   .     S
Cu362  N378    2.013   .     S
Cu362  O380    1.963   .     S
Cu362  O381    1.963   .     S
Cu362  Cu443   2.679   .     S
O380   C412    1.291   .     S
O381   C411    1.291   .     S
O384   C428    1.297   .     S
C387   C392    1.406   .     A
C387   C388    1.405   .     A
C388   C389    1.400   .     A
C388   H393    1.081   .     S
C389   H394    1.082   .     S
C389   C390    1.396   .     A
C390   H395    1.082   .     S
C390   C391    1.396   .     A
C391   H396    1.082   .     S
C391   C392    1.398   .     A
C392   H397    1.083   .     S
C398   C399    1.407   .     A
C398   C403    1.406   .     A
C399   H404    1.081   .     S
C399   C400    1.398   .     A
C400   H405    1.080   .     S
C400   C401    1.396   .     A
C401   C402    1.396   .     A
C401   H406    1.082   .     S
C402   C403    1.398   .     A
C402   H407    1.082   .     S
C403   H408    1.083   .     S
F409   C434    1.358   .     S
C411   C422    1.449   .     S
C411   O461    1.291   .     A
C412   C421    1.448   .     S
C412   O464    1.291   .     A
C413   H449    1.076   .     S
C413   C442    1.410   .     A
C413   C415    1.393   .     A
C414   H450    1.077   .     S
C414   C416    1.389   .     A
C414   C441    1.407   .     A
C415   H445    1.083   .     S
C415   C1177   1.397   1_554 S
C416   H446    1.084   .     S
C416   C1178   1.395   .     S
C417   H451    1.083   .     S
C417   C258    1.401   1_655 S
C418   H452    1.083   .     S
C418   C421    1.401   .     A
C418   C666    1.383   .     S
C419   H453    1.083   .     S
C419   C663    1.383   .     S
C419   C257    1.401   1_655 S
C420   H454    1.083   .     S
C420   C422    1.401   .     A
C423   N460    1.367   .     A
C423   C425    1.414   .     A
C423   H455    1.080   .     S
C424   H456    1.078   .     S
C424   N459    1.366   .     A
C424   C426    1.413   .     A
C425   H457    1.080   .     S
C425   N459    1.367   .     A
C426   H458    1.080   .     S
C426   N460    1.367   .     A
C427   C429    1.480   .     S
C427   O467    1.295   .     A
C427   O301    1.302   1_655 S
C428   O468    1.294   .     A
C428   C430    1.468   .     S
C429   C433    1.412   .     A
C429   C435    1.420   .     A
C430   C434    1.407   .     A
C430   C436    1.412   .     A
C431   C439    1.397   .     A
C431   C433    1.393   .     A
C431   H283    1.082   1_655 S
C432   H448    1.084   .     S
C432   C434    1.390   .     A
C432   C440    1.397   .     A
C433   F328    1.357   1_655 S
C435   C437    1.413   .     A
C435   C480    1.493   .     S
C436   C469    1.491   .     S
C436   C438    1.414   .     A
C437   C439    1.412   .     A
C437   C441    1.415   .     A
C438   C442    1.419   .     A
C438   C440    1.417   .     A
C439   C1153   1.397   .     S
C440   C1154   1.395   1_554 S
C441   C1180   1.412   .     S
C442   C1179   1.412   1_554 S
Cu443  O465    1.961   .     S
Cu443  O468    1.951   .     S
Cu443  N459    2.013   .     S
Cu443  O464    1.963   .     S
Cu443  O461    1.963   .     S
Cu444  O466    1.961   .     S
Cu444  O467    1.951   .     S
Cu444  N460    2.013   .     S
Cu444  O462    1.963   .     S
Cu444  O463    1.963   .     S
Cu444  Cu279   2.679   1_655 S
O462   C248    1.291   1_655 S
O463   C247    1.291   1_655 S
O466   C264    1.297   1_655 S
C469   C474    1.406   .     A
C469   C470    1.405   .     A
C470   C471    1.400   .     A
C470   H475    1.081   .     S
C471   H476    1.082   .     S
C471   C472    1.396   .     A
C472   H477    1.082   .     S
C472   C473    1.396   .     A
C473   H478    1.082   .     S
C473   C474    1.398   .     A
C474   H479    1.083   .     S
C480   C481    1.407   .     A
C480   C485    1.406   .     A
C481   H486    1.081   .     S
C481   C482    1.398   .     A
C482   H487    1.080   .     S
C482   C483    1.396   .     A
C483   C484    1.396   .     A
C483   H488    1.082   .     S
C484   C485    1.398   .     A
C484   H489    1.082   .     S
C485   H490    1.083   .     S
F491   C270    1.358   1_655 S
C493   C504    1.449   .     S
C493   O543    1.291   .     A
C493   O709    1.291   1_455 S
C494   C503    1.448   .     S
C494   O546    1.291   .     A
C494   O708    1.291   1_455 S
C495   H531    1.076   .     S
C495   C524    1.410   .     A
C495   C497    1.393   .     A
C496   H532    1.077   .     S
C496   C498    1.389   .     A
C496   C523    1.407   .     A
C497   H527    1.083   .     S
C497   C1259   1.397   1_554 S
C498   H528    1.084   .     S
C498   C1260   1.395   .     S
C499   H533    1.083   .     S
C499   C586    1.401   .     S
C500   H534    1.083   .     S
C500   C503    1.401   .     A
C500   C10     1.383   1_565 S
C501   H535    1.083   .     S
C501   C7      1.383   1_565 S
C501   C585    1.401   .     S
C502   H536    1.083   .     S
C502   C504    1.401   .     A
C503   C665    1.401   1_455 S
C504   C663    1.401   1_455 S
C505   N542    1.367   .     A
C505   C507    1.414   .     A
C505   H537    1.080   .     S
C506   H538    1.078   .     S
C506   N541    1.366   .     A
C506   C508    1.413   .     A
C507   H539    1.080   .     S
C507   N541    1.367   .     A
C508   H540    1.080   .     S
C508   N542    1.367   .     A
C509   C511    1.480   .     S
C509   O549    1.295   .     A
C509   O629    1.302   .     S
C510   O550    1.294   .     A
C510   C512    1.468   .     S
C510   O712    1.297   1_455 S
C511   C515    1.412   .     A
C511   C517    1.420   .     A
C512   C516    1.407   .     A
C512   C518    1.412   .     A
C513   C521    1.397   .     A
C513   C515    1.393   .     A
C513   H611    1.082   .     S
C514   H530    1.084   .     S
C514   C516    1.390   .     A
C514   C522    1.397   .     A
C515   F656    1.357   .     S
C516   F737    1.358   1_455 S
C517   C519    1.413   .     A
C517   C562    1.493   .     S
C518   C551    1.491   .     S
C518   C520    1.414   .     A
C519   C521    1.412   .     A
C519   C523    1.415   .     A
C520   C524    1.419   .     A
C520   C522    1.417   .     A
C521   C1235   1.397   .     S
C522   C1236   1.395   1_554 S
C523   C1262   1.412   .     S
C524   C1261   1.412   1_554 S
Cu525  O547    1.961   .     S
Cu525  O550    1.951   .     S
Cu525  N541    2.013   .     S
Cu525  O546    1.963   .     S
Cu525  O543    1.963   .     S
Cu525  Cu690   2.679   1_455 S
Cu526  O548    1.961   .     S
Cu526  O549    1.951   .     S
Cu526  N542    2.013   .     S
Cu526  O544    1.963   .     S
Cu526  O545    1.963   .     S
Cu526  Cu607   2.679   .     S
H529   C677    1.082   1_455 S
O544   C576    1.291   .     S
O545   C575    1.291   .     S
O547   C673    1.302   1_455 S
O548   C592    1.297   .     S
C551   C556    1.406   .     A
C551   C552    1.405   .     A
C552   C553    1.400   .     A
C552   H557    1.081   .     S
C553   H558    1.082   .     S
C553   C554    1.396   .     A
C554   H559    1.082   .     S
C554   C555    1.396   .     A
C555   H560    1.082   .     S
C555   C556    1.398   .     A
C556   H561    1.083   .     S
C562   C563    1.407   .     A
C562   C567    1.406   .     A
C563   H568    1.081   .     S
C563   C564    1.398   .     A
C564   H569    1.080   .     S
C564   C565    1.396   .     A
C565   C566    1.396   .     A
C565   H570    1.082   .     S
C566   C567    1.398   .     A
C566   H571    1.082   .     S
C567   H572    1.083   .     S
F573   C598    1.358   .     S
F574   C679    1.357   1_455 S
C575   C586    1.449   .     S
C575   O625    1.291   .     A
C576   C585    1.448   .     S
C576   O628    1.291   .     A
C577   H613    1.076   .     S
C577   C606    1.410   .     A
C577   C579    1.393   .     A
C578   H614    1.077   .     S
C578   C580    1.389   .     A
C578   C605    1.407   .     A
C579   H609    1.083   .     S
C579   C1341   1.397   1_554 S
C580   H610    1.084   .     S
C580   C1342   1.395   .     S
C581   H615    1.083   .     S
C581   C668    1.401   .     S
C582   H616    1.083   .     S
C582   C585    1.401   .     A
C582   C92     1.383   1_565 S
C583   H617    1.083   .     S
C583   C89     1.383   1_565 S
C583   C667    1.401   .     S
C584   H618    1.083   .     S
C584   C586    1.401   .     A
C587   N624    1.367   .     A
C587   C589    1.414   .     A
C587   H619    1.080   .     S
C588   H620    1.078   .     S
C588   N623    1.366   .     A
C588   C590    1.413   .     A
C589   H621    1.080   .     S
C589   N623    1.367   .     A
C590   H622    1.080   .     S
C590   N624    1.367   .     A
C591   C593    1.480   .     S
C591   O631    1.295   .     A
C591   O711    1.302   .     S
C592   O632    1.294   .     A
C592   C594    1.468   .     S
C593   C597    1.412   .     A
C593   C599    1.420   .     A
C594   C598    1.407   .     A
C594   C600    1.412   .     A
C595   C603    1.397   .     A
C595   C597    1.393   .     A
C595   H693    1.082   .     S
C596   H612    1.084   .     S
C596   C598    1.390   .     A
C596   C604    1.397   .     A
C597   F738    1.357   .     S
C599   C601    1.413   .     A
C599   C644    1.493   .     S
C600   C633    1.491   .     S
C600   C602    1.414   .     A
C601   C603    1.412   .     A
C601   C605    1.415   .     A
C602   C606    1.419   .     A
C602   C604    1.417   .     A
C603   C1317   1.397   .     S
C604   C1318   1.395   1_554 S
C605   C1344   1.412   .     S
C606   C1343   1.412   1_554 S
Cu607  O629    1.961   .     S
Cu607  O632    1.951   .     S
Cu607  N623    2.013   .     S
Cu607  O628    1.963   .     S
Cu607  O625    1.963   .     S
Cu608  O630    1.961   .     S
Cu608  O631    1.951   .     S
Cu608  N624    2.013   .     S
Cu608  O626    1.963   .     S
Cu608  O627    1.963   .     S
Cu608  Cu689   2.679   .     S
O626   C658    1.291   .     S
O627   C657    1.291   .     S
O630   C674    1.297   .     S
C633   C638    1.406   .     A
C633   C634    1.405   .     A
C634   C635    1.400   .     A
C634   H639    1.081   .     S
C635   H640    1.082   .     S
C635   C636    1.396   .     A
C636   H641    1.082   .     S
C636   C637    1.396   .     A
C637   H642    1.082   .     S
C637   C638    1.398   .     A
C638   H643    1.083   .     S
C644   C645    1.407   .     A
C644   C649    1.406   .     A
C645   H650    1.081   .     S
C645   C646    1.398   .     A
C646   H651    1.080   .     S
C646   C647    1.396   .     A
C647   C648    1.396   .     A
C647   H652    1.082   .     S
C648   C649    1.398   .     A
C648   H653    1.082   .     S
C649   H654    1.083   .     S
F655   C680    1.358   .     S
C657   C668    1.449   .     S
C657   O707    1.291   .     A
C658   C667    1.448   .     S
C658   O710    1.291   .     A
C659   H695    1.076   .     S
C659   C688    1.410   .     A
C659   C661    1.393   .     A
C660   H696    1.077   .     S
C660   C662    1.389   .     A
C660   C687    1.407   .     A
C661   H691    1.083   .     S
C661   C1423   1.397   1_554 S
C662   H692    1.084   .     S
C662   C1424   1.395   .     S
C663   H697    1.083   .     S
C663   C504    1.401   1_655 S
C664   H698    1.083   .     S
C664   C667    1.401   .     A
C664   C174    1.383   1_565 S
C665   H699    1.083   .     S
C665   C171    1.383   1_565 S
C665   C503    1.401   1_655 S
C666   H700    1.083   .     S
C666   C668    1.401   .     A
C669   N706    1.367   .     A
C669   C671    1.414   .     A
C669   H701    1.080   .     S
C670   H702    1.078   .     S
C670   N705    1.366   .     A
C670   C672    1.413   .     A
C671   H703    1.080   .     S
C671   N705    1.367   .     A
C672   H704    1.080   .     S
C672   N706    1.367   .     A
C673   C675    1.480   .     S
C673   O713    1.295   .     A
C673   O547    1.302   1_655 S
C674   O714    1.294   .     A
C674   C676    1.468   .     S
C675   C679    1.412   .     A
C675   C681    1.420   .     A
C676   C680    1.407   .     A
C676   C682    1.412   .     A
C677   C685    1.397   .     A
C677   C679    1.393   .     A
C677   H529    1.082   1_655 S
C678   H694    1.084   .     S
C678   C680    1.390   .     A
C678   C686    1.397   .     A
C679   F574    1.357   1_655 S
C681   C683    1.413   .     A
C681   C726    1.493   .     S
C682   C715    1.491   .     S
C682   C684    1.414   .     A
C683   C685    1.412   .     A
C683   C687    1.415   .     A
C684   C688    1.419   .     A
C684   C686    1.417   .     A
C685   C1399   1.397   .     S
C686   C1400   1.395   1_554 S
C687   C1426   1.412   .     S
C688   C1425   1.412   1_554 S
Cu689  O711    1.961   .     S
Cu689  O714    1.951   .     S
Cu689  N705    2.013   .     S
Cu689  O710    1.963   .     S
Cu689  O707    1.963   .     S
Cu690  O712    1.961   .     S
Cu690  O713    1.951   .     S
Cu690  N706    2.013   .     S
Cu690  O708    1.963   .     S
Cu690  O709    1.963   .     S
Cu690  Cu525   2.679   1_655 S
O708   C494    1.291   1_655 S
O709   C493    1.291   1_655 S
O712   C510    1.297   1_655 S
C715   C720    1.406   .     A
C715   C716    1.405   .     A
C716   C717    1.400   .     A
C716   H721    1.081   .     S
C717   H722    1.082   .     S
C717   C718    1.396   .     A
C718   H723    1.082   .     S
C718   C719    1.396   .     A
C719   H724    1.082   .     S
C719   C720    1.398   .     A
C720   H725    1.083   .     S
C726   C727    1.407   .     A
C726   C731    1.406   .     A
C727   H732    1.081   .     S
C727   C728    1.398   .     A
C728   H733    1.080   .     S
C728   C729    1.396   .     A
C729   C730    1.396   .     A
C729   H734    1.082   .     S
C730   C731    1.398   .     A
C730   H735    1.082   .     S
C731   H736    1.083   .     S
F737   C516    1.358   1_655 S
C739   C750    1.449   .     S
C739   O789    1.291   .     A
C739   O955    1.291   1_455 S
C740   C749    1.448   .     S
C740   O792    1.291   .     A
C740   O954    1.291   1_455 S
C741   H777    1.076   .     S
C741   C770    1.410   .     A
C741   C743    1.393   .     A
C742   H778    1.077   .     S
C742   C744    1.389   .     A
C742   C769    1.407   .     A
C743   H773    1.083   .     S
C744   H774    1.084   .     S
C744   C30     1.395   1_556 S
C745   H779    1.083   .     S
C745   C1239   1.383   1_545 S
C745   C832    1.401   .     S
C746   H780    1.083   .     S
C746   C749    1.401   .     A
C746   C994    1.383   .     S
C747   H781    1.083   .     S
C747   C991    1.383   .     S
C747   C831    1.401   .     S
C748   H782    1.083   .     S
C748   C750    1.401   .     A
C748   C1238   1.383   1_545 S
C749   C911    1.401   1_455 S
C750   C909    1.401   1_455 S
C751   N788    1.367   .     A
C751   C753    1.414   .     A
C751   H783    1.080   .     S
C752   H784    1.078   .     S
C752   N787    1.366   .     A
C752   C754    1.413   .     A
C753   H785    1.080   .     S
C753   N787    1.367   .     A
C754   H786    1.080   .     S
C754   N788    1.367   .     A
C755   C757    1.480   .     S
C755   O795    1.295   .     A
C755   O875    1.302   .     S
C756   O796    1.294   .     A
C756   C758    1.468   .     S
C756   O958    1.297   1_455 S
C757   C761    1.412   .     A
C757   C763    1.420   .     A
C758   C762    1.407   .     A
C758   C764    1.412   .     A
C759   C767    1.397   .     A
C759   C761    1.393   .     A
C759   H857    1.082   .     S
C760   H776    1.084   .     S
C760   C762    1.390   .     A
C760   C768    1.397   .     A
C761   F902    1.357   .     S
C762   F983    1.358   1_455 S
C763   C765    1.413   .     A
C763   C808    1.493   .     S
C764   C797    1.491   .     S
C764   C766    1.414   .     A
C765   C767    1.412   .     A
C765   C769    1.415   .     A
C766   C770    1.419   .     A
C766   C768    1.417   .     A
C767   C5      1.397   1_556 S
C769   C32     1.412   1_556 S
Cu771  O793    1.961   .     S
Cu771  O796    1.951   .     S
Cu771  N787    2.013   .     S
Cu771  O792    1.963   .     S
Cu771  O789    1.963   .     S
Cu771  Cu936   2.679   1_455 S
Cu772  O794    1.961   .     S
Cu772  O795    1.951   .     S
Cu772  N788    2.013   .     S
Cu772  O790    1.963   .     S
Cu772  O791    1.963   .     S
Cu772  Cu853   2.679   .     S
H775   C923    1.082   1_455 S
O790   C822    1.291   .     S
O791   C821    1.291   .     S
O793   C919    1.302   1_455 S
O794   C838    1.297   .     S
C797   C802    1.406   .     A
C797   C798    1.405   .     A
C798   C799    1.400   .     A
C798   H803    1.081   .     S
C799   H804    1.082   .     S
C799   C800    1.396   .     A
C800   H805    1.082   .     S
C800   C801    1.396   .     A
C801   H806    1.082   .     S
C801   C802    1.398   .     A
C802   H807    1.083   .     S
C808   C809    1.407   .     A
C808   C813    1.406   .     A
C809   H814    1.081   .     S
C809   C810    1.398   .     A
C810   H815    1.080   .     S
C810   C811    1.396   .     A
C811   C812    1.396   .     A
C811   H816    1.082   .     S
C812   C813    1.398   .     A
C812   H817    1.082   .     S
C813   H818    1.083   .     S
F819   C844    1.358   .     S
F820   C925    1.357   1_455 S
C821   C832    1.449   .     S
C821   O871    1.291   .     A
C822   C831    1.448   .     S
C822   O874    1.291   .     A
C823   H859    1.076   .     S
C823   C852    1.410   .     A
C823   C825    1.393   .     A
C824   H860    1.077   .     S
C824   C826    1.389   .     A
C824   C851    1.407   .     A
C825   H855    1.083   .     S
C826   H856    1.084   .     S
C826   C112    1.395   1_556 S
C827   H861    1.083   .     S
C827   C1321   1.383   1_545 S
C827   C914    1.401   .     S
C828   H862    1.083   .     S
C828   C831    1.401   .     A
C828   C1076   1.383   .     S
C829   H863    1.083   .     S
C829   C1073   1.383   .     S
C829   C913    1.401   .     S
C830   H864    1.083   .     S
C830   C832    1.401   .     A
C830   C1320   1.383   1_545 S
C833   N870    1.367   .     A
C833   C835    1.414   .     A
C833   H865    1.080   .     S
C834   H866    1.078   .     S
C834   N869    1.366   .     A
C834   C836    1.413   .     A
C835   H867    1.080   .     S
C835   N869    1.367   .     A
C836   H868    1.080   .     S
C836   N870    1.367   .     A
C837   C839    1.480   .     S
C837   O877    1.295   .     A
C837   O957    1.302   .     S
C838   O878    1.294   .     A
C838   C840    1.468   .     S
C839   C843    1.412   .     A
C839   C845    1.420   .     A
C840   C844    1.407   .     A
C840   C846    1.412   .     A
C841   C849    1.397   .     A
C841   C843    1.393   .     A
C841   H939    1.082   .     S
C842   H858    1.084   .     S
C842   C844    1.390   .     A
C842   C850    1.397   .     A
C843   F984    1.357   .     S
C845   C847    1.413   .     A
C845   C890    1.493   .     S
C846   C879    1.491   .     S
C846   C848    1.414   .     A
C847   C849    1.412   .     A
C847   C851    1.415   .     A
C848   C852    1.419   .     A
C848   C850    1.417   .     A
C849   C87     1.397   1_556 S
C851   C114    1.412   1_556 S
Cu853  O875    1.961   .     S
Cu853  O878    1.951   .     S
Cu853  N869    2.013   .     S
Cu853  O874    1.963   .     S
Cu853  O871    1.963   .     S
Cu854  O876    1.961   .     S
Cu854  O877    1.951   .     S
Cu854  N870    2.013   .     S
Cu854  O872    1.963   .     S
Cu854  O873    1.963   .     S
Cu854  Cu935   2.679   .     S
O872   C904    1.291   .     S
O873   C903    1.291   .     S
O876   C920    1.297   .     S
C879   C884    1.406   .     A
C879   C880    1.405   .     A
C880   C881    1.400   .     A
C880   H885    1.081   .     S
C881   H886    1.082   .     S
C881   C882    1.396   .     A
C882   H887    1.082   .     S
C882   C883    1.396   .     A
C883   H888    1.082   .     S
C883   C884    1.398   .     A
C884   H889    1.083   .     S
C890   C891    1.407   .     A
C890   C895    1.406   .     A
C891   H896    1.081   .     S
C891   C892    1.398   .     A
C892   H897    1.080   .     S
C892   C893    1.396   .     A
C893   C894    1.396   .     A
C893   H898    1.082   .     S
C894   C895    1.398   .     A
C894   H899    1.082   .     S
C895   H900    1.083   .     S
F901   C926    1.358   .     S
C903   C914    1.449   .     S
C903   O953    1.291   .     A
C904   C913    1.448   .     S
C904   O956    1.291   .     A
C905   H941    1.076   .     S
C905   C934    1.410   .     A
C905   C907    1.393   .     A
C906   H942    1.077   .     S
C906   C908    1.389   .     A
C906   C933    1.407   .     A
C907   H937    1.083   .     S
C908   H938    1.084   .     S
C908   C194    1.395   1_556 S
C909   H943    1.083   .     S
C909   C1403   1.383   1_545 S
C909   C750    1.401   1_655 S
C910   H944    1.083   .     S
C910   C913    1.401   .     A
C910   C1158   1.383   .     S
C911   H945    1.083   .     S
C911   C1155   1.383   .     S
C911   C749    1.401   1_655 S
C912   H946    1.083   .     S
C912   C914    1.401   .     A
C912   C1402   1.383   1_545 S
C915   N952    1.367   .     A
C915   C917    1.414   .     A
C915   H947    1.080   .     S
C916   H948    1.078   .     S
C916   N951    1.366   .     A
C916   C918    1.413   .     A
C917   H949    1.080   .     S
C917   N951    1.367   .     A
C918   H950    1.080   .     S
C918   N952    1.367   .     A
C919   C921    1.480   .     S
C919   O959    1.295   .     A
C919   O793    1.302   1_655 S
C920   O960    1.294   .     A
C920   C922    1.468   .     S
C921   C925    1.412   .     A
C921   C927    1.420   .     A
C922   C926    1.407   .     A
C922   C928    1.412   .     A
C923   C931    1.397   .     A
C923   C925    1.393   .     A
C923   H775    1.082   1_655 S
C924   H940    1.084   .     S
C924   C926    1.390   .     A
C924   C932    1.397   .     A
C925   F820    1.357   1_655 S
C927   C929    1.413   .     A
C927   C972    1.493   .     S
C928   C961    1.491   .     S
C928   C930    1.414   .     A
C929   C931    1.412   .     A
C929   C933    1.415   .     A
C930   C934    1.419   .     A
C930   C932    1.417   .     A
C931   C169    1.397   1_556 S
C933   C196    1.412   1_556 S
Cu935  O957    1.961   .     S
Cu935  O960    1.951   .     S
Cu935  N951    2.013   .     S
Cu935  O956    1.963   .     S
Cu935  O953    1.963   .     S
Cu936  O958    1.961   .     S
Cu936  O959    1.951   .     S
Cu936  N952    2.013   .     S
Cu936  O954    1.963   .     S
Cu936  O955    1.963   .     S
Cu936  Cu771   2.679   1_655 S
O954   C740    1.291   1_655 S
O955   C739    1.291   1_655 S
O958   C756    1.297   1_655 S
C961   C966    1.406   .     A
C961   C962    1.405   .     A
C962   C963    1.400   .     A
C962   H967    1.081   .     S
C963   H968    1.082   .     S
C963   C964    1.396   .     A
C964   H969    1.082   .     S
C964   C965    1.396   .     A
C965   H970    1.082   .     S
C965   C966    1.398   .     A
C966   H971    1.083   .     S
C972   C973    1.407   .     A
C972   C977    1.406   .     A
C973   H978    1.081   .     S
C973   C974    1.398   .     A
C974   H979    1.080   .     S
C974   C975    1.396   .     A
C975   C976    1.396   .     A
C975   H980    1.082   .     S
C976   C977    1.398   .     A
C976   H981    1.082   .     S
C977   H982    1.083   .     S
F983   C762    1.358   1_655 S
C985   C996    1.449   .     S
C985   O1035   1.291   .     A
C985   O1201   1.291   1_455 S
C986   C995    1.448   .     S
C986   O1038   1.291   .     A
C986   O1200   1.291   1_455 S
C987   H1023   1.076   .     S
C987   C1016   1.410   .     A
C987   C989    1.393   .     A
C988   H1024   1.077   .     S
C988   C990    1.389   .     A
C988   C1015   1.407   .     A
C989   H1019   1.083   .     S
C990   H1020   1.084   .     S
C990   C276    1.395   1_556 S
C991   H1025   1.083   .     S
C991   C1078   1.401   .     S
C992   H1026   1.083   .     S
C992   C995    1.401   .     A
C992   C1240   1.383   .     S
C993   H1027   1.083   .     S
C993   C1237   1.383   .     S
C993   C1077   1.401   .     S
C994   H1028   1.083   .     S
C994   C996    1.401   .     A
C995   C1157   1.401   1_455 S
C996   C1155   1.401   1_455 S
C997   N1034   1.367   .     A
C997   C999    1.414   .     A
C997   H1029   1.080   .     S
C998   H1030   1.078   .     S
C998   N1033   1.366   .     A
C998   C1000   1.413   .     A
C999   H1031   1.080   .     S
C999   N1033   1.367   .     A
C1000  H1032   1.080   .     S
C1000  N1034   1.367   .     A
C1001  C1003   1.480   .     S
C1001  O1041   1.295   .     A
C1001  O1121   1.302   .     S
C1002  O1042   1.294   .     A
C1002  C1004   1.468   .     S
C1002  O1204   1.297   1_455 S
C1003  C1007   1.412   .     A
C1003  C1009   1.420   .     A
C1004  C1008   1.407   .     A
C1004  C1010   1.412   .     A
C1005  C1013   1.397   .     A
C1005  C1007   1.393   .     A
C1005  H1103   1.082   .     S
C1006  H1022   1.084   .     S
C1006  C1008   1.390   .     A
C1006  C1014   1.397   .     A
C1007  F1148   1.357   .     S
C1008  F1229   1.358   1_455 S
C1009  C1011   1.413   .     A
C1009  C1054   1.493   .     S
C1010  C1043   1.491   .     S
C1010  C1012   1.414   .     A
C1011  C1013   1.412   .     A
C1011  C1015   1.415   .     A
C1012  C1016   1.419   .     A
C1012  C1014   1.417   .     A
C1013  C251    1.397   1_556 S
C1015  C278    1.412   1_556 S
Cu1017 O1039   1.961   .     S
Cu1017 O1042   1.951   .     S
Cu1017 N1033   2.013   .     S
Cu1017 O1038   1.963   .     S
Cu1017 O1035   1.963   .     S
Cu1017 Cu1182  2.679   1_455 S
Cu1018 O1040   1.961   .     S
Cu1018 O1041   1.951   .     S
Cu1018 N1034   2.013   .     S
Cu1018 O1036   1.963   .     S
Cu1018 O1037   1.963   .     S
Cu1018 Cu1099  2.679   .     S
H1021  C1169   1.082   1_455 S
O1036  C1068   1.291   .     S
O1037  C1067   1.291   .     S
O1039  C1165   1.302   1_455 S
O1040  C1084   1.297   .     S
C1043  C1048   1.406   .     A
C1043  C1044   1.405   .     A
C1044  C1045   1.400   .     A
C1044  H1049   1.081   .     S
C1045  H1050   1.082   .     S
C1045  C1046   1.396   .     A
C1046  H1051   1.082   .     S
C1046  C1047   1.396   .     A
C1047  H1052   1.082   .     S
C1047  C1048   1.398   .     A
C1048  H1053   1.083   .     S
C1054  C1055   1.407   .     A
C1054  C1059   1.406   .     A
C1055  H1060   1.081   .     S
C1055  C1056   1.398   .     A
C1056  H1061   1.080   .     S
C1056  C1057   1.396   .     A
C1057  C1058   1.396   .     A
C1057  H1062   1.082   .     S
C1058  C1059   1.398   .     A
C1058  H1063   1.082   .     S
C1059  H1064   1.083   .     S
F1065  C1090   1.358   .     S
F1066  C1171   1.357   1_455 S
C1067  C1078   1.449   .     S
C1067  O1117   1.291   .     A
C1068  C1077   1.448   .     S
C1068  O1120   1.291   .     A
C1069  H1105   1.076   .     S
C1069  C1098   1.410   .     A
C1069  C1071   1.393   .     A
C1070  H1106   1.077   .     S
C1070  C1072   1.389   .     A
C1070  C1097   1.407   .     A
C1071  H1101   1.083   .     S
C1072  H1102   1.084   .     S
C1072  C358    1.395   1_556 S
C1073  H1107   1.083   .     S
C1073  C1160   1.401   .     S
C1074  H1108   1.083   .     S
C1074  C1077   1.401   .     A
C1074  C1322   1.383   .     S
C1075  H1109   1.083   .     S
C1075  C1319   1.383   .     S
C1075  C1159   1.401   .     S
C1076  H1110   1.083   .     S
C1076  C1078   1.401   .     A
C1079  N1116   1.367   .     A
C1079  C1081   1.414   .     A
C1079  H1111   1.080   .     S
C1080  H1112   1.078   .     S
C1080  N1115   1.366   .     A
C1080  C1082   1.413   .     A
C1081  H1113   1.080   .     S
C1081  N1115   1.367   .     A
C1082  H1114   1.080   .     S
C1082  N1116   1.367   .     A
C1083  C1085   1.480   .     S
C1083  O1123   1.295   .     A
C1083  O1203   1.302   .     S
C1084  O1124   1.294   .     A
C1084  C1086   1.468   .     S
C1085  C1089   1.412   .     A
C1085  C1091   1.420   .     A
C1086  C1090   1.407   .     A
C1086  C1092   1.412   .     A
C1087  C1095   1.397   .     A
C1087  C1089   1.393   .     A
C1087  H1185   1.082   .     S
C1088  H1104   1.084   .     S
C1088  C1090   1.390   .     A
C1088  C1096   1.397   .     A
C1089  F1230   1.357   .     S
C1091  C1093   1.413   .     A
C1091  C1136   1.493   .     S
C1092  C1125   1.491   .     S
C1092  C1094   1.414   .     A
C1093  C1095   1.412   .     A
C1093  C1097   1.415   .     A
C1094  C1098   1.419   .     A
C1094  C1096   1.417   .     A
C1095  C333    1.397   1_556 S
C1097  C360    1.412   1_556 S
Cu1099 O1121   1.961   .     S
Cu1099 O1124   1.951   .     S
Cu1099 N1115   2.013   .     S
Cu1099 O1120   1.963   .     S
Cu1099 O1117   1.963   .     S
Cu1100 O1122   1.961   .     S
Cu1100 O1123   1.951   .     S
Cu1100 N1116   2.013   .     S
Cu1100 O1118   1.963   .     S
Cu1100 O1119   1.963   .     S
Cu1100 Cu1181  2.679   .     S
O1118  C1150   1.291   .     S
O1119  C1149   1.291   .     S
O1122  C1166   1.297   .     S
C1125  C1130   1.406   .     A
C1125  C1126   1.405   .     A
C1126  C1127   1.400   .     A
C1126  H1131   1.081   .     S
C1127  H1132   1.082   .     S
C1127  C1128   1.396   .     A
C1128  H1133   1.082   .     S
C1128  C1129   1.396   .     A
C1129  H1134   1.082   .     S
C1129  C1130   1.398   .     A
C1130  H1135   1.083   .     S
C1136  C1137   1.407   .     A
C1136  C1141   1.406   .     A
C1137  H1142   1.081   .     S
C1137  C1138   1.398   .     A
C1138  H1143   1.080   .     S
C1138  C1139   1.396   .     A
C1139  C1140   1.396   .     A
C1139  H1144   1.082   .     S
C1140  C1141   1.398   .     A
C1140  H1145   1.082   .     S
C1141  H1146   1.083   .     S
F1147  C1172   1.358   .     S
C1149  C1160   1.449   .     S
C1149  O1199   1.291   .     A
C1150  C1159   1.448   .     S
C1150  O1202   1.291   .     A
C1151  H1187   1.076   .     S
C1151  C1180   1.410   .     A
C1151  C1153   1.393   .     A
C1152  H1188   1.077   .     S
C1152  C1154   1.389   .     A
C1152  C1179   1.407   .     A
C1153  H1183   1.083   .     S
C1154  H1184   1.084   .     S
C1154  C440    1.395   1_556 S
C1155  H1189   1.083   .     S
C1155  C996    1.401   1_655 S
C1156  H1190   1.083   .     S
C1156  C1159   1.401   .     A
C1156  C1404   1.383   .     S
C1157  H1191   1.083   .     S
C1157  C1401   1.383   .     S
C1157  C995    1.401   1_655 S
C1158  H1192   1.083   .     S
C1158  C1160   1.401   .     A
C1161  N1198   1.367   .     A
C1161  C1163   1.414   .     A
C1161  H1193   1.080   .     S
C1162  H1194   1.078   .     S
C1162  N1197   1.366   .     A
C1162  C1164   1.413   .     A
C1163  H1195   1.080   .     S
C1163  N1197   1.367   .     A
C1164  H1196   1.080   .     S
C1164  N1198   1.367   .     A
C1165  C1167   1.480   .     S
C1165  O1205   1.295   .     A
C1165  O1039   1.302   1_655 S
C1166  O1206   1.294   .     A
C1166  C1168   1.468   .     S
C1167  C1171   1.412   .     A
C1167  C1173   1.420   .     A
C1168  C1172   1.407   .     A
C1168  C1174   1.412   .     A
C1169  C1177   1.397   .     A
C1169  C1171   1.393   .     A
C1169  H1021   1.082   1_655 S
C1170  H1186   1.084   .     S
C1170  C1172   1.390   .     A
C1170  C1178   1.397   .     A
C1171  F1066   1.357   1_655 S
C1173  C1175   1.413   .     A
C1173  C1218   1.493   .     S
C1174  C1207   1.491   .     S
C1174  C1176   1.414   .     A
C1175  C1177   1.412   .     A
C1175  C1179   1.415   .     A
C1176  C1180   1.419   .     A
C1176  C1178   1.417   .     A
C1177  C415    1.397   1_556 S
C1179  C442    1.412   1_556 S
Cu1181 O1203   1.961   .     S
Cu1181 O1206   1.951   .     S
Cu1181 N1197   2.013   .     S
Cu1181 O1202   1.963   .     S
Cu1181 O1199   1.963   .     S
Cu1182 O1204   1.961   .     S
Cu1182 O1205   1.951   .     S
Cu1182 N1198   2.013   .     S
Cu1182 O1200   1.963   .     S
Cu1182 O1201   1.963   .     S
Cu1182 Cu1017  2.679   1_655 S
O1200  C986    1.291   1_655 S
O1201  C985    1.291   1_655 S
O1204  C1002   1.297   1_655 S
C1207  C1212   1.406   .     A
C1207  C1208   1.405   .     A
C1208  C1209   1.400   .     A
C1208  H1213   1.081   .     S
C1209  H1214   1.082   .     S
C1209  C1210   1.396   .     A
C1210  H1215   1.082   .     S
C1210  C1211   1.396   .     A
C1211  H1216   1.082   .     S
C1211  C1212   1.398   .     A
C1212  H1217   1.083   .     S
C1218  C1219   1.407   .     A
C1218  C1223   1.406   .     A
C1219  H1224   1.081   .     S
C1219  C1220   1.398   .     A
C1220  H1225   1.080   .     S
C1220  C1221   1.396   .     A
C1221  C1222   1.396   .     A
C1221  H1226   1.082   .     S
C1222  C1223   1.398   .     A
C1222  H1227   1.082   .     S
C1223  H1228   1.083   .     S
F1229  C1008   1.358   1_655 S
C1231  C1242   1.449   .     S
C1231  O1281   1.291   .     A
C1231  O1447   1.291   1_455 S
C1232  C1241   1.448   .     S
C1232  O1284   1.291   .     A
C1232  O1446   1.291   1_455 S
C1233  H1269   1.076   .     S
C1233  C1262   1.410   .     A
C1233  C1235   1.393   .     A
C1234  H1270   1.077   .     S
C1234  C1236   1.389   .     A
C1234  C1261   1.407   .     A
C1235  H1265   1.083   .     S
C1236  H1266   1.084   .     S
C1236  C522    1.395   1_556 S
C1237  H1271   1.083   .     S
C1237  C1324   1.401   .     S
C1238  H1272   1.083   .     S
C1238  C1241   1.401   .     A
C1238  C748    1.383   1_565 S
C1239  H1273   1.083   .     S
C1239  C745    1.383   1_565 S
C1239  C1323   1.401   .     S
C1240  H1274   1.083   .     S
C1240  C1242   1.401   .     A
C1241  C1403   1.401   1_455 S
C1242  C1401   1.401   1_455 S
C1243  N1280   1.367   .     A
C1243  C1245   1.414   .     A
C1243  H1275   1.080   .     S
C1244  H1276   1.078   .     S
C1244  N1279   1.366   .     A
C1244  C1246   1.413   .     A
C1245  H1277   1.080   .     S
C1245  N1279   1.367   .     A
C1246  H1278   1.080   .     S
C1246  N1280   1.367   .     A
C1247  C1249   1.480   .     S
C1247  O1287   1.295   .     A
C1247  O1367   1.302   .     S
C1248  O1288   1.294   .     A
C1248  C1250   1.468   .     S
C1248  O1450   1.297   1_455 S
C1249  C1253   1.412   .     A
C1249  C1255   1.420   .     A
C1250  C1254   1.407   .     A
C1250  C1256   1.412   .     A
C1251  C1259   1.397   .     A
C1251  C1253   1.393   .     A
C1251  H1349   1.082   .     S
C1252  H1268   1.084   .     S
C1252  C1254   1.390   .     A
C1252  C1260   1.397   .     A
C1253  F1394   1.357   .     S
C1254  F1475   1.358   1_455 S
C1255  C1257   1.413   .     A
C1255  C1300   1.493   .     S
C1256  C1289   1.491   .     S
C1256  C1258   1.414   .     A
C1257  C1259   1.412   .     A
C1257  C1261   1.415   .     A
C1258  C1262   1.419   .     A
C1258  C1260   1.417   .     A
C1259  C497    1.397   1_556 S
C1261  C524    1.412   1_556 S
Cu1263 O1285   1.961   .     S
Cu1263 O1288   1.951   .     S
Cu1263 N1279   2.013   .     S
Cu1263 O1284   1.963   .     S
Cu1263 O1281   1.963   .     S
Cu1263 Cu1428  2.679   1_455 S
Cu1264 O1286   1.961   .     S
Cu1264 O1287   1.951   .     S
Cu1264 N1280   2.013   .     S
Cu1264 O1282   1.963   .     S
Cu1264 O1283   1.963   .     S
Cu1264 Cu1345  2.679   .     S
H1267  C1415   1.082   1_455 S
O1282  C1314   1.291   .     S
O1283  C1313   1.291   .     S
O1285  C1411   1.302   1_455 S
O1286  C1330   1.297   .     S
C1289  C1294   1.406   .     A
C1289  C1290   1.405   .     A
C1290  C1291   1.400   .     A
C1290  H1295   1.081   .     S
C1291  H1296   1.082   .     S
C1291  C1292   1.396   .     A
C1292  H1297   1.082   .     S
C1292  C1293   1.396   .     A
C1293  H1298   1.082   .     S
C1293  C1294   1.398   .     A
C1294  H1299   1.083   .     S
C1300  C1301   1.407   .     A
C1300  C1305   1.406   .     A
C1301  H1306   1.081   .     S
C1301  C1302   1.398   .     A
C1302  H1307   1.080   .     S
C1302  C1303   1.396   .     A
C1303  C1304   1.396   .     A
C1303  H1308   1.082   .     S
C1304  C1305   1.398   .     A
C1304  H1309   1.082   .     S
C1305  H1310   1.083   .     S
F1311  C1336   1.358   .     S
F1312  C1417   1.357   1_455 S
C1313  C1324   1.449   .     S
C1313  O1363   1.291   .     A
C1314  C1323   1.448   .     S
C1314  O1366   1.291   .     A
C1315  H1351   1.076   .     S
C1315  C1344   1.410   .     A
C1315  C1317   1.393   .     A
C1316  H1352   1.077   .     S
C1316  C1318   1.389   .     A
C1316  C1343   1.407   .     A
C1317  H1347   1.083   .     S
C1318  H1348   1.084   .     S
C1318  C604    1.395   1_556 S
C1319  H1353   1.083   .     S
C1319  C1406   1.401   .     S
C1320  H1354   1.083   .     S
C1320  C1323   1.401   .     A
C1320  C830    1.383   1_565 S
C1321  H1355   1.083   .     S
C1321  C827    1.383   1_565 S
C1321  C1405   1.401   .     S
C1322  H1356   1.083   .     S
C1322  C1324   1.401   .     A
C1325  N1362   1.367   .     A
C1325  C1327   1.414   .     A
C1325  H1357   1.080   .     S
C1326  H1358   1.078   .     S
C1326  N1361   1.366   .     A
C1326  C1328   1.413   .     A
C1327  H1359   1.080   .     S
C1327  N1361   1.367   .     A
C1328  H1360   1.080   .     S
C1328  N1362   1.367   .     A
C1329  C1331   1.480   .     S
C1329  O1369   1.295   .     A
C1329  O1449   1.302   .     S
C1330  O1370   1.294   .     A
C1330  C1332   1.468   .     S
C1331  C1335   1.412   .     A
C1331  C1337   1.420   .     A
C1332  C1336   1.407   .     A
C1332  C1338   1.412   .     A
C1333  C1341   1.397   .     A
C1333  C1335   1.393   .     A
C1333  H1431   1.082   .     S
C1334  H1350   1.084   .     S
C1334  C1336   1.390   .     A
C1334  C1342   1.397   .     A
C1335  F1476   1.357   .     S
C1337  C1339   1.413   .     A
C1337  C1382   1.493   .     S
C1338  C1371   1.491   .     S
C1338  C1340   1.414   .     A
C1339  C1341   1.412   .     A
C1339  C1343   1.415   .     A
C1340  C1344   1.419   .     A
C1340  C1342   1.417   .     A
C1341  C579    1.397   1_556 S
C1343  C606    1.412   1_556 S
Cu1345 O1367   1.961   .     S
Cu1345 O1370   1.951   .     S
Cu1345 N1361   2.013   .     S
Cu1345 O1366   1.963   .     S
Cu1345 O1363   1.963   .     S
Cu1346 O1368   1.961   .     S
Cu1346 O1369   1.951   .     S
Cu1346 N1362   2.013   .     S
Cu1346 O1364   1.963   .     S
Cu1346 O1365   1.963   .     S
Cu1346 Cu1427  2.679   .     S
O1364  C1396   1.291   .     S
O1365  C1395   1.291   .     S
O1368  C1412   1.297   .     S
C1371  C1376   1.406   .     A
C1371  C1372   1.405   .     A
C1372  C1373   1.400   .     A
C1372  H1377   1.081   .     S
C1373  H1378   1.082   .     S
C1373  C1374   1.396   .     A
C1374  H1379   1.082   .     S
C1374  C1375   1.396   .     A
C1375  H1380   1.082   .     S
C1375  C1376   1.398   .     A
C1376  H1381   1.083   .     S
C1382  C1383   1.407   .     A
C1382  C1387   1.406   .     A
C1383  H1388   1.081   .     S
C1383  C1384   1.398   .     A
C1384  H1389   1.080   .     S
C1384  C1385   1.396   .     A
C1385  C1386   1.396   .     A
C1385  H1390   1.082   .     S
C1386  C1387   1.398   .     A
C1386  H1391   1.082   .     S
C1387  H1392   1.083   .     S
F1393  C1418   1.358   .     S
C1395  C1406   1.449   .     S
C1395  O1445   1.291   .     A
C1396  C1405   1.448   .     S
C1396  O1448   1.291   .     A
C1397  H1433   1.076   .     S
C1397  C1426   1.410   .     A
C1397  C1399   1.393   .     A
C1398  H1434   1.077   .     S
C1398  C1400   1.389   .     A
C1398  C1425   1.407   .     A
C1399  H1429   1.083   .     S
C1400  H1430   1.084   .     S
C1400  C686    1.395   1_556 S
C1401  H1435   1.083   .     S
C1401  C1242   1.401   1_655 S
C1402  H1436   1.083   .     S
C1402  C1405   1.401   .     A
C1402  C912    1.383   1_565 S
C1403  H1437   1.083   .     S
C1403  C909    1.383   1_565 S
C1403  C1241   1.401   1_655 S
C1404  H1438   1.083   .     S
C1404  C1406   1.401   .     A
C1407  N1444   1.367   .     A
C1407  C1409   1.414   .     A
C1407  H1439   1.080   .     S
C1408  H1440   1.078   .     S
C1408  N1443   1.366   .     A
C1408  C1410   1.413   .     A
C1409  H1441   1.080   .     S
C1409  N1443   1.367   .     A
C1410  H1442   1.080   .     S
C1410  N1444   1.367   .     A
C1411  C1413   1.480   .     S
C1411  O1451   1.295   .     A
C1411  O1285   1.302   1_655 S
C1412  O1452   1.294   .     A
C1412  C1414   1.468   .     S
C1413  C1417   1.412   .     A
C1413  C1419   1.420   .     A
C1414  C1418   1.407   .     A
C1414  C1420   1.412   .     A
C1415  C1423   1.397   .     A
C1415  C1417   1.393   .     A
C1415  H1267   1.082   1_655 S
C1416  H1432   1.084   .     S
C1416  C1418   1.390   .     A
C1416  C1424   1.397   .     A
C1417  F1312   1.357   1_655 S
C1419  C1421   1.413   .     A
C1419  C1464   1.493   .     S
C1420  C1453   1.491   .     S
C1420  C1422   1.414   .     A
C1421  C1423   1.412   .     A
C1421  C1425   1.415   .     A
C1422  C1426   1.419   .     A
C1422  C1424   1.417   .     A
C1423  C661    1.397   1_556 S
C1425  C688    1.412   1_556 S
Cu1427 O1449   1.961   .     S
Cu1427 O1452   1.951   .     S
Cu1427 N1443   2.013   .     S
Cu1427 O1448   1.963   .     S
Cu1427 O1445   1.963   .     S
Cu1428 O1450   1.961   .     S
Cu1428 O1451   1.951   .     S
Cu1428 N1444   2.013   .     S
Cu1428 O1446   1.963   .     S
Cu1428 O1447   1.963   .     S
Cu1428 Cu1263  2.679   1_655 S
O1446  C1232   1.291   1_655 S
O1447  C1231   1.291   1_655 S
O1450  C1248   1.297   1_655 S
C1453  C1458   1.406   .     A
C1453  C1454   1.405   .     A
C1454  C1455   1.400   .     A
C1454  H1459   1.081   .     S
C1455  H1460   1.082   .     S
C1455  C1456   1.396   .     A
C1456  H1461   1.082   .     S
C1456  C1457   1.396   .     A
C1457  H1462   1.082   .     S
C1457  C1458   1.398   .     A
C1458  H1463   1.083   .     S
C1464  C1465   1.407   .     A
C1464  C1469   1.406   .     A
C1465  H1470   1.081   .     S
C1465  C1466   1.398   .     A
C1466  H1471   1.080   .     S
C1466  C1467   1.396   .     A
C1467  C1468   1.396   .     A
C1467  H1472   1.082   .     S
C1468  C1469   1.398   .     A
C1468  H1473   1.082   .     S
C1469  H1474   1.083   .     S
F1475  C1254   1.358   1_655 S
