data_str_m2_o1_o16_pcu_sym.148
_audit_creation_date              2020-01-03
_audit_creation_method            'Materials Studio'
_symmetry_space_group_name_H-M    'P1'
_symmetry_Int_Tables_number       1
_symmetry_cell_setting            triclinic
loop_
_symmetry_equiv_pos_as_xyz
  x,y,z
_cell_length_a                    28.5588
_cell_length_b                    32.6505
_cell_length_c                    26.9002
_cell_angle_alpha                 89.6429
_cell_angle_beta                  72.7328
_cell_angle_gamma                 90.3060
loop_
_atom_site_label
_atom_site_type_symbol
_atom_site_fract_x
_atom_site_fract_y
_atom_site_fract_z
_atom_site_U_iso_or_equiv
_atom_site_adp_type
_atom_site_occupancy
O1     O     0.12708   0.22678   0.25000   0.00000  Uiso   1.00
O2     O     0.20627   0.22679   0.25000   0.00000  Uiso   1.00
C3     C     0.16698   0.24587   0.24927   0.00000  Uiso   1.00
O4     O     0.10775   0.16665   0.32549   0.00000  Uiso   1.00
O5     O     0.18694   0.16666   0.32549   0.00000  Uiso   1.00
C6     C     0.14045   0.16509   0.35013   0.00000  Uiso   1.00
Cu7    Cu    0.11978   0.16666   0.25000   0.00000  Uiso   1.00
Cu8    Cu    0.21355   0.16667   0.25000   0.00000  Uiso   1.00
O9     O     0.12706   0.10654   0.25000   0.00000  Uiso   1.00
O10    O     0.20625   0.10655   0.25000   0.00000  Uiso   1.00
O11    O     0.14640   0.16667   0.17451   0.00000  Uiso   1.00
O12    O     0.22559   0.16668   0.17451   0.00000  Uiso   1.00
C13    C     0.16797   0.08739   0.24506   0.00000  Uiso   1.00
C14    C     0.19281   0.16604   0.15005   0.00000  Uiso   1.00
C15    C     0.26228   0.13206   0.01557   0.00000  Uiso   1.00
H16    H     0.28012   0.13801   0.08698   0.00000  Uiso   1.00
H17    H     0.29744   0.11837   0.49716   0.00000  Uiso   1.00
C18    C     0.20748   0.16048   0.09368   0.00000  Uiso   1.00
C19    C     0.07828   0.18035   0.43373   0.00000  Uiso   1.00
C20    C     0.06405   0.18488   0.48734   0.00000  Uiso   1.00
C21    C     0.09673   0.17613   0.01528   0.00000  Uiso   1.00
C22    C     0.14440   0.16119   0.48999   0.00000  Uiso   1.00
C23    C     0.15611   0.15166   0.43652   0.00000  Uiso   1.00
C24    C     0.18064   0.15520   0.01597   0.00000  Uiso   1.00
C25    C     0.22645   0.13688   0.48944   0.00000  Uiso   1.00
C26    C     0.23470   0.12316   0.43802   0.00000  Uiso   1.00
C27    C     0.19883   0.12929   0.41333   0.00000  Uiso   1.00
C28    C     0.17290   0.16774   0.06752   0.00000  Uiso   1.00
C29    C     0.25276   0.14364   0.06725   0.00000  Uiso   1.00
C30    C     0.12444   0.16437   0.40757   0.00000  Uiso   1.00
H31    H     0.13990   0.18316   0.08875   0.00000  Uiso   1.00
H32    H     0.05340   0.19023   0.41259   0.00000  Uiso   1.00
H33    H     0.08303   0.18076   0.05666   0.00000  Uiso   1.00
H34    H     0.02796   0.19653   0.00723   0.00000  Uiso   1.00
H35    H     0.20426   0.11554   0.37573   0.00000  Uiso   1.00
C36    C     0.21139   0.31147   0.24149   0.00000  Uiso   1.00
H37    H     0.24404   0.29464   0.24135   0.00000  Uiso   1.00
C38    C     0.21406   0.02045   0.23437   0.00000  Uiso   1.00
C39    C     0.17001   0.04245   0.23768   0.00000  Uiso   1.00
C40    C     0.12771   0.01989   0.23532   0.00000  Uiso   1.00
C41    C     0.12765   0.31080   0.23969   0.00000  Uiso   1.00
H42    H     0.09565   0.29361   0.23783   0.00000  Uiso   1.00
C43    C     0.16821   0.29020   0.24527   0.00000  Uiso   1.00
C44    C     0.29745   0.18338   0.29030   0.00000  Uiso   1.00
H45    H     0.27007   0.19697   0.32260   0.00000  Uiso   1.00
C46    C     0.01369   0.18344   0.29023   0.00000  Uiso   1.00
H47    H     0.02339   0.19705   0.32241   0.00000  Uiso   1.00
N48    N     0.04931   0.16666   0.24998   0.00000  Uiso   1.00
C49    C     0.03593   0.15032   0.20949   0.00000  Uiso   1.00
H50    H     0.06336   0.13705   0.17697   0.00000  Uiso   1.00
C51    C     0.31978   0.15070   0.20931   0.00000  Uiso   1.00
H52    H     0.31027   0.13846   0.17641   0.00000  Uiso   1.00
N53    N     0.28402   0.16669   0.25000   0.00000  Uiso   1.00
C54    C     0.26551   0.03880   0.21606   0.00000  Uiso   1.00
C55    C     0.27786   0.05335   0.15911   0.00000  Uiso   1.00
C56    C     0.33318   0.05641   0.13326   0.00000  Uiso   1.00
H57    H     0.01771   0.07441   0.15744   0.00000  Uiso   1.00
H58    H     0.01608   0.02531   0.12786   0.00000  Uiso   1.00
H59    H     0.00734   0.07145   0.09452   0.00000  Uiso   1.00
H60    H     0.26264   0.03146   0.13627   0.00000  Uiso   1.00
H61    H     0.26091   0.08359   0.15732   0.00000  Uiso   1.00
H62    H     0.27104   0.06336   0.24191   0.00000  Uiso   1.00
H63    H     0.29291   0.01532   0.21814   0.00000  Uiso   1.00
C64    C     0.08359   0.03818   0.22303   0.00000  Uiso   1.00
C65    C     0.04100   0.04651   0.27224   0.00000  Uiso   1.00
C66    C     0.01615   0.00715   0.29890   0.00000  Uiso   1.00
H67    H     0.00754   0.31960   0.27033   0.00000  Uiso   1.00
H68    H     0.04016   0.32453   0.31844   0.00000  Uiso   1.00
H69    H     0.31466   0.01451   0.32900   0.00000  Uiso   1.00
H70    H     0.05371   0.06467   0.30061   0.00000  Uiso   1.00
H71    H     0.01355   0.06506   0.26058   0.00000  Uiso   1.00
H72    H     0.09375   0.06615   0.19858   0.00000  Uiso   1.00
H73    H     0.07052   0.01709   0.19754   0.00000  Uiso   1.00
S74    S     0.28949   0.09871   0.40229   0.00000  Uiso   1.00
O75    O     0.28759   0.08918   0.34839   0.00000  Uiso   1.00
O76    O     0.33251   0.12651   0.39848   0.00000  Uiso   1.00
O77    O     0.29608   0.05504   0.43291   0.00000  Uiso   1.00
H78    H     0.32970   0.04567   0.41466   0.00000  Uiso   1.00
O79    O     0.46042   0.22678   0.25000   0.00000  Uiso   1.00
O80    O     0.53961   0.22679   0.25000   0.00000  Uiso   1.00
C81    C     0.50032   0.24587   0.24927   0.00000  Uiso   1.00
O82    O     0.44108   0.16665   0.32549   0.00000  Uiso   1.00
O83    O     0.52027   0.16666   0.32549   0.00000  Uiso   1.00
C84    C     0.47378   0.16509   0.35013   0.00000  Uiso   1.00
Cu85   Cu    0.45311   0.16666   0.25000   0.00000  Uiso   1.00
Cu86   Cu    0.54689   0.16667   0.25000   0.00000  Uiso   1.00
O87    O     0.46039   0.10654   0.25000   0.00000  Uiso   1.00
O88    O     0.53958   0.10655   0.25000   0.00000  Uiso   1.00
O89    O     0.47973   0.16667   0.17451   0.00000  Uiso   1.00
O90    O     0.55892   0.16668   0.17451   0.00000  Uiso   1.00
C91    C     0.50130   0.08739   0.24506   0.00000  Uiso   1.00
C92    C     0.52614   0.16604   0.15005   0.00000  Uiso   1.00
C93    C     0.59561   0.13206   0.01557   0.00000  Uiso   1.00
H94    H     0.61346   0.13801   0.08698   0.00000  Uiso   1.00
H95    H     0.63077   0.11837   0.49716   0.00000  Uiso   1.00
C96    C     0.54082   0.16048   0.09368   0.00000  Uiso   1.00
C97    C     0.41161   0.18035   0.43373   0.00000  Uiso   1.00
C98    C     0.39739   0.18488   0.48734   0.00000  Uiso   1.00
C99    C     0.43006   0.17613   0.01528   0.00000  Uiso   1.00
C100   C     0.47773   0.16119   0.48999   0.00000  Uiso   1.00
C101   C     0.48945   0.15166   0.43652   0.00000  Uiso   1.00
C102   C     0.51398   0.15520   0.01597   0.00000  Uiso   1.00
C103   C     0.55978   0.13688   0.48944   0.00000  Uiso   1.00
C104   C     0.56803   0.12316   0.43802   0.00000  Uiso   1.00
C105   C     0.53216   0.12929   0.41333   0.00000  Uiso   1.00
C106   C     0.50624   0.16774   0.06752   0.00000  Uiso   1.00
C107   C     0.58609   0.14364   0.06725   0.00000  Uiso   1.00
C108   C     0.45777   0.16437   0.40757   0.00000  Uiso   1.00
H109   H     0.47324   0.18316   0.08875   0.00000  Uiso   1.00
H110   H     0.38673   0.19023   0.41259   0.00000  Uiso   1.00
H111   H     0.41636   0.18076   0.05666   0.00000  Uiso   1.00
H112   H     0.36130   0.19653   0.00723   0.00000  Uiso   1.00
H113   H     0.53760   0.11554   0.37573   0.00000  Uiso   1.00
C114   C     0.54473   0.31147   0.24149   0.00000  Uiso   1.00
H115   H     0.57738   0.29464   0.24135   0.00000  Uiso   1.00
C116   C     0.54739   0.02045   0.23437   0.00000  Uiso   1.00
C117   C     0.50335   0.04245   0.23768   0.00000  Uiso   1.00
C118   C     0.46104   0.01989   0.23532   0.00000  Uiso   1.00
C119   C     0.46098   0.31080   0.23969   0.00000  Uiso   1.00
H120   H     0.42898   0.29361   0.23783   0.00000  Uiso   1.00
C121   C     0.50154   0.29020   0.24527   0.00000  Uiso   1.00
C122   C     0.63078   0.18338   0.29030   0.00000  Uiso   1.00
H123   H     0.60340   0.19697   0.32260   0.00000  Uiso   1.00
C124   C     0.34703   0.18344   0.29023   0.00000  Uiso   1.00
H125   H     0.35672   0.19705   0.32241   0.00000  Uiso   1.00
N126   N     0.38265   0.16666   0.24998   0.00000  Uiso   1.00
C127   C     0.36927   0.15032   0.20949   0.00000  Uiso   1.00
H128   H     0.39669   0.13705   0.17697   0.00000  Uiso   1.00
C129   C     0.65312   0.15070   0.20931   0.00000  Uiso   1.00
H130   H     0.64360   0.13846   0.17641   0.00000  Uiso   1.00
N131   N     0.61735   0.16669   0.25000   0.00000  Uiso   1.00
C132   C     0.59884   0.03880   0.21606   0.00000  Uiso   1.00
C133   C     0.61119   0.05335   0.15911   0.00000  Uiso   1.00
C134   C     0.66652   0.05641   0.13326   0.00000  Uiso   1.00
H135   H     0.35104   0.07441   0.15744   0.00000  Uiso   1.00
H136   H     0.34941   0.02531   0.12786   0.00000  Uiso   1.00
H137   H     0.34068   0.07145   0.09452   0.00000  Uiso   1.00
H138   H     0.59597   0.03146   0.13627   0.00000  Uiso   1.00
H139   H     0.59424   0.08359   0.15732   0.00000  Uiso   1.00
H140   H     0.60437   0.06336   0.24191   0.00000  Uiso   1.00
H141   H     0.62624   0.01532   0.21814   0.00000  Uiso   1.00
C142   C     0.41693   0.03818   0.22303   0.00000  Uiso   1.00
C143   C     0.37434   0.04651   0.27224   0.00000  Uiso   1.00
C144   C     0.34948   0.00715   0.29890   0.00000  Uiso   1.00
H145   H     0.34087   0.31960   0.27033   0.00000  Uiso   1.00
H146   H     0.37349   0.32453   0.31844   0.00000  Uiso   1.00
H147   H     0.64799   0.01451   0.32900   0.00000  Uiso   1.00
H148   H     0.38705   0.06467   0.30061   0.00000  Uiso   1.00
H149   H     0.34689   0.06506   0.26058   0.00000  Uiso   1.00
H150   H     0.42708   0.06615   0.19858   0.00000  Uiso   1.00
H151   H     0.40385   0.01709   0.19754   0.00000  Uiso   1.00
S152   S     0.62282   0.09871   0.40229   0.00000  Uiso   1.00
O153   O     0.62092   0.08918   0.34839   0.00000  Uiso   1.00
O154   O     0.66585   0.12651   0.39848   0.00000  Uiso   1.00
O155   O     0.62941   0.05504   0.43291   0.00000  Uiso   1.00
H156   H     0.66304   0.04567   0.41466   0.00000  Uiso   1.00
O157   O     0.79375   0.22678   0.25000   0.00000  Uiso   1.00
O158   O     0.87294   0.22679   0.25000   0.00000  Uiso   1.00
C159   C     0.83365   0.24587   0.24927   0.00000  Uiso   1.00
O160   O     0.77441   0.16665   0.32549   0.00000  Uiso   1.00
O161   O     0.85360   0.16666   0.32549   0.00000  Uiso   1.00
C162   C     0.80711   0.16509   0.35013   0.00000  Uiso   1.00
Cu163  Cu    0.78645   0.16666   0.25000   0.00000  Uiso   1.00
Cu164  Cu    0.88022   0.16667   0.25000   0.00000  Uiso   1.00
O165   O     0.79373   0.10654   0.25000   0.00000  Uiso   1.00
O166   O     0.87292   0.10655   0.25000   0.00000  Uiso   1.00
O167   O     0.81306   0.16667   0.17451   0.00000  Uiso   1.00
O168   O     0.89225   0.16668   0.17451   0.00000  Uiso   1.00
C169   C     0.83463   0.08739   0.24506   0.00000  Uiso   1.00
C170   C     0.85948   0.16604   0.15005   0.00000  Uiso   1.00
C171   C     0.92894   0.13206   0.01557   0.00000  Uiso   1.00
H172   H     0.94679   0.13801   0.08698   0.00000  Uiso   1.00
H173   H     0.96411   0.11837   0.49716   0.00000  Uiso   1.00
C174   C     0.87415   0.16048   0.09368   0.00000  Uiso   1.00
C175   C     0.74495   0.18035   0.43373   0.00000  Uiso   1.00
C176   C     0.73072   0.18488   0.48734   0.00000  Uiso   1.00
C177   C     0.76339   0.17613   0.01528   0.00000  Uiso   1.00
C178   C     0.81106   0.16119   0.48999   0.00000  Uiso   1.00
C179   C     0.82278   0.15166   0.43652   0.00000  Uiso   1.00
C180   C     0.84731   0.15520   0.01597   0.00000  Uiso   1.00
C181   C     0.89311   0.13688   0.48944   0.00000  Uiso   1.00
C182   C     0.90136   0.12316   0.43802   0.00000  Uiso   1.00
C183   C     0.86549   0.12929   0.41333   0.00000  Uiso   1.00
C184   C     0.83957   0.16774   0.06752   0.00000  Uiso   1.00
C185   C     0.91943   0.14364   0.06725   0.00000  Uiso   1.00
C186   C     0.79110   0.16437   0.40757   0.00000  Uiso   1.00
H187   H     0.80657   0.18316   0.08875   0.00000  Uiso   1.00
H188   H     0.72006   0.19023   0.41259   0.00000  Uiso   1.00
H189   H     0.74969   0.18076   0.05666   0.00000  Uiso   1.00
H190   H     0.69463   0.19653   0.00723   0.00000  Uiso   1.00
H191   H     0.87093   0.11554   0.37573   0.00000  Uiso   1.00
C192   C     0.87806   0.31147   0.24149   0.00000  Uiso   1.00
H193   H     0.91071   0.29464   0.24135   0.00000  Uiso   1.00
C194   C     0.88072   0.02045   0.23437   0.00000  Uiso   1.00
C195   C     0.83668   0.04245   0.23768   0.00000  Uiso   1.00
C196   C     0.79437   0.01989   0.23532   0.00000  Uiso   1.00
C197   C     0.79432   0.31080   0.23969   0.00000  Uiso   1.00
H198   H     0.76232   0.29361   0.23783   0.00000  Uiso   1.00
C199   C     0.83487   0.29020   0.24527   0.00000  Uiso   1.00
C200   C     0.96411   0.18338   0.29030   0.00000  Uiso   1.00
H201   H     0.93673   0.19697   0.32260   0.00000  Uiso   1.00
C202   C     0.68036   0.18344   0.29023   0.00000  Uiso   1.00
H203   H     0.69006   0.19705   0.32241   0.00000  Uiso   1.00
N204   N     0.71598   0.16666   0.24998   0.00000  Uiso   1.00
C205   C     0.70260   0.15032   0.20949   0.00000  Uiso   1.00
H206   H     0.73002   0.13705   0.17697   0.00000  Uiso   1.00
C207   C     0.98645   0.15070   0.20931   0.00000  Uiso   1.00
H208   H     0.97693   0.13846   0.17641   0.00000  Uiso   1.00
N209   N     0.95069   0.16669   0.25000   0.00000  Uiso   1.00
C210   C     0.93218   0.03880   0.21606   0.00000  Uiso   1.00
C211   C     0.94453   0.05335   0.15911   0.00000  Uiso   1.00
C212   C     0.99985   0.05641   0.13326   0.00000  Uiso   1.00
H213   H     0.68438   0.07441   0.15744   0.00000  Uiso   1.00
H214   H     0.68275   0.02531   0.12786   0.00000  Uiso   1.00
H215   H     0.67401   0.07145   0.09452   0.00000  Uiso   1.00
H216   H     0.92930   0.03146   0.13627   0.00000  Uiso   1.00
H217   H     0.92758   0.08359   0.15732   0.00000  Uiso   1.00
H218   H     0.93771   0.06336   0.24191   0.00000  Uiso   1.00
H219   H     0.95958   0.01532   0.21814   0.00000  Uiso   1.00
C220   C     0.75026   0.03818   0.22303   0.00000  Uiso   1.00
C221   C     0.70767   0.04651   0.27224   0.00000  Uiso   1.00
C222   C     0.68282   0.00715   0.29890   0.00000  Uiso   1.00
H223   H     0.67421   0.31960   0.27033   0.00000  Uiso   1.00
H224   H     0.70683   0.32453   0.31844   0.00000  Uiso   1.00
H225   H     0.98132   0.01451   0.32900   0.00000  Uiso   1.00
H226   H     0.72038   0.06467   0.30061   0.00000  Uiso   1.00
H227   H     0.68022   0.06506   0.26058   0.00000  Uiso   1.00
H228   H     0.76042   0.06615   0.19858   0.00000  Uiso   1.00
H229   H     0.73719   0.01709   0.19754   0.00000  Uiso   1.00
S230   S     0.95616   0.09871   0.40229   0.00000  Uiso   1.00
O231   O     0.95426   0.08918   0.34839   0.00000  Uiso   1.00
O232   O     0.99918   0.12651   0.39848   0.00000  Uiso   1.00
O233   O     0.96274   0.05504   0.43291   0.00000  Uiso   1.00
H234   H     0.99637   0.04567   0.41466   0.00000  Uiso   1.00
O235   O     0.12708   0.56011   0.25000   0.00000  Uiso   1.00
O236   O     0.20627   0.56012   0.25000   0.00000  Uiso   1.00
C237   C     0.16698   0.57920   0.24927   0.00000  Uiso   1.00
O238   O     0.10775   0.49998   0.32549   0.00000  Uiso   1.00
O239   O     0.18694   0.49999   0.32549   0.00000  Uiso   1.00
C240   C     0.14045   0.49842   0.35013   0.00000  Uiso   1.00
Cu241  Cu    0.11978   0.49999   0.25000   0.00000  Uiso   1.00
Cu242  Cu    0.21355   0.50001   0.25000   0.00000  Uiso   1.00
O243   O     0.12706   0.43988   0.25000   0.00000  Uiso   1.00
O244   O     0.20625   0.43989   0.25000   0.00000  Uiso   1.00
O245   O     0.14640   0.50001   0.17451   0.00000  Uiso   1.00
O246   O     0.22559   0.50002   0.17451   0.00000  Uiso   1.00
C247   C     0.16797   0.42072   0.24506   0.00000  Uiso   1.00
C248   C     0.19281   0.49937   0.15005   0.00000  Uiso   1.00
C249   C     0.26228   0.46539   0.01557   0.00000  Uiso   1.00
H250   H     0.28012   0.47135   0.08698   0.00000  Uiso   1.00
H251   H     0.29744   0.45170   0.49716   0.00000  Uiso   1.00
C252   C     0.20748   0.49381   0.09368   0.00000  Uiso   1.00
C253   C     0.07828   0.51369   0.43373   0.00000  Uiso   1.00
C254   C     0.06405   0.51821   0.48734   0.00000  Uiso   1.00
C255   C     0.09673   0.50946   0.01528   0.00000  Uiso   1.00
C256   C     0.14440   0.49453   0.48999   0.00000  Uiso   1.00
C257   C     0.15611   0.48499   0.43652   0.00000  Uiso   1.00
C258   C     0.18064   0.48854   0.01597   0.00000  Uiso   1.00
C259   C     0.22645   0.47021   0.48944   0.00000  Uiso   1.00
C260   C     0.23470   0.45650   0.43802   0.00000  Uiso   1.00
C261   C     0.19883   0.46263   0.41333   0.00000  Uiso   1.00
C262   C     0.17290   0.50107   0.06752   0.00000  Uiso   1.00
C263   C     0.25276   0.47698   0.06725   0.00000  Uiso   1.00
C264   C     0.12444   0.49770   0.40757   0.00000  Uiso   1.00
H265   H     0.13990   0.51650   0.08875   0.00000  Uiso   1.00
H266   H     0.05340   0.52357   0.41259   0.00000  Uiso   1.00
H267   H     0.08303   0.51409   0.05666   0.00000  Uiso   1.00
H268   H     0.02796   0.52987   0.00723   0.00000  Uiso   1.00
H269   H     0.20426   0.44887   0.37573   0.00000  Uiso   1.00
C270   C     0.21139   0.64480   0.24149   0.00000  Uiso   1.00
H271   H     0.24404   0.62797   0.24135   0.00000  Uiso   1.00
C272   C     0.21406   0.35378   0.23437   0.00000  Uiso   1.00
C273   C     0.17001   0.37579   0.23768   0.00000  Uiso   1.00
C274   C     0.12771   0.35323   0.23532   0.00000  Uiso   1.00
C275   C     0.12765   0.64414   0.23969   0.00000  Uiso   1.00
H276   H     0.09565   0.62695   0.23783   0.00000  Uiso   1.00
C277   C     0.16821   0.62354   0.24527   0.00000  Uiso   1.00
C278   C     0.29745   0.51671   0.29030   0.00000  Uiso   1.00
H279   H     0.27007   0.53030   0.32260   0.00000  Uiso   1.00
C280   C     0.01369   0.51678   0.29023   0.00000  Uiso   1.00
H281   H     0.02339   0.53039   0.32241   0.00000  Uiso   1.00
N282   N     0.04931   0.49999   0.24998   0.00000  Uiso   1.00
C283   C     0.03593   0.48366   0.20949   0.00000  Uiso   1.00
H284   H     0.06336   0.47038   0.17697   0.00000  Uiso   1.00
C285   C     0.31978   0.48404   0.20931   0.00000  Uiso   1.00
H286   H     0.31027   0.47180   0.17641   0.00000  Uiso   1.00
N287   N     0.28402   0.50002   0.25000   0.00000  Uiso   1.00
C288   C     0.26551   0.37213   0.21606   0.00000  Uiso   1.00
C289   C     0.27786   0.38668   0.15911   0.00000  Uiso   1.00
C290   C     0.33318   0.38974   0.13326   0.00000  Uiso   1.00
H291   H     0.01771   0.40775   0.15744   0.00000  Uiso   1.00
H292   H     0.01608   0.35864   0.12786   0.00000  Uiso   1.00
H293   H     0.00734   0.40478   0.09452   0.00000  Uiso   1.00
H294   H     0.26264   0.36480   0.13627   0.00000  Uiso   1.00
H295   H     0.26091   0.41692   0.15732   0.00000  Uiso   1.00
H296   H     0.27104   0.39669   0.24191   0.00000  Uiso   1.00
H297   H     0.29291   0.34865   0.21814   0.00000  Uiso   1.00
C298   C     0.08359   0.37151   0.22303   0.00000  Uiso   1.00
C299   C     0.04100   0.37984   0.27224   0.00000  Uiso   1.00
C300   C     0.01615   0.34049   0.29890   0.00000  Uiso   1.00
H301   H     0.00754   0.65293   0.27033   0.00000  Uiso   1.00
H302   H     0.04016   0.65786   0.31844   0.00000  Uiso   1.00
H303   H     0.31466   0.34784   0.32900   0.00000  Uiso   1.00
H304   H     0.05371   0.39800   0.30061   0.00000  Uiso   1.00
H305   H     0.01355   0.39839   0.26058   0.00000  Uiso   1.00
H306   H     0.09375   0.39948   0.19858   0.00000  Uiso   1.00
H307   H     0.07052   0.35042   0.19754   0.00000  Uiso   1.00
S308   S     0.28949   0.43205   0.40229   0.00000  Uiso   1.00
O309   O     0.28759   0.42251   0.34839   0.00000  Uiso   1.00
O310   O     0.33251   0.45984   0.39848   0.00000  Uiso   1.00
O311   O     0.29608   0.38837   0.43291   0.00000  Uiso   1.00
H312   H     0.32970   0.37900   0.41466   0.00000  Uiso   1.00
O313   O     0.46042   0.56011   0.25000   0.00000  Uiso   1.00
O314   O     0.53961   0.56012   0.25000   0.00000  Uiso   1.00
C315   C     0.50032   0.57920   0.24927   0.00000  Uiso   1.00
O316   O     0.44108   0.49998   0.32549   0.00000  Uiso   1.00
O317   O     0.52027   0.49999   0.32549   0.00000  Uiso   1.00
C318   C     0.47378   0.49842   0.35013   0.00000  Uiso   1.00
Cu319  Cu    0.45311   0.49999   0.25000   0.00000  Uiso   1.00
Cu320  Cu    0.54689   0.50001   0.25000   0.00000  Uiso   1.00
O321   O     0.46039   0.43988   0.25000   0.00000  Uiso   1.00
O322   O     0.53958   0.43989   0.25000   0.00000  Uiso   1.00
O323   O     0.47973   0.50001   0.17451   0.00000  Uiso   1.00
O324   O     0.55892   0.50002   0.17451   0.00000  Uiso   1.00
C325   C     0.50130   0.42072   0.24506   0.00000  Uiso   1.00
C326   C     0.52614   0.49937   0.15005   0.00000  Uiso   1.00
C327   C     0.59561   0.46539   0.01557   0.00000  Uiso   1.00
H328   H     0.61346   0.47135   0.08698   0.00000  Uiso   1.00
H329   H     0.63077   0.45170   0.49716   0.00000  Uiso   1.00
C330   C     0.54082   0.49381   0.09368   0.00000  Uiso   1.00
C331   C     0.41161   0.51369   0.43373   0.00000  Uiso   1.00
C332   C     0.39739   0.51821   0.48734   0.00000  Uiso   1.00
C333   C     0.43006   0.50946   0.01528   0.00000  Uiso   1.00
C334   C     0.47773   0.49453   0.48999   0.00000  Uiso   1.00
C335   C     0.48945   0.48499   0.43652   0.00000  Uiso   1.00
C336   C     0.51398   0.48854   0.01597   0.00000  Uiso   1.00
C337   C     0.55978   0.47021   0.48944   0.00000  Uiso   1.00
C338   C     0.56803   0.45650   0.43802   0.00000  Uiso   1.00
C339   C     0.53216   0.46263   0.41333   0.00000  Uiso   1.00
C340   C     0.50624   0.50107   0.06752   0.00000  Uiso   1.00
C341   C     0.58609   0.47698   0.06725   0.00000  Uiso   1.00
C342   C     0.45777   0.49770   0.40757   0.00000  Uiso   1.00
H343   H     0.47324   0.51650   0.08875   0.00000  Uiso   1.00
H344   H     0.38673   0.52357   0.41259   0.00000  Uiso   1.00
H345   H     0.41636   0.51409   0.05666   0.00000  Uiso   1.00
H346   H     0.36130   0.52987   0.00723   0.00000  Uiso   1.00
H347   H     0.53760   0.44887   0.37573   0.00000  Uiso   1.00
C348   C     0.54473   0.64480   0.24149   0.00000  Uiso   1.00
H349   H     0.57738   0.62797   0.24135   0.00000  Uiso   1.00
C350   C     0.54739   0.35378   0.23437   0.00000  Uiso   1.00
C351   C     0.50335   0.37579   0.23768   0.00000  Uiso   1.00
C352   C     0.46104   0.35323   0.23532   0.00000  Uiso   1.00
C353   C     0.46098   0.64414   0.23969   0.00000  Uiso   1.00
H354   H     0.42898   0.62695   0.23783   0.00000  Uiso   1.00
C355   C     0.50154   0.62354   0.24527   0.00000  Uiso   1.00
C356   C     0.63078   0.51671   0.29030   0.00000  Uiso   1.00
H357   H     0.60340   0.53030   0.32260   0.00000  Uiso   1.00
C358   C     0.34703   0.51678   0.29023   0.00000  Uiso   1.00
H359   H     0.35672   0.53039   0.32241   0.00000  Uiso   1.00
N360   N     0.38265   0.49999   0.24998   0.00000  Uiso   1.00
C361   C     0.36927   0.48366   0.20949   0.00000  Uiso   1.00
H362   H     0.39669   0.47038   0.17697   0.00000  Uiso   1.00
C363   C     0.65312   0.48404   0.20931   0.00000  Uiso   1.00
H364   H     0.64360   0.47180   0.17641   0.00000  Uiso   1.00
N365   N     0.61735   0.50002   0.25000   0.00000  Uiso   1.00
C366   C     0.59884   0.37213   0.21606   0.00000  Uiso   1.00
C367   C     0.61119   0.38668   0.15911   0.00000  Uiso   1.00
C368   C     0.66652   0.38974   0.13326   0.00000  Uiso   1.00
H369   H     0.35104   0.40775   0.15744   0.00000  Uiso   1.00
H370   H     0.34941   0.35864   0.12786   0.00000  Uiso   1.00
H371   H     0.34068   0.40478   0.09452   0.00000  Uiso   1.00
H372   H     0.59597   0.36480   0.13627   0.00000  Uiso   1.00
H373   H     0.59424   0.41692   0.15732   0.00000  Uiso   1.00
H374   H     0.60437   0.39669   0.24191   0.00000  Uiso   1.00
H375   H     0.62624   0.34865   0.21814   0.00000  Uiso   1.00
C376   C     0.41693   0.37151   0.22303   0.00000  Uiso   1.00
C377   C     0.37434   0.37984   0.27224   0.00000  Uiso   1.00
C378   C     0.34948   0.34049   0.29890   0.00000  Uiso   1.00
H379   H     0.34087   0.65293   0.27033   0.00000  Uiso   1.00
H380   H     0.37349   0.65786   0.31844   0.00000  Uiso   1.00
H381   H     0.64799   0.34784   0.32900   0.00000  Uiso   1.00
H382   H     0.38705   0.39800   0.30061   0.00000  Uiso   1.00
H383   H     0.34689   0.39839   0.26058   0.00000  Uiso   1.00
H384   H     0.42708   0.39948   0.19858   0.00000  Uiso   1.00
H385   H     0.40385   0.35042   0.19754   0.00000  Uiso   1.00
S386   S     0.62282   0.43205   0.40229   0.00000  Uiso   1.00
O387   O     0.62092   0.42251   0.34839   0.00000  Uiso   1.00
O388   O     0.66585   0.45984   0.39848   0.00000  Uiso   1.00
O389   O     0.62941   0.38837   0.43291   0.00000  Uiso   1.00
H390   H     0.66304   0.37900   0.41466   0.00000  Uiso   1.00
O391   O     0.79375   0.56011   0.25000   0.00000  Uiso   1.00
O392   O     0.87294   0.56012   0.25000   0.00000  Uiso   1.00
C393   C     0.83365   0.57920   0.24927   0.00000  Uiso   1.00
O394   O     0.77441   0.49998   0.32549   0.00000  Uiso   1.00
O395   O     0.85360   0.49999   0.32549   0.00000  Uiso   1.00
C396   C     0.80711   0.49842   0.35013   0.00000  Uiso   1.00
Cu397  Cu    0.78645   0.49999   0.25000   0.00000  Uiso   1.00
Cu398  Cu    0.88022   0.50001   0.25000   0.00000  Uiso   1.00
O399   O     0.79373   0.43988   0.25000   0.00000  Uiso   1.00
O400   O     0.87292   0.43989   0.25000   0.00000  Uiso   1.00
O401   O     0.81306   0.50001   0.17451   0.00000  Uiso   1.00
O402   O     0.89225   0.50002   0.17451   0.00000  Uiso   1.00
C403   C     0.83463   0.42072   0.24506   0.00000  Uiso   1.00
C404   C     0.85948   0.49937   0.15005   0.00000  Uiso   1.00
C405   C     0.92894   0.46539   0.01557   0.00000  Uiso   1.00
H406   H     0.94679   0.47135   0.08698   0.00000  Uiso   1.00
H407   H     0.96411   0.45170   0.49716   0.00000  Uiso   1.00
C408   C     0.87415   0.49381   0.09368   0.00000  Uiso   1.00
C409   C     0.74495   0.51369   0.43373   0.00000  Uiso   1.00
C410   C     0.73072   0.51821   0.48734   0.00000  Uiso   1.00
C411   C     0.76339   0.50946   0.01528   0.00000  Uiso   1.00
C412   C     0.81106   0.49453   0.48999   0.00000  Uiso   1.00
C413   C     0.82278   0.48499   0.43652   0.00000  Uiso   1.00
C414   C     0.84731   0.48854   0.01597   0.00000  Uiso   1.00
C415   C     0.89311   0.47021   0.48944   0.00000  Uiso   1.00
C416   C     0.90136   0.45650   0.43802   0.00000  Uiso   1.00
C417   C     0.86549   0.46263   0.41333   0.00000  Uiso   1.00
C418   C     0.83957   0.50107   0.06752   0.00000  Uiso   1.00
C419   C     0.91943   0.47698   0.06725   0.00000  Uiso   1.00
C420   C     0.79110   0.49770   0.40757   0.00000  Uiso   1.00
H421   H     0.80657   0.51650   0.08875   0.00000  Uiso   1.00
H422   H     0.72006   0.52357   0.41259   0.00000  Uiso   1.00
H423   H     0.74969   0.51409   0.05666   0.00000  Uiso   1.00
H424   H     0.69463   0.52987   0.00723   0.00000  Uiso   1.00
H425   H     0.87093   0.44887   0.37573   0.00000  Uiso   1.00
C426   C     0.87806   0.64480   0.24149   0.00000  Uiso   1.00
H427   H     0.91071   0.62797   0.24135   0.00000  Uiso   1.00
C428   C     0.88072   0.35378   0.23437   0.00000  Uiso   1.00
C429   C     0.83668   0.37579   0.23768   0.00000  Uiso   1.00
C430   C     0.79437   0.35323   0.23532   0.00000  Uiso   1.00
C431   C     0.79432   0.64414   0.23969   0.00000  Uiso   1.00
H432   H     0.76232   0.62695   0.23783   0.00000  Uiso   1.00
C433   C     0.83487   0.62354   0.24527   0.00000  Uiso   1.00
C434   C     0.96411   0.51671   0.29030   0.00000  Uiso   1.00
H435   H     0.93673   0.53030   0.32260   0.00000  Uiso   1.00
C436   C     0.68036   0.51678   0.29023   0.00000  Uiso   1.00
H437   H     0.69006   0.53039   0.32241   0.00000  Uiso   1.00
N438   N     0.71598   0.49999   0.24998   0.00000  Uiso   1.00
C439   C     0.70260   0.48366   0.20949   0.00000  Uiso   1.00
H440   H     0.73002   0.47038   0.17697   0.00000  Uiso   1.00
C441   C     0.98645   0.48404   0.20931   0.00000  Uiso   1.00
H442   H     0.97693   0.47180   0.17641   0.00000  Uiso   1.00
N443   N     0.95069   0.50002   0.25000   0.00000  Uiso   1.00
C444   C     0.93218   0.37213   0.21606   0.00000  Uiso   1.00
C445   C     0.94453   0.38668   0.15911   0.00000  Uiso   1.00
C446   C     0.99985   0.38974   0.13326   0.00000  Uiso   1.00
H447   H     0.68438   0.40775   0.15744   0.00000  Uiso   1.00
H448   H     0.68275   0.35864   0.12786   0.00000  Uiso   1.00
H449   H     0.67401   0.40478   0.09452   0.00000  Uiso   1.00
H450   H     0.92930   0.36480   0.13627   0.00000  Uiso   1.00
H451   H     0.92758   0.41692   0.15732   0.00000  Uiso   1.00
H452   H     0.93771   0.39669   0.24191   0.00000  Uiso   1.00
H453   H     0.95958   0.34865   0.21814   0.00000  Uiso   1.00
C454   C     0.75026   0.37151   0.22303   0.00000  Uiso   1.00
C455   C     0.70767   0.37984   0.27224   0.00000  Uiso   1.00
C456   C     0.68282   0.34049   0.29890   0.00000  Uiso   1.00
H457   H     0.67421   0.65293   0.27033   0.00000  Uiso   1.00
H458   H     0.70683   0.65786   0.31844   0.00000  Uiso   1.00
H459   H     0.98132   0.34784   0.32900   0.00000  Uiso   1.00
H460   H     0.72038   0.39800   0.30061   0.00000  Uiso   1.00
H461   H     0.68022   0.39839   0.26058   0.00000  Uiso   1.00
H462   H     0.76042   0.39948   0.19858   0.00000  Uiso   1.00
H463   H     0.73719   0.35042   0.19754   0.00000  Uiso   1.00
S464   S     0.95616   0.43205   0.40229   0.00000  Uiso   1.00
O465   O     0.95426   0.42251   0.34839   0.00000  Uiso   1.00
O466   O     0.99918   0.45984   0.39848   0.00000  Uiso   1.00
O467   O     0.96274   0.38837   0.43291   0.00000  Uiso   1.00
H468   H     0.99637   0.37900   0.41466   0.00000  Uiso   1.00
O469   O     0.12708   0.89345   0.25000   0.00000  Uiso   1.00
O470   O     0.20627   0.89346   0.25000   0.00000  Uiso   1.00
C471   C     0.16698   0.91254   0.24927   0.00000  Uiso   1.00
O472   O     0.10775   0.83332   0.32549   0.00000  Uiso   1.00
O473   O     0.18694   0.83333   0.32549   0.00000  Uiso   1.00
C474   C     0.14045   0.83176   0.35013   0.00000  Uiso   1.00
Cu475  Cu    0.11978   0.83333   0.25000   0.00000  Uiso   1.00
Cu476  Cu    0.21355   0.83334   0.25000   0.00000  Uiso   1.00
O477   O     0.12706   0.77321   0.25000   0.00000  Uiso   1.00
O478   O     0.20625   0.77322   0.25000   0.00000  Uiso   1.00
O479   O     0.14640   0.83334   0.17451   0.00000  Uiso   1.00
O480   O     0.22559   0.83335   0.17451   0.00000  Uiso   1.00
C481   C     0.16797   0.75406   0.24506   0.00000  Uiso   1.00
C482   C     0.19281   0.83270   0.15005   0.00000  Uiso   1.00
C483   C     0.26228   0.79873   0.01557   0.00000  Uiso   1.00
H484   H     0.28012   0.80468   0.08698   0.00000  Uiso   1.00
H485   H     0.29744   0.78504   0.49716   0.00000  Uiso   1.00
C486   C     0.20748   0.82714   0.09368   0.00000  Uiso   1.00
C487   C     0.07828   0.84702   0.43373   0.00000  Uiso   1.00
C488   C     0.06405   0.85154   0.48734   0.00000  Uiso   1.00
C489   C     0.09673   0.84280   0.01528   0.00000  Uiso   1.00
C490   C     0.14440   0.82786   0.48999   0.00000  Uiso   1.00
C491   C     0.15611   0.81833   0.43652   0.00000  Uiso   1.00
C492   C     0.18064   0.82187   0.01597   0.00000  Uiso   1.00
C493   C     0.22645   0.80355   0.48944   0.00000  Uiso   1.00
C494   C     0.23470   0.78983   0.43802   0.00000  Uiso   1.00
C495   C     0.19883   0.79596   0.41333   0.00000  Uiso   1.00
C496   C     0.17290   0.83440   0.06752   0.00000  Uiso   1.00
C497   C     0.25276   0.81031   0.06725   0.00000  Uiso   1.00
C498   C     0.12444   0.83103   0.40757   0.00000  Uiso   1.00
H499   H     0.13990   0.84983   0.08875   0.00000  Uiso   1.00
H500   H     0.05340   0.85690   0.41259   0.00000  Uiso   1.00
H501   H     0.08303   0.84742   0.05666   0.00000  Uiso   1.00
H502   H     0.02796   0.86320   0.00723   0.00000  Uiso   1.00
H503   H     0.20426   0.78220   0.37573   0.00000  Uiso   1.00
C504   C     0.21139   0.97813   0.24149   0.00000  Uiso   1.00
H505   H     0.24404   0.96131   0.24135   0.00000  Uiso   1.00
C506   C     0.21406   0.68711   0.23437   0.00000  Uiso   1.00
C507   C     0.17001   0.70912   0.23768   0.00000  Uiso   1.00
C508   C     0.12771   0.68656   0.23532   0.00000  Uiso   1.00
C509   C     0.12765   0.97747   0.23969   0.00000  Uiso   1.00
H510   H     0.09565   0.96028   0.23783   0.00000  Uiso   1.00
C511   C     0.16821   0.95687   0.24527   0.00000  Uiso   1.00
C512   C     0.29745   0.85004   0.29030   0.00000  Uiso   1.00
H513   H     0.27007   0.86364   0.32260   0.00000  Uiso   1.00
C514   C     0.01369   0.85011   0.29023   0.00000  Uiso   1.00
H515   H     0.02339   0.86372   0.32241   0.00000  Uiso   1.00
N516   N     0.04931   0.83332   0.24998   0.00000  Uiso   1.00
C517   C     0.03593   0.81699   0.20949   0.00000  Uiso   1.00
H518   H     0.06336   0.80372   0.17697   0.00000  Uiso   1.00
C519   C     0.31978   0.81737   0.20931   0.00000  Uiso   1.00
H520   H     0.31027   0.80513   0.17641   0.00000  Uiso   1.00
N521   N     0.28402   0.83335   0.25000   0.00000  Uiso   1.00
C522   C     0.26551   0.70546   0.21606   0.00000  Uiso   1.00
C523   C     0.27786   0.72002   0.15911   0.00000  Uiso   1.00
C524   C     0.33318   0.72307   0.13326   0.00000  Uiso   1.00
H525   H     0.01771   0.74108   0.15744   0.00000  Uiso   1.00
H526   H     0.01608   0.69197   0.12786   0.00000  Uiso   1.00
H527   H     0.00734   0.73812   0.09452   0.00000  Uiso   1.00
H528   H     0.26264   0.69813   0.13627   0.00000  Uiso   1.00
H529   H     0.26091   0.75025   0.15732   0.00000  Uiso   1.00
H530   H     0.27104   0.73002   0.24191   0.00000  Uiso   1.00
H531   H     0.29291   0.68198   0.21814   0.00000  Uiso   1.00
C532   C     0.08359   0.70485   0.22303   0.00000  Uiso   1.00
C533   C     0.04100   0.71318   0.27224   0.00000  Uiso   1.00
C534   C     0.01615   0.67382   0.29890   0.00000  Uiso   1.00
H535   H     0.00754   0.98627   0.27033   0.00000  Uiso   1.00
H536   H     0.04016   0.99120   0.31844   0.00000  Uiso   1.00
H537   H     0.31466   0.68117   0.32900   0.00000  Uiso   1.00
H538   H     0.05371   0.73133   0.30061   0.00000  Uiso   1.00
H539   H     0.01355   0.73173   0.26058   0.00000  Uiso   1.00
H540   H     0.09375   0.73282   0.19858   0.00000  Uiso   1.00
H541   H     0.07052   0.68375   0.19754   0.00000  Uiso   1.00
S542   S     0.28949   0.76538   0.40229   0.00000  Uiso   1.00
O543   O     0.28759   0.75584   0.34839   0.00000  Uiso   1.00
O544   O     0.33251   0.79317   0.39848   0.00000  Uiso   1.00
O545   O     0.29608   0.72171   0.43291   0.00000  Uiso   1.00
H546   H     0.32970   0.71234   0.41466   0.00000  Uiso   1.00
O547   O     0.46042   0.89345   0.25000   0.00000  Uiso   1.00
O548   O     0.53961   0.89346   0.25000   0.00000  Uiso   1.00
C549   C     0.50032   0.91254   0.24927   0.00000  Uiso   1.00
O550   O     0.44108   0.83332   0.32549   0.00000  Uiso   1.00
O551   O     0.52027   0.83333   0.32549   0.00000  Uiso   1.00
C552   C     0.47378   0.83176   0.35013   0.00000  Uiso   1.00
Cu553  Cu    0.45311   0.83333   0.25000   0.00000  Uiso   1.00
Cu554  Cu    0.54689   0.83334   0.25000   0.00000  Uiso   1.00
O555   O     0.46039   0.77321   0.25000   0.00000  Uiso   1.00
O556   O     0.53958   0.77322   0.25000   0.00000  Uiso   1.00
O557   O     0.47973   0.83334   0.17451   0.00000  Uiso   1.00
O558   O     0.55892   0.83335   0.17451   0.00000  Uiso   1.00
C559   C     0.50130   0.75406   0.24506   0.00000  Uiso   1.00
C560   C     0.52614   0.83270   0.15005   0.00000  Uiso   1.00
C561   C     0.59561   0.79873   0.01557   0.00000  Uiso   1.00
H562   H     0.61346   0.80468   0.08698   0.00000  Uiso   1.00
H563   H     0.63077   0.78504   0.49716   0.00000  Uiso   1.00
C564   C     0.54082   0.82714   0.09368   0.00000  Uiso   1.00
C565   C     0.41161   0.84702   0.43373   0.00000  Uiso   1.00
C566   C     0.39739   0.85154   0.48734   0.00000  Uiso   1.00
C567   C     0.43006   0.84280   0.01528   0.00000  Uiso   1.00
C568   C     0.47773   0.82786   0.48999   0.00000  Uiso   1.00
C569   C     0.48945   0.81833   0.43652   0.00000  Uiso   1.00
C570   C     0.51398   0.82187   0.01597   0.00000  Uiso   1.00
C571   C     0.55978   0.80355   0.48944   0.00000  Uiso   1.00
C572   C     0.56803   0.78983   0.43802   0.00000  Uiso   1.00
C573   C     0.53216   0.79596   0.41333   0.00000  Uiso   1.00
C574   C     0.50624   0.83440   0.06752   0.00000  Uiso   1.00
C575   C     0.58609   0.81031   0.06725   0.00000  Uiso   1.00
C576   C     0.45777   0.83103   0.40757   0.00000  Uiso   1.00
H577   H     0.47324   0.84983   0.08875   0.00000  Uiso   1.00
H578   H     0.38673   0.85690   0.41259   0.00000  Uiso   1.00
H579   H     0.41636   0.84742   0.05666   0.00000  Uiso   1.00
H580   H     0.36130   0.86320   0.00723   0.00000  Uiso   1.00
H581   H     0.53760   0.78220   0.37573   0.00000  Uiso   1.00
C582   C     0.54473   0.97813   0.24149   0.00000  Uiso   1.00
H583   H     0.57738   0.96131   0.24135   0.00000  Uiso   1.00
C584   C     0.54739   0.68711   0.23437   0.00000  Uiso   1.00
C585   C     0.50335   0.70912   0.23768   0.00000  Uiso   1.00
C586   C     0.46104   0.68656   0.23532   0.00000  Uiso   1.00
C587   C     0.46098   0.97747   0.23969   0.00000  Uiso   1.00
H588   H     0.42898   0.96028   0.23783   0.00000  Uiso   1.00
C589   C     0.50154   0.95687   0.24527   0.00000  Uiso   1.00
C590   C     0.63078   0.85004   0.29030   0.00000  Uiso   1.00
H591   H     0.60340   0.86364   0.32260   0.00000  Uiso   1.00
C592   C     0.34703   0.85011   0.29023   0.00000  Uiso   1.00
H593   H     0.35672   0.86372   0.32241   0.00000  Uiso   1.00
N594   N     0.38265   0.83332   0.24998   0.00000  Uiso   1.00
C595   C     0.36927   0.81699   0.20949   0.00000  Uiso   1.00
H596   H     0.39669   0.80372   0.17697   0.00000  Uiso   1.00
C597   C     0.65312   0.81737   0.20931   0.00000  Uiso   1.00
H598   H     0.64360   0.80513   0.17641   0.00000  Uiso   1.00
N599   N     0.61735   0.83335   0.25000   0.00000  Uiso   1.00
C600   C     0.59884   0.70546   0.21606   0.00000  Uiso   1.00
C601   C     0.61119   0.72002   0.15911   0.00000  Uiso   1.00
C602   C     0.66652   0.72307   0.13326   0.00000  Uiso   1.00
H603   H     0.35104   0.74108   0.15744   0.00000  Uiso   1.00
H604   H     0.34941   0.69197   0.12786   0.00000  Uiso   1.00
H605   H     0.34068   0.73812   0.09452   0.00000  Uiso   1.00
H606   H     0.59597   0.69813   0.13627   0.00000  Uiso   1.00
H607   H     0.59424   0.75025   0.15732   0.00000  Uiso   1.00
H608   H     0.60437   0.73002   0.24191   0.00000  Uiso   1.00
H609   H     0.62624   0.68198   0.21814   0.00000  Uiso   1.00
C610   C     0.41693   0.70485   0.22303   0.00000  Uiso   1.00
C611   C     0.37434   0.71318   0.27224   0.00000  Uiso   1.00
C612   C     0.34948   0.67382   0.29890   0.00000  Uiso   1.00
H613   H     0.34087   0.98627   0.27033   0.00000  Uiso   1.00
H614   H     0.37349   0.99120   0.31844   0.00000  Uiso   1.00
H615   H     0.64799   0.68117   0.32900   0.00000  Uiso   1.00
H616   H     0.38705   0.73133   0.30061   0.00000  Uiso   1.00
H617   H     0.34689   0.73173   0.26058   0.00000  Uiso   1.00
H618   H     0.42708   0.73282   0.19858   0.00000  Uiso   1.00
H619   H     0.40385   0.68375   0.19754   0.00000  Uiso   1.00
S620   S     0.62282   0.76538   0.40229   0.00000  Uiso   1.00
O621   O     0.62092   0.75584   0.34839   0.00000  Uiso   1.00
O622   O     0.66585   0.79317   0.39848   0.00000  Uiso   1.00
O623   O     0.62941   0.72171   0.43291   0.00000  Uiso   1.00
H624   H     0.66304   0.71234   0.41466   0.00000  Uiso   1.00
O625   O     0.79375   0.89345   0.25000   0.00000  Uiso   1.00
O626   O     0.87294   0.89346   0.25000   0.00000  Uiso   1.00
C627   C     0.83365   0.91254   0.24927   0.00000  Uiso   1.00
O628   O     0.77441   0.83332   0.32549   0.00000  Uiso   1.00
O629   O     0.85360   0.83333   0.32549   0.00000  Uiso   1.00
C630   C     0.80711   0.83176   0.35013   0.00000  Uiso   1.00
Cu631  Cu    0.78645   0.83333   0.25000   0.00000  Uiso   1.00
Cu632  Cu    0.88022   0.83334   0.25000   0.00000  Uiso   1.00
O633   O     0.79373   0.77321   0.25000   0.00000  Uiso   1.00
O634   O     0.87292   0.77322   0.25000   0.00000  Uiso   1.00
O635   O     0.81306   0.83334   0.17451   0.00000  Uiso   1.00
O636   O     0.89225   0.83335   0.17451   0.00000  Uiso   1.00
C637   C     0.83463   0.75406   0.24506   0.00000  Uiso   1.00
C638   C     0.85948   0.83270   0.15005   0.00000  Uiso   1.00
C639   C     0.92894   0.79873   0.01557   0.00000  Uiso   1.00
H640   H     0.94679   0.80468   0.08698   0.00000  Uiso   1.00
H641   H     0.96411   0.78504   0.49716   0.00000  Uiso   1.00
C642   C     0.87415   0.82714   0.09368   0.00000  Uiso   1.00
C643   C     0.74495   0.84702   0.43373   0.00000  Uiso   1.00
C644   C     0.73072   0.85154   0.48734   0.00000  Uiso   1.00
C645   C     0.76339   0.84280   0.01528   0.00000  Uiso   1.00
C646   C     0.81106   0.82786   0.48999   0.00000  Uiso   1.00
C647   C     0.82278   0.81833   0.43652   0.00000  Uiso   1.00
C648   C     0.84731   0.82187   0.01597   0.00000  Uiso   1.00
C649   C     0.89311   0.80355   0.48944   0.00000  Uiso   1.00
C650   C     0.90136   0.78983   0.43802   0.00000  Uiso   1.00
C651   C     0.86549   0.79596   0.41333   0.00000  Uiso   1.00
C652   C     0.83957   0.83440   0.06752   0.00000  Uiso   1.00
C653   C     0.91943   0.81031   0.06725   0.00000  Uiso   1.00
C654   C     0.79110   0.83103   0.40757   0.00000  Uiso   1.00
H655   H     0.80657   0.84983   0.08875   0.00000  Uiso   1.00
H656   H     0.72006   0.85690   0.41259   0.00000  Uiso   1.00
H657   H     0.74969   0.84742   0.05666   0.00000  Uiso   1.00
H658   H     0.69463   0.86320   0.00723   0.00000  Uiso   1.00
H659   H     0.87093   0.78220   0.37573   0.00000  Uiso   1.00
C660   C     0.87806   0.97813   0.24149   0.00000  Uiso   1.00
H661   H     0.91071   0.96131   0.24135   0.00000  Uiso   1.00
C662   C     0.88072   0.68711   0.23437   0.00000  Uiso   1.00
C663   C     0.83668   0.70912   0.23768   0.00000  Uiso   1.00
C664   C     0.79437   0.68656   0.23532   0.00000  Uiso   1.00
C665   C     0.79432   0.97747   0.23969   0.00000  Uiso   1.00
H666   H     0.76232   0.96028   0.23783   0.00000  Uiso   1.00
C667   C     0.83487   0.95687   0.24527   0.00000  Uiso   1.00
C668   C     0.96411   0.85004   0.29030   0.00000  Uiso   1.00
H669   H     0.93673   0.86364   0.32260   0.00000  Uiso   1.00
C670   C     0.68036   0.85011   0.29023   0.00000  Uiso   1.00
H671   H     0.69006   0.86372   0.32241   0.00000  Uiso   1.00
N672   N     0.71598   0.83332   0.24998   0.00000  Uiso   1.00
C673   C     0.70260   0.81699   0.20949   0.00000  Uiso   1.00
H674   H     0.73002   0.80372   0.17697   0.00000  Uiso   1.00
C675   C     0.98645   0.81737   0.20931   0.00000  Uiso   1.00
H676   H     0.97693   0.80513   0.17641   0.00000  Uiso   1.00
N677   N     0.95069   0.83335   0.25000   0.00000  Uiso   1.00
C678   C     0.93218   0.70546   0.21606   0.00000  Uiso   1.00
C679   C     0.94453   0.72002   0.15911   0.00000  Uiso   1.00
C680   C     0.99985   0.72307   0.13326   0.00000  Uiso   1.00
H681   H     0.68438   0.74108   0.15744   0.00000  Uiso   1.00
H682   H     0.68275   0.69197   0.12786   0.00000  Uiso   1.00
H683   H     0.67401   0.73812   0.09452   0.00000  Uiso   1.00
H684   H     0.92930   0.69813   0.13627   0.00000  Uiso   1.00
H685   H     0.92758   0.75025   0.15732   0.00000  Uiso   1.00
H686   H     0.93771   0.73002   0.24191   0.00000  Uiso   1.00
H687   H     0.95958   0.68198   0.21814   0.00000  Uiso   1.00
C688   C     0.75026   0.70485   0.22303   0.00000  Uiso   1.00
C689   C     0.70767   0.71318   0.27224   0.00000  Uiso   1.00
C690   C     0.68282   0.67382   0.29890   0.00000  Uiso   1.00
H691   H     0.67421   0.98627   0.27033   0.00000  Uiso   1.00
H692   H     0.70683   0.99120   0.31844   0.00000  Uiso   1.00
H693   H     0.98132   0.68117   0.32900   0.00000  Uiso   1.00
H694   H     0.72038   0.73133   0.30061   0.00000  Uiso   1.00
H695   H     0.68022   0.73173   0.26058   0.00000  Uiso   1.00
H696   H     0.76042   0.73282   0.19858   0.00000  Uiso   1.00
H697   H     0.73719   0.68375   0.19754   0.00000  Uiso   1.00
S698   S     0.95616   0.76538   0.40229   0.00000  Uiso   1.00
O699   O     0.95426   0.75584   0.34839   0.00000  Uiso   1.00
O700   O     0.99918   0.79317   0.39848   0.00000  Uiso   1.00
O701   O     0.96274   0.72171   0.43291   0.00000  Uiso   1.00
H702   H     0.99637   0.71234   0.41466   0.00000  Uiso   1.00
O703   O     0.12708   0.22678   0.75000   0.00000  Uiso   1.00
O704   O     0.20627   0.22679   0.75000   0.00000  Uiso   1.00
C705   C     0.16698   0.24587   0.74927   0.00000  Uiso   1.00
O706   O     0.10775   0.16665   0.82549   0.00000  Uiso   1.00
O707   O     0.18694   0.16666   0.82549   0.00000  Uiso   1.00
C708   C     0.14045   0.16509   0.85013   0.00000  Uiso   1.00
Cu709  Cu    0.11978   0.16666   0.75000   0.00000  Uiso   1.00
Cu710  Cu    0.21355   0.16667   0.75000   0.00000  Uiso   1.00
O711   O     0.12706   0.10654   0.75000   0.00000  Uiso   1.00
O712   O     0.20625   0.10655   0.75000   0.00000  Uiso   1.00
O713   O     0.14640   0.16667   0.67451   0.00000  Uiso   1.00
O714   O     0.22559   0.16668   0.67451   0.00000  Uiso   1.00
C715   C     0.16797   0.08739   0.74506   0.00000  Uiso   1.00
C716   C     0.19281   0.16604   0.65005   0.00000  Uiso   1.00
C717   C     0.26228   0.13206   0.51557   0.00000  Uiso   1.00
H718   H     0.28012   0.13801   0.58698   0.00000  Uiso   1.00
H719   H     0.29744   0.11837   0.99716   0.00000  Uiso   1.00
C720   C     0.20748   0.16048   0.59368   0.00000  Uiso   1.00
C721   C     0.07828   0.18035   0.93373   0.00000  Uiso   1.00
C722   C     0.06405   0.18488   0.98734   0.00000  Uiso   1.00
C723   C     0.09673   0.17613   0.51528   0.00000  Uiso   1.00
C724   C     0.14440   0.16119   0.98999   0.00000  Uiso   1.00
C725   C     0.15611   0.15166   0.93652   0.00000  Uiso   1.00
C726   C     0.18064   0.15520   0.51597   0.00000  Uiso   1.00
C727   C     0.22645   0.13688   0.98944   0.00000  Uiso   1.00
C728   C     0.23470   0.12316   0.93802   0.00000  Uiso   1.00
C729   C     0.19883   0.12929   0.91333   0.00000  Uiso   1.00
C730   C     0.17290   0.16774   0.56752   0.00000  Uiso   1.00
C731   C     0.25276   0.14364   0.56725   0.00000  Uiso   1.00
C732   C     0.12444   0.16437   0.90757   0.00000  Uiso   1.00
H733   H     0.13990   0.18316   0.58875   0.00000  Uiso   1.00
H734   H     0.05340   0.19023   0.91259   0.00000  Uiso   1.00
H735   H     0.08303   0.18076   0.55666   0.00000  Uiso   1.00
H736   H     0.02796   0.19653   0.50723   0.00000  Uiso   1.00
H737   H     0.20426   0.11554   0.87573   0.00000  Uiso   1.00
C738   C     0.21139   0.31147   0.74149   0.00000  Uiso   1.00
H739   H     0.24404   0.29464   0.74135   0.00000  Uiso   1.00
C740   C     0.21406   0.02045   0.73437   0.00000  Uiso   1.00
C741   C     0.17001   0.04245   0.73768   0.00000  Uiso   1.00
C742   C     0.12771   0.01989   0.73532   0.00000  Uiso   1.00
C743   C     0.12765   0.31080   0.73969   0.00000  Uiso   1.00
H744   H     0.09565   0.29361   0.73783   0.00000  Uiso   1.00
C745   C     0.16821   0.29020   0.74527   0.00000  Uiso   1.00
C746   C     0.29745   0.18338   0.79030   0.00000  Uiso   1.00
H747   H     0.27007   0.19697   0.82260   0.00000  Uiso   1.00
C748   C     0.01369   0.18344   0.79023   0.00000  Uiso   1.00
H749   H     0.02339   0.19705   0.82241   0.00000  Uiso   1.00
N750   N     0.04931   0.16666   0.74998   0.00000  Uiso   1.00
C751   C     0.03593   0.15032   0.70949   0.00000  Uiso   1.00
H752   H     0.06336   0.13705   0.67697   0.00000  Uiso   1.00
C753   C     0.31978   0.15070   0.70931   0.00000  Uiso   1.00
H754   H     0.31027   0.13846   0.67641   0.00000  Uiso   1.00
N755   N     0.28402   0.16669   0.75000   0.00000  Uiso   1.00
C756   C     0.26551   0.03880   0.71606   0.00000  Uiso   1.00
C757   C     0.27786   0.05335   0.65911   0.00000  Uiso   1.00
C758   C     0.33318   0.05641   0.63326   0.00000  Uiso   1.00
H759   H     0.01771   0.07441   0.65744   0.00000  Uiso   1.00
H760   H     0.01608   0.02531   0.62786   0.00000  Uiso   1.00
H761   H     0.00734   0.07145   0.59452   0.00000  Uiso   1.00
H762   H     0.26264   0.03146   0.63627   0.00000  Uiso   1.00
H763   H     0.26091   0.08359   0.65732   0.00000  Uiso   1.00
H764   H     0.27104   0.06336   0.74191   0.00000  Uiso   1.00
H765   H     0.29291   0.01532   0.71814   0.00000  Uiso   1.00
C766   C     0.08359   0.03818   0.72303   0.00000  Uiso   1.00
C767   C     0.04100   0.04651   0.77224   0.00000  Uiso   1.00
C768   C     0.01615   0.00715   0.79890   0.00000  Uiso   1.00
H769   H     0.00754   0.31960   0.77033   0.00000  Uiso   1.00
H770   H     0.04016   0.32453   0.81844   0.00000  Uiso   1.00
H771   H     0.31466   0.01451   0.82900   0.00000  Uiso   1.00
H772   H     0.05371   0.06467   0.80061   0.00000  Uiso   1.00
H773   H     0.01355   0.06506   0.76058   0.00000  Uiso   1.00
H774   H     0.09375   0.06615   0.69858   0.00000  Uiso   1.00
H775   H     0.07052   0.01709   0.69754   0.00000  Uiso   1.00
S776   S     0.28949   0.09871   0.90229   0.00000  Uiso   1.00
O777   O     0.28759   0.08918   0.84839   0.00000  Uiso   1.00
O778   O     0.33251   0.12651   0.89848   0.00000  Uiso   1.00
O779   O     0.29608   0.05504   0.93291   0.00000  Uiso   1.00
H780   H     0.32970   0.04567   0.91466   0.00000  Uiso   1.00
O781   O     0.46042   0.22678   0.75000   0.00000  Uiso   1.00
O782   O     0.53961   0.22679   0.75000   0.00000  Uiso   1.00
C783   C     0.50032   0.24587   0.74927   0.00000  Uiso   1.00
O784   O     0.44108   0.16665   0.82549   0.00000  Uiso   1.00
O785   O     0.52027   0.16666   0.82549   0.00000  Uiso   1.00
C786   C     0.47378   0.16509   0.85013   0.00000  Uiso   1.00
Cu787  Cu    0.45311   0.16666   0.75000   0.00000  Uiso   1.00
Cu788  Cu    0.54689   0.16667   0.75000   0.00000  Uiso   1.00
O789   O     0.46039   0.10654   0.75000   0.00000  Uiso   1.00
O790   O     0.53958   0.10655   0.75000   0.00000  Uiso   1.00
O791   O     0.47973   0.16667   0.67451   0.00000  Uiso   1.00
O792   O     0.55892   0.16668   0.67451   0.00000  Uiso   1.00
C793   C     0.50130   0.08739   0.74506   0.00000  Uiso   1.00
C794   C     0.52614   0.16604   0.65005   0.00000  Uiso   1.00
C795   C     0.59561   0.13206   0.51557   0.00000  Uiso   1.00
H796   H     0.61346   0.13801   0.58698   0.00000  Uiso   1.00
H797   H     0.63077   0.11837   0.99716   0.00000  Uiso   1.00
C798   C     0.54082   0.16048   0.59368   0.00000  Uiso   1.00
C799   C     0.41161   0.18035   0.93373   0.00000  Uiso   1.00
C800   C     0.39739   0.18488   0.98734   0.00000  Uiso   1.00
C801   C     0.43006   0.17613   0.51528   0.00000  Uiso   1.00
C802   C     0.47773   0.16119   0.98999   0.00000  Uiso   1.00
C803   C     0.48945   0.15166   0.93652   0.00000  Uiso   1.00
C804   C     0.51398   0.15520   0.51597   0.00000  Uiso   1.00
C805   C     0.55978   0.13688   0.98944   0.00000  Uiso   1.00
C806   C     0.56803   0.12316   0.93802   0.00000  Uiso   1.00
C807   C     0.53216   0.12929   0.91333   0.00000  Uiso   1.00
C808   C     0.50624   0.16774   0.56752   0.00000  Uiso   1.00
C809   C     0.58609   0.14364   0.56725   0.00000  Uiso   1.00
C810   C     0.45777   0.16437   0.90757   0.00000  Uiso   1.00
H811   H     0.47324   0.18316   0.58875   0.00000  Uiso   1.00
H812   H     0.38673   0.19023   0.91259   0.00000  Uiso   1.00
H813   H     0.41636   0.18076   0.55666   0.00000  Uiso   1.00
H814   H     0.36130   0.19653   0.50723   0.00000  Uiso   1.00
H815   H     0.53760   0.11554   0.87573   0.00000  Uiso   1.00
C816   C     0.54473   0.31147   0.74149   0.00000  Uiso   1.00
H817   H     0.57738   0.29464   0.74135   0.00000  Uiso   1.00
C818   C     0.54739   0.02045   0.73437   0.00000  Uiso   1.00
C819   C     0.50335   0.04245   0.73768   0.00000  Uiso   1.00
C820   C     0.46104   0.01989   0.73532   0.00000  Uiso   1.00
C821   C     0.46098   0.31080   0.73969   0.00000  Uiso   1.00
H822   H     0.42898   0.29361   0.73783   0.00000  Uiso   1.00
C823   C     0.50154   0.29020   0.74527   0.00000  Uiso   1.00
C824   C     0.63078   0.18338   0.79030   0.00000  Uiso   1.00
H825   H     0.60340   0.19697   0.82260   0.00000  Uiso   1.00
C826   C     0.34703   0.18344   0.79023   0.00000  Uiso   1.00
H827   H     0.35672   0.19705   0.82241   0.00000  Uiso   1.00
N828   N     0.38265   0.16666   0.74998   0.00000  Uiso   1.00
C829   C     0.36927   0.15032   0.70949   0.00000  Uiso   1.00
H830   H     0.39669   0.13705   0.67697   0.00000  Uiso   1.00
C831   C     0.65312   0.15070   0.70931   0.00000  Uiso   1.00
H832   H     0.64360   0.13846   0.67641   0.00000  Uiso   1.00
N833   N     0.61735   0.16669   0.75000   0.00000  Uiso   1.00
C834   C     0.59884   0.03880   0.71606   0.00000  Uiso   1.00
C835   C     0.61119   0.05335   0.65911   0.00000  Uiso   1.00
C836   C     0.66652   0.05641   0.63326   0.00000  Uiso   1.00
H837   H     0.35104   0.07441   0.65744   0.00000  Uiso   1.00
H838   H     0.34941   0.02531   0.62786   0.00000  Uiso   1.00
H839   H     0.34068   0.07145   0.59452   0.00000  Uiso   1.00
H840   H     0.59597   0.03146   0.63627   0.00000  Uiso   1.00
H841   H     0.59424   0.08359   0.65732   0.00000  Uiso   1.00
H842   H     0.60437   0.06336   0.74191   0.00000  Uiso   1.00
H843   H     0.62624   0.01532   0.71814   0.00000  Uiso   1.00
C844   C     0.41693   0.03818   0.72303   0.00000  Uiso   1.00
C845   C     0.37434   0.04651   0.77224   0.00000  Uiso   1.00
C846   C     0.34948   0.00715   0.79890   0.00000  Uiso   1.00
H847   H     0.34087   0.31960   0.77033   0.00000  Uiso   1.00
H848   H     0.37349   0.32453   0.81844   0.00000  Uiso   1.00
H849   H     0.64799   0.01451   0.82900   0.00000  Uiso   1.00
H850   H     0.38705   0.06467   0.80061   0.00000  Uiso   1.00
H851   H     0.34689   0.06506   0.76058   0.00000  Uiso   1.00
H852   H     0.42708   0.06615   0.69858   0.00000  Uiso   1.00
H853   H     0.40385   0.01709   0.69754   0.00000  Uiso   1.00
S854   S     0.62282   0.09871   0.90229   0.00000  Uiso   1.00
O855   O     0.62092   0.08918   0.84839   0.00000  Uiso   1.00
O856   O     0.66585   0.12651   0.89848   0.00000  Uiso   1.00
O857   O     0.62941   0.05504   0.93291   0.00000  Uiso   1.00
H858   H     0.66304   0.04567   0.91466   0.00000  Uiso   1.00
O859   O     0.79375   0.22678   0.75000   0.00000  Uiso   1.00
O860   O     0.87294   0.22679   0.75000   0.00000  Uiso   1.00
C861   C     0.83365   0.24587   0.74927   0.00000  Uiso   1.00
O862   O     0.77441   0.16665   0.82549   0.00000  Uiso   1.00
O863   O     0.85360   0.16666   0.82549   0.00000  Uiso   1.00
C864   C     0.80711   0.16509   0.85013   0.00000  Uiso   1.00
Cu865  Cu    0.78645   0.16666   0.75000   0.00000  Uiso   1.00
Cu866  Cu    0.88022   0.16667   0.75000   0.00000  Uiso   1.00
O867   O     0.79373   0.10654   0.75000   0.00000  Uiso   1.00
O868   O     0.87292   0.10655   0.75000   0.00000  Uiso   1.00
O869   O     0.81306   0.16667   0.67451   0.00000  Uiso   1.00
O870   O     0.89225   0.16668   0.67451   0.00000  Uiso   1.00
C871   C     0.83463   0.08739   0.74506   0.00000  Uiso   1.00
C872   C     0.85948   0.16604   0.65005   0.00000  Uiso   1.00
C873   C     0.92894   0.13206   0.51557   0.00000  Uiso   1.00
H874   H     0.94679   0.13801   0.58698   0.00000  Uiso   1.00
H875   H     0.96411   0.11837   0.99716   0.00000  Uiso   1.00
C876   C     0.87415   0.16048   0.59368   0.00000  Uiso   1.00
C877   C     0.74495   0.18035   0.93373   0.00000  Uiso   1.00
C878   C     0.73072   0.18488   0.98734   0.00000  Uiso   1.00
C879   C     0.76339   0.17613   0.51528   0.00000  Uiso   1.00
C880   C     0.81106   0.16119   0.98999   0.00000  Uiso   1.00
C881   C     0.82278   0.15166   0.93652   0.00000  Uiso   1.00
C882   C     0.84731   0.15520   0.51597   0.00000  Uiso   1.00
C883   C     0.89311   0.13688   0.98944   0.00000  Uiso   1.00
C884   C     0.90136   0.12316   0.93802   0.00000  Uiso   1.00
C885   C     0.86549   0.12929   0.91333   0.00000  Uiso   1.00
C886   C     0.83957   0.16774   0.56752   0.00000  Uiso   1.00
C887   C     0.91943   0.14364   0.56725   0.00000  Uiso   1.00
C888   C     0.79110   0.16437   0.90757   0.00000  Uiso   1.00
H889   H     0.80657   0.18316   0.58875   0.00000  Uiso   1.00
H890   H     0.72006   0.19023   0.91259   0.00000  Uiso   1.00
H891   H     0.74969   0.18076   0.55666   0.00000  Uiso   1.00
H892   H     0.69463   0.19653   0.50723   0.00000  Uiso   1.00
H893   H     0.87093   0.11554   0.87573   0.00000  Uiso   1.00
C894   C     0.87806   0.31147   0.74149   0.00000  Uiso   1.00
H895   H     0.91071   0.29464   0.74135   0.00000  Uiso   1.00
C896   C     0.88072   0.02045   0.73437   0.00000  Uiso   1.00
C897   C     0.83668   0.04245   0.73768   0.00000  Uiso   1.00
C898   C     0.79437   0.01989   0.73532   0.00000  Uiso   1.00
C899   C     0.79432   0.31080   0.73969   0.00000  Uiso   1.00
H900   H     0.76232   0.29361   0.73783   0.00000  Uiso   1.00
C901   C     0.83487   0.29020   0.74527   0.00000  Uiso   1.00
C902   C     0.96411   0.18338   0.79030   0.00000  Uiso   1.00
H903   H     0.93673   0.19697   0.82260   0.00000  Uiso   1.00
C904   C     0.68036   0.18344   0.79023   0.00000  Uiso   1.00
H905   H     0.69006   0.19705   0.82241   0.00000  Uiso   1.00
N906   N     0.71598   0.16666   0.74998   0.00000  Uiso   1.00
C907   C     0.70260   0.15032   0.70949   0.00000  Uiso   1.00
H908   H     0.73002   0.13705   0.67697   0.00000  Uiso   1.00
C909   C     0.98645   0.15070   0.70931   0.00000  Uiso   1.00
H910   H     0.97693   0.13846   0.67641   0.00000  Uiso   1.00
N911   N     0.95069   0.16669   0.75000   0.00000  Uiso   1.00
C912   C     0.93218   0.03880   0.71606   0.00000  Uiso   1.00
C913   C     0.94453   0.05335   0.65911   0.00000  Uiso   1.00
C914   C     0.99985   0.05641   0.63326   0.00000  Uiso   1.00
H915   H     0.68438   0.07441   0.65744   0.00000  Uiso   1.00
H916   H     0.68275   0.02531   0.62786   0.00000  Uiso   1.00
H917   H     0.67401   0.07145   0.59452   0.00000  Uiso   1.00
H918   H     0.92930   0.03146   0.63627   0.00000  Uiso   1.00
H919   H     0.92758   0.08359   0.65732   0.00000  Uiso   1.00
H920   H     0.93771   0.06336   0.74191   0.00000  Uiso   1.00
H921   H     0.95958   0.01532   0.71814   0.00000  Uiso   1.00
C922   C     0.75026   0.03818   0.72303   0.00000  Uiso   1.00
C923   C     0.70767   0.04651   0.77224   0.00000  Uiso   1.00
C924   C     0.68282   0.00715   0.79890   0.00000  Uiso   1.00
H925   H     0.67421   0.31960   0.77033   0.00000  Uiso   1.00
H926   H     0.70683   0.32453   0.81844   0.00000  Uiso   1.00
H927   H     0.98132   0.01451   0.82900   0.00000  Uiso   1.00
H928   H     0.72038   0.06467   0.80061   0.00000  Uiso   1.00
H929   H     0.68022   0.06506   0.76058   0.00000  Uiso   1.00
H930   H     0.76042   0.06615   0.69858   0.00000  Uiso   1.00
H931   H     0.73719   0.01709   0.69754   0.00000  Uiso   1.00
S932   S     0.95616   0.09871   0.90229   0.00000  Uiso   1.00
O933   O     0.95426   0.08918   0.84839   0.00000  Uiso   1.00
O934   O     0.99918   0.12651   0.89848   0.00000  Uiso   1.00
O935   O     0.96274   0.05504   0.93291   0.00000  Uiso   1.00
H936   H     0.99637   0.04567   0.91466   0.00000  Uiso   1.00
O937   O     0.12708   0.56011   0.75000   0.00000  Uiso   1.00
O938   O     0.20627   0.56012   0.75000   0.00000  Uiso   1.00
C939   C     0.16698   0.57920   0.74927   0.00000  Uiso   1.00
O940   O     0.10775   0.49998   0.82549   0.00000  Uiso   1.00
O941   O     0.18694   0.49999   0.82549   0.00000  Uiso   1.00
C942   C     0.14045   0.49842   0.85013   0.00000  Uiso   1.00
Cu943  Cu    0.11978   0.49999   0.75000   0.00000  Uiso   1.00
Cu944  Cu    0.21355   0.50001   0.75000   0.00000  Uiso   1.00
O945   O     0.12706   0.43988   0.75000   0.00000  Uiso   1.00
O946   O     0.20625   0.43989   0.75000   0.00000  Uiso   1.00
O947   O     0.14640   0.50001   0.67451   0.00000  Uiso   1.00
O948   O     0.22559   0.50002   0.67451   0.00000  Uiso   1.00
C949   C     0.16797   0.42072   0.74506   0.00000  Uiso   1.00
C950   C     0.19281   0.49937   0.65005   0.00000  Uiso   1.00
C951   C     0.26228   0.46539   0.51557   0.00000  Uiso   1.00
H952   H     0.28012   0.47135   0.58698   0.00000  Uiso   1.00
H953   H     0.29744   0.45170   0.99716   0.00000  Uiso   1.00
C954   C     0.20748   0.49381   0.59368   0.00000  Uiso   1.00
C955   C     0.07828   0.51369   0.93373   0.00000  Uiso   1.00
C956   C     0.06405   0.51821   0.98734   0.00000  Uiso   1.00
C957   C     0.09673   0.50946   0.51528   0.00000  Uiso   1.00
C958   C     0.14440   0.49453   0.98999   0.00000  Uiso   1.00
C959   C     0.15611   0.48499   0.93652   0.00000  Uiso   1.00
C960   C     0.18064   0.48854   0.51597   0.00000  Uiso   1.00
C961   C     0.22645   0.47021   0.98944   0.00000  Uiso   1.00
C962   C     0.23470   0.45650   0.93802   0.00000  Uiso   1.00
C963   C     0.19883   0.46263   0.91333   0.00000  Uiso   1.00
C964   C     0.17290   0.50107   0.56752   0.00000  Uiso   1.00
C965   C     0.25276   0.47698   0.56725   0.00000  Uiso   1.00
C966   C     0.12444   0.49770   0.90757   0.00000  Uiso   1.00
H967   H     0.13990   0.51650   0.58875   0.00000  Uiso   1.00
H968   H     0.05340   0.52357   0.91259   0.00000  Uiso   1.00
H969   H     0.08303   0.51409   0.55666   0.00000  Uiso   1.00
H970   H     0.02796   0.52987   0.50723   0.00000  Uiso   1.00
H971   H     0.20426   0.44887   0.87573   0.00000  Uiso   1.00
C972   C     0.21139   0.64480   0.74149   0.00000  Uiso   1.00
H973   H     0.24404   0.62797   0.74135   0.00000  Uiso   1.00
C974   C     0.21406   0.35378   0.73437   0.00000  Uiso   1.00
C975   C     0.17001   0.37579   0.73768   0.00000  Uiso   1.00
C976   C     0.12771   0.35323   0.73532   0.00000  Uiso   1.00
C977   C     0.12765   0.64414   0.73969   0.00000  Uiso   1.00
H978   H     0.09565   0.62695   0.73783   0.00000  Uiso   1.00
C979   C     0.16821   0.62354   0.74527   0.00000  Uiso   1.00
C980   C     0.29745   0.51671   0.79030   0.00000  Uiso   1.00
H981   H     0.27007   0.53030   0.82260   0.00000  Uiso   1.00
C982   C     0.01369   0.51678   0.79023   0.00000  Uiso   1.00
H983   H     0.02339   0.53039   0.82241   0.00000  Uiso   1.00
N984   N     0.04931   0.49999   0.74998   0.00000  Uiso   1.00
C985   C     0.03593   0.48366   0.70949   0.00000  Uiso   1.00
H986   H     0.06336   0.47038   0.67697   0.00000  Uiso   1.00
C987   C     0.31978   0.48404   0.70931   0.00000  Uiso   1.00
H988   H     0.31027   0.47180   0.67641   0.00000  Uiso   1.00
N989   N     0.28402   0.50002   0.75000   0.00000  Uiso   1.00
C990   C     0.26551   0.37213   0.71606   0.00000  Uiso   1.00
C991   C     0.27786   0.38668   0.65911   0.00000  Uiso   1.00
C992   C     0.33318   0.38974   0.63326   0.00000  Uiso   1.00
H993   H     0.01771   0.40775   0.65744   0.00000  Uiso   1.00
H994   H     0.01608   0.35864   0.62786   0.00000  Uiso   1.00
H995   H     0.00734   0.40478   0.59452   0.00000  Uiso   1.00
H996   H     0.26264   0.36480   0.63627   0.00000  Uiso   1.00
H997   H     0.26091   0.41692   0.65732   0.00000  Uiso   1.00
H998   H     0.27104   0.39669   0.74191   0.00000  Uiso   1.00
H999   H     0.29291   0.34865   0.71814   0.00000  Uiso   1.00
C1000  C     0.08359   0.37151   0.72303   0.00000  Uiso   1.00
C1001  C     0.04100   0.37984   0.77224   0.00000  Uiso   1.00
C1002  C     0.01615   0.34049   0.79890   0.00000  Uiso   1.00
H1003  H     0.00754   0.65293   0.77033   0.00000  Uiso   1.00
H1004  H     0.04016   0.65786   0.81844   0.00000  Uiso   1.00
H1005  H     0.31466   0.34784   0.82900   0.00000  Uiso   1.00
H1006  H     0.05371   0.39800   0.80061   0.00000  Uiso   1.00
H1007  H     0.01355   0.39839   0.76058   0.00000  Uiso   1.00
H1008  H     0.09375   0.39948   0.69858   0.00000  Uiso   1.00
H1009  H     0.07052   0.35042   0.69754   0.00000  Uiso   1.00
S1010  S     0.28949   0.43205   0.90229   0.00000  Uiso   1.00
O1011  O     0.28759   0.42251   0.84839   0.00000  Uiso   1.00
O1012  O     0.33251   0.45984   0.89848   0.00000  Uiso   1.00
O1013  O     0.29608   0.38837   0.93291   0.00000  Uiso   1.00
H1014  H     0.32970   0.37900   0.91466   0.00000  Uiso   1.00
O1015  O     0.46042   0.56011   0.75000   0.00000  Uiso   1.00
O1016  O     0.53961   0.56012   0.75000   0.00000  Uiso   1.00
C1017  C     0.50032   0.57920   0.74927   0.00000  Uiso   1.00
O1018  O     0.44108   0.49998   0.82549   0.00000  Uiso   1.00
O1019  O     0.52027   0.49999   0.82549   0.00000  Uiso   1.00
C1020  C     0.47378   0.49842   0.85013   0.00000  Uiso   1.00
Cu1021 Cu    0.45311   0.49999   0.75000   0.00000  Uiso   1.00
Cu1022 Cu    0.54689   0.50001   0.75000   0.00000  Uiso   1.00
O1023  O     0.46039   0.43988   0.75000   0.00000  Uiso   1.00
O1024  O     0.53958   0.43989   0.75000   0.00000  Uiso   1.00
O1025  O     0.47973   0.50001   0.67451   0.00000  Uiso   1.00
O1026  O     0.55892   0.50002   0.67451   0.00000  Uiso   1.00
C1027  C     0.50130   0.42072   0.74506   0.00000  Uiso   1.00
C1028  C     0.52614   0.49937   0.65005   0.00000  Uiso   1.00
C1029  C     0.59561   0.46539   0.51557   0.00000  Uiso   1.00
H1030  H     0.61346   0.47135   0.58698   0.00000  Uiso   1.00
H1031  H     0.63077   0.45170   0.99716   0.00000  Uiso   1.00
C1032  C     0.54082   0.49381   0.59368   0.00000  Uiso   1.00
C1033  C     0.41161   0.51369   0.93373   0.00000  Uiso   1.00
C1034  C     0.39739   0.51821   0.98734   0.00000  Uiso   1.00
C1035  C     0.43006   0.50946   0.51528   0.00000  Uiso   1.00
C1036  C     0.47773   0.49453   0.98999   0.00000  Uiso   1.00
C1037  C     0.48945   0.48499   0.93652   0.00000  Uiso   1.00
C1038  C     0.51398   0.48854   0.51597   0.00000  Uiso   1.00
C1039  C     0.55978   0.47021   0.98944   0.00000  Uiso   1.00
C1040  C     0.56803   0.45650   0.93802   0.00000  Uiso   1.00
C1041  C     0.53216   0.46263   0.91333   0.00000  Uiso   1.00
C1042  C     0.50624   0.50107   0.56752   0.00000  Uiso   1.00
C1043  C     0.58609   0.47698   0.56725   0.00000  Uiso   1.00
C1044  C     0.45777   0.49770   0.90757   0.00000  Uiso   1.00
H1045  H     0.47324   0.51650   0.58875   0.00000  Uiso   1.00
H1046  H     0.38673   0.52357   0.91259   0.00000  Uiso   1.00
H1047  H     0.41636   0.51409   0.55666   0.00000  Uiso   1.00
H1048  H     0.36130   0.52987   0.50723   0.00000  Uiso   1.00
H1049  H     0.53760   0.44887   0.87573   0.00000  Uiso   1.00
C1050  C     0.54473   0.64480   0.74149   0.00000  Uiso   1.00
H1051  H     0.57738   0.62797   0.74135   0.00000  Uiso   1.00
C1052  C     0.54739   0.35378   0.73437   0.00000  Uiso   1.00
C1053  C     0.50335   0.37579   0.73768   0.00000  Uiso   1.00
C1054  C     0.46104   0.35323   0.73532   0.00000  Uiso   1.00
C1055  C     0.46098   0.64414   0.73969   0.00000  Uiso   1.00
H1056  H     0.42898   0.62695   0.73783   0.00000  Uiso   1.00
C1057  C     0.50154   0.62354   0.74527   0.00000  Uiso   1.00
C1058  C     0.63078   0.51671   0.79030   0.00000  Uiso   1.00
H1059  H     0.60340   0.53030   0.82260   0.00000  Uiso   1.00
C1060  C     0.34703   0.51678   0.79023   0.00000  Uiso   1.00
H1061  H     0.35672   0.53039   0.82241   0.00000  Uiso   1.00
N1062  N     0.38265   0.49999   0.74998   0.00000  Uiso   1.00
C1063  C     0.36927   0.48366   0.70949   0.00000  Uiso   1.00
H1064  H     0.39669   0.47038   0.67697   0.00000  Uiso   1.00
C1065  C     0.65312   0.48404   0.70931   0.00000  Uiso   1.00
H1066  H     0.64360   0.47180   0.67641   0.00000  Uiso   1.00
N1067  N     0.61735   0.50002   0.75000   0.00000  Uiso   1.00
C1068  C     0.59884   0.37213   0.71606   0.00000  Uiso   1.00
C1069  C     0.61119   0.38668   0.65911   0.00000  Uiso   1.00
C1070  C     0.66652   0.38974   0.63326   0.00000  Uiso   1.00
H1071  H     0.35104   0.40775   0.65744   0.00000  Uiso   1.00
H1072  H     0.34941   0.35864   0.62786   0.00000  Uiso   1.00
H1073  H     0.34068   0.40478   0.59452   0.00000  Uiso   1.00
H1074  H     0.59597   0.36480   0.63627   0.00000  Uiso   1.00
H1075  H     0.59424   0.41692   0.65732   0.00000  Uiso   1.00
H1076  H     0.60437   0.39669   0.74191   0.00000  Uiso   1.00
H1077  H     0.62624   0.34865   0.71814   0.00000  Uiso   1.00
C1078  C     0.41693   0.37151   0.72303   0.00000  Uiso   1.00
C1079  C     0.37434   0.37984   0.77224   0.00000  Uiso   1.00
C1080  C     0.34948   0.34049   0.79890   0.00000  Uiso   1.00
H1081  H     0.34087   0.65293   0.77033   0.00000  Uiso   1.00
H1082  H     0.37349   0.65786   0.81844   0.00000  Uiso   1.00
H1083  H     0.64799   0.34784   0.82900   0.00000  Uiso   1.00
H1084  H     0.38705   0.39800   0.80061   0.00000  Uiso   1.00
H1085  H     0.34689   0.39839   0.76058   0.00000  Uiso   1.00
H1086  H     0.42708   0.39948   0.69858   0.00000  Uiso   1.00
H1087  H     0.40385   0.35042   0.69754   0.00000  Uiso   1.00
S1088  S     0.62282   0.43205   0.90229   0.00000  Uiso   1.00
O1089  O     0.62092   0.42251   0.84839   0.00000  Uiso   1.00
O1090  O     0.66585   0.45984   0.89848   0.00000  Uiso   1.00
O1091  O     0.62941   0.38837   0.93291   0.00000  Uiso   1.00
H1092  H     0.66304   0.37900   0.91466   0.00000  Uiso   1.00
O1093  O     0.79375   0.56011   0.75000   0.00000  Uiso   1.00
O1094  O     0.87294   0.56012   0.75000   0.00000  Uiso   1.00
C1095  C     0.83365   0.57920   0.74927   0.00000  Uiso   1.00
O1096  O     0.77441   0.49998   0.82549   0.00000  Uiso   1.00
O1097  O     0.85360   0.49999   0.82549   0.00000  Uiso   1.00
C1098  C     0.80711   0.49842   0.85013   0.00000  Uiso   1.00
Cu1099 Cu    0.78645   0.49999   0.75000   0.00000  Uiso   1.00
Cu1100 Cu    0.88022   0.50001   0.75000   0.00000  Uiso   1.00
O1101  O     0.79373   0.43988   0.75000   0.00000  Uiso   1.00
O1102  O     0.87292   0.43989   0.75000   0.00000  Uiso   1.00
O1103  O     0.81306   0.50001   0.67451   0.00000  Uiso   1.00
O1104  O     0.89225   0.50002   0.67451   0.00000  Uiso   1.00
C1105  C     0.83463   0.42072   0.74506   0.00000  Uiso   1.00
C1106  C     0.85948   0.49937   0.65005   0.00000  Uiso   1.00
C1107  C     0.92894   0.46539   0.51557   0.00000  Uiso   1.00
H1108  H     0.94679   0.47135   0.58698   0.00000  Uiso   1.00
H1109  H     0.96411   0.45170   0.99716   0.00000  Uiso   1.00
C1110  C     0.87415   0.49381   0.59368   0.00000  Uiso   1.00
C1111  C     0.74495   0.51369   0.93373   0.00000  Uiso   1.00
C1112  C     0.73072   0.51821   0.98734   0.00000  Uiso   1.00
C1113  C     0.76339   0.50946   0.51528   0.00000  Uiso   1.00
C1114  C     0.81106   0.49453   0.98999   0.00000  Uiso   1.00
C1115  C     0.82278   0.48499   0.93652   0.00000  Uiso   1.00
C1116  C     0.84731   0.48854   0.51597   0.00000  Uiso   1.00
C1117  C     0.89311   0.47021   0.98944   0.00000  Uiso   1.00
C1118  C     0.90136   0.45650   0.93802   0.00000  Uiso   1.00
C1119  C     0.86549   0.46263   0.91333   0.00000  Uiso   1.00
C1120  C     0.83957   0.50107   0.56752   0.00000  Uiso   1.00
C1121  C     0.91943   0.47698   0.56725   0.00000  Uiso   1.00
C1122  C     0.79110   0.49770   0.90757   0.00000  Uiso   1.00
H1123  H     0.80657   0.51650   0.58875   0.00000  Uiso   1.00
H1124  H     0.72006   0.52357   0.91259   0.00000  Uiso   1.00
H1125  H     0.74969   0.51409   0.55666   0.00000  Uiso   1.00
H1126  H     0.69463   0.52987   0.50723   0.00000  Uiso   1.00
H1127  H     0.87093   0.44887   0.87573   0.00000  Uiso   1.00
C1128  C     0.87806   0.64480   0.74149   0.00000  Uiso   1.00
H1129  H     0.91071   0.62797   0.74135   0.00000  Uiso   1.00
C1130  C     0.88072   0.35378   0.73437   0.00000  Uiso   1.00
C1131  C     0.83668   0.37579   0.73768   0.00000  Uiso   1.00
C1132  C     0.79437   0.35323   0.73532   0.00000  Uiso   1.00
C1133  C     0.79432   0.64414   0.73969   0.00000  Uiso   1.00
H1134  H     0.76232   0.62695   0.73783   0.00000  Uiso   1.00
C1135  C     0.83487   0.62354   0.74527   0.00000  Uiso   1.00
C1136  C     0.96411   0.51671   0.79030   0.00000  Uiso   1.00
H1137  H     0.93673   0.53030   0.82260   0.00000  Uiso   1.00
C1138  C     0.68036   0.51678   0.79023   0.00000  Uiso   1.00
H1139  H     0.69006   0.53039   0.82241   0.00000  Uiso   1.00
N1140  N     0.71598   0.49999   0.74998   0.00000  Uiso   1.00
C1141  C     0.70260   0.48366   0.70949   0.00000  Uiso   1.00
H1142  H     0.73002   0.47038   0.67697   0.00000  Uiso   1.00
C1143  C     0.98645   0.48404   0.70931   0.00000  Uiso   1.00
H1144  H     0.97693   0.47180   0.67641   0.00000  Uiso   1.00
N1145  N     0.95069   0.50002   0.75000   0.00000  Uiso   1.00
C1146  C     0.93218   0.37213   0.71606   0.00000  Uiso   1.00
C1147  C     0.94453   0.38668   0.65911   0.00000  Uiso   1.00
C1148  C     0.99985   0.38974   0.63326   0.00000  Uiso   1.00
H1149  H     0.68438   0.40775   0.65744   0.00000  Uiso   1.00
H1150  H     0.68275   0.35864   0.62786   0.00000  Uiso   1.00
H1151  H     0.67401   0.40478   0.59452   0.00000  Uiso   1.00
H1152  H     0.92930   0.36480   0.63627   0.00000  Uiso   1.00
H1153  H     0.92758   0.41692   0.65732   0.00000  Uiso   1.00
H1154  H     0.93771   0.39669   0.74191   0.00000  Uiso   1.00
H1155  H     0.95958   0.34865   0.71814   0.00000  Uiso   1.00
C1156  C     0.75026   0.37151   0.72303   0.00000  Uiso   1.00
C1157  C     0.70767   0.37984   0.77224   0.00000  Uiso   1.00
C1158  C     0.68282   0.34049   0.79890   0.00000  Uiso   1.00
H1159  H     0.67421   0.65293   0.77033   0.00000  Uiso   1.00
H1160  H     0.70683   0.65786   0.81844   0.00000  Uiso   1.00
H1161  H     0.98132   0.34784   0.82900   0.00000  Uiso   1.00
H1162  H     0.72038   0.39800   0.80061   0.00000  Uiso   1.00
H1163  H     0.68022   0.39839   0.76058   0.00000  Uiso   1.00
H1164  H     0.76042   0.39948   0.69858   0.00000  Uiso   1.00
H1165  H     0.73719   0.35042   0.69754   0.00000  Uiso   1.00
S1166  S     0.95616   0.43205   0.90229   0.00000  Uiso   1.00
O1167  O     0.95426   0.42251   0.84839   0.00000  Uiso   1.00
O1168  O     0.99918   0.45984   0.89848   0.00000  Uiso   1.00
O1169  O     0.96274   0.38837   0.93291   0.00000  Uiso   1.00
H1170  H     0.99637   0.37900   0.91466   0.00000  Uiso   1.00
O1171  O     0.12708   0.89345   0.75000   0.00000  Uiso   1.00
O1172  O     0.20627   0.89346   0.75000   0.00000  Uiso   1.00
C1173  C     0.16698   0.91254   0.74927   0.00000  Uiso   1.00
O1174  O     0.10775   0.83332   0.82549   0.00000  Uiso   1.00
O1175  O     0.18694   0.83333   0.82549   0.00000  Uiso   1.00
C1176  C     0.14045   0.83176   0.85013   0.00000  Uiso   1.00
Cu1177 Cu    0.11978   0.83333   0.75000   0.00000  Uiso   1.00
Cu1178 Cu    0.21355   0.83334   0.75000   0.00000  Uiso   1.00
O1179  O     0.12706   0.77321   0.75000   0.00000  Uiso   1.00
O1180  O     0.20625   0.77322   0.75000   0.00000  Uiso   1.00
O1181  O     0.14640   0.83334   0.67451   0.00000  Uiso   1.00
O1182  O     0.22559   0.83335   0.67451   0.00000  Uiso   1.00
C1183  C     0.16797   0.75406   0.74506   0.00000  Uiso   1.00
C1184  C     0.19281   0.83270   0.65005   0.00000  Uiso   1.00
C1185  C     0.26228   0.79873   0.51557   0.00000  Uiso   1.00
H1186  H     0.28012   0.80468   0.58698   0.00000  Uiso   1.00
H1187  H     0.29744   0.78504   0.99716   0.00000  Uiso   1.00
C1188  C     0.20748   0.82714   0.59368   0.00000  Uiso   1.00
C1189  C     0.07828   0.84702   0.93373   0.00000  Uiso   1.00
C1190  C     0.06405   0.85154   0.98734   0.00000  Uiso   1.00
C1191  C     0.09673   0.84280   0.51528   0.00000  Uiso   1.00
C1192  C     0.14440   0.82786   0.98999   0.00000  Uiso   1.00
C1193  C     0.15611   0.81833   0.93652   0.00000  Uiso   1.00
C1194  C     0.18064   0.82187   0.51597   0.00000  Uiso   1.00
C1195  C     0.22645   0.80355   0.98944   0.00000  Uiso   1.00
C1196  C     0.23470   0.78983   0.93802   0.00000  Uiso   1.00
C1197  C     0.19883   0.79596   0.91333   0.00000  Uiso   1.00
C1198  C     0.17290   0.83440   0.56752   0.00000  Uiso   1.00
C1199  C     0.25276   0.81031   0.56725   0.00000  Uiso   1.00
C1200  C     0.12444   0.83103   0.90757   0.00000  Uiso   1.00
H1201  H     0.13990   0.84983   0.58875   0.00000  Uiso   1.00
H1202  H     0.05340   0.85690   0.91259   0.00000  Uiso   1.00
H1203  H     0.08303   0.84742   0.55666   0.00000  Uiso   1.00
H1204  H     0.02796   0.86320   0.50723   0.00000  Uiso   1.00
H1205  H     0.20426   0.78220   0.87573   0.00000  Uiso   1.00
C1206  C     0.21139   0.97813   0.74149   0.00000  Uiso   1.00
H1207  H     0.24404   0.96131   0.74135   0.00000  Uiso   1.00
C1208  C     0.21406   0.68711   0.73437   0.00000  Uiso   1.00
C1209  C     0.17001   0.70912   0.73768   0.00000  Uiso   1.00
C1210  C     0.12771   0.68656   0.73532   0.00000  Uiso   1.00
C1211  C     0.12765   0.97747   0.73969   0.00000  Uiso   1.00
H1212  H     0.09565   0.96028   0.73783   0.00000  Uiso   1.00
C1213  C     0.16821   0.95687   0.74527   0.00000  Uiso   1.00
C1214  C     0.29745   0.85004   0.79030   0.00000  Uiso   1.00
H1215  H     0.27007   0.86364   0.82260   0.00000  Uiso   1.00
C1216  C     0.01369   0.85011   0.79023   0.00000  Uiso   1.00
H1217  H     0.02339   0.86372   0.82241   0.00000  Uiso   1.00
N1218  N     0.04931   0.83332   0.74998   0.00000  Uiso   1.00
C1219  C     0.03593   0.81699   0.70949   0.00000  Uiso   1.00
H1220  H     0.06336   0.80372   0.67697   0.00000  Uiso   1.00
C1221  C     0.31978   0.81737   0.70931   0.00000  Uiso   1.00
H1222  H     0.31027   0.80513   0.67641   0.00000  Uiso   1.00
N1223  N     0.28402   0.83335   0.75000   0.00000  Uiso   1.00
C1224  C     0.26551   0.70546   0.71606   0.00000  Uiso   1.00
C1225  C     0.27786   0.72002   0.65911   0.00000  Uiso   1.00
C1226  C     0.33318   0.72307   0.63326   0.00000  Uiso   1.00
H1227  H     0.01771   0.74108   0.65744   0.00000  Uiso   1.00
H1228  H     0.01608   0.69197   0.62786   0.00000  Uiso   1.00
H1229  H     0.00734   0.73812   0.59452   0.00000  Uiso   1.00
H1230  H     0.26264   0.69813   0.63627   0.00000  Uiso   1.00
H1231  H     0.26091   0.75025   0.65732   0.00000  Uiso   1.00
H1232  H     0.27104   0.73002   0.74191   0.00000  Uiso   1.00
H1233  H     0.29291   0.68198   0.71814   0.00000  Uiso   1.00
C1234  C     0.08359   0.70485   0.72303   0.00000  Uiso   1.00
C1235  C     0.04100   0.71318   0.77224   0.00000  Uiso   1.00
C1236  C     0.01615   0.67382   0.79890   0.00000  Uiso   1.00
H1237  H     0.00754   0.98627   0.77033   0.00000  Uiso   1.00
H1238  H     0.04016   0.99120   0.81844   0.00000  Uiso   1.00
H1239  H     0.31466   0.68117   0.82900   0.00000  Uiso   1.00
H1240  H     0.05371   0.73133   0.80061   0.00000  Uiso   1.00
H1241  H     0.01355   0.73173   0.76058   0.00000  Uiso   1.00
H1242  H     0.09375   0.73282   0.69858   0.00000  Uiso   1.00
H1243  H     0.07052   0.68375   0.69754   0.00000  Uiso   1.00
S1244  S     0.28949   0.76538   0.90229   0.00000  Uiso   1.00
O1245  O     0.28759   0.75584   0.84839   0.00000  Uiso   1.00
O1246  O     0.33251   0.79317   0.89848   0.00000  Uiso   1.00
O1247  O     0.29608   0.72171   0.93291   0.00000  Uiso   1.00
H1248  H     0.32970   0.71234   0.91466   0.00000  Uiso   1.00
O1249  O     0.46042   0.89345   0.75000   0.00000  Uiso   1.00
O1250  O     0.53961   0.89346   0.75000   0.00000  Uiso   1.00
C1251  C     0.50032   0.91254   0.74927   0.00000  Uiso   1.00
O1252  O     0.44108   0.83332   0.82549   0.00000  Uiso   1.00
O1253  O     0.52027   0.83333   0.82549   0.00000  Uiso   1.00
C1254  C     0.47378   0.83176   0.85013   0.00000  Uiso   1.00
Cu1255 Cu    0.45311   0.83333   0.75000   0.00000  Uiso   1.00
Cu1256 Cu    0.54689   0.83334   0.75000   0.00000  Uiso   1.00
O1257  O     0.46039   0.77321   0.75000   0.00000  Uiso   1.00
O1258  O     0.53958   0.77322   0.75000   0.00000  Uiso   1.00
O1259  O     0.47973   0.83334   0.67451   0.00000  Uiso   1.00
O1260  O     0.55892   0.83335   0.67451   0.00000  Uiso   1.00
C1261  C     0.50130   0.75406   0.74506   0.00000  Uiso   1.00
C1262  C     0.52614   0.83270   0.65005   0.00000  Uiso   1.00
C1263  C     0.59561   0.79873   0.51557   0.00000  Uiso   1.00
H1264  H     0.61346   0.80468   0.58698   0.00000  Uiso   1.00
H1265  H     0.63077   0.78504   0.99716   0.00000  Uiso   1.00
C1266  C     0.54082   0.82714   0.59368   0.00000  Uiso   1.00
C1267  C     0.41161   0.84702   0.93373   0.00000  Uiso   1.00
C1268  C     0.39739   0.85154   0.98734   0.00000  Uiso   1.00
C1269  C     0.43006   0.84280   0.51528   0.00000  Uiso   1.00
C1270  C     0.47773   0.82786   0.98999   0.00000  Uiso   1.00
C1271  C     0.48945   0.81833   0.93652   0.00000  Uiso   1.00
C1272  C     0.51398   0.82187   0.51597   0.00000  Uiso   1.00
C1273  C     0.55978   0.80355   0.98944   0.00000  Uiso   1.00
C1274  C     0.56803   0.78983   0.93802   0.00000  Uiso   1.00
C1275  C     0.53216   0.79596   0.91333   0.00000  Uiso   1.00
C1276  C     0.50624   0.83440   0.56752   0.00000  Uiso   1.00
C1277  C     0.58609   0.81031   0.56725   0.00000  Uiso   1.00
C1278  C     0.45777   0.83103   0.90757   0.00000  Uiso   1.00
H1279  H     0.47324   0.84983   0.58875   0.00000  Uiso   1.00
H1280  H     0.38673   0.85690   0.91259   0.00000  Uiso   1.00
H1281  H     0.41636   0.84742   0.55666   0.00000  Uiso   1.00
H1282  H     0.36130   0.86320   0.50723   0.00000  Uiso   1.00
H1283  H     0.53760   0.78220   0.87573   0.00000  Uiso   1.00
C1284  C     0.54473   0.97813   0.74149   0.00000  Uiso   1.00
H1285  H     0.57738   0.96131   0.74135   0.00000  Uiso   1.00
C1286  C     0.54739   0.68711   0.73437   0.00000  Uiso   1.00
C1287  C     0.50335   0.70912   0.73768   0.00000  Uiso   1.00
C1288  C     0.46104   0.68656   0.73532   0.00000  Uiso   1.00
C1289  C     0.46098   0.97747   0.73969   0.00000  Uiso   1.00
H1290  H     0.42898   0.96028   0.73783   0.00000  Uiso   1.00
C1291  C     0.50154   0.95687   0.74527   0.00000  Uiso   1.00
C1292  C     0.63078   0.85004   0.79030   0.00000  Uiso   1.00
H1293  H     0.60340   0.86364   0.82260   0.00000  Uiso   1.00
C1294  C     0.34703   0.85011   0.79023   0.00000  Uiso   1.00
H1295  H     0.35672   0.86372   0.82241   0.00000  Uiso   1.00
N1296  N     0.38265   0.83332   0.74998   0.00000  Uiso   1.00
C1297  C     0.36927   0.81699   0.70949   0.00000  Uiso   1.00
H1298  H     0.39669   0.80372   0.67697   0.00000  Uiso   1.00
C1299  C     0.65312   0.81737   0.70931   0.00000  Uiso   1.00
H1300  H     0.64360   0.80513   0.67641   0.00000  Uiso   1.00
N1301  N     0.61735   0.83335   0.75000   0.00000  Uiso   1.00
C1302  C     0.59884   0.70546   0.71606   0.00000  Uiso   1.00
C1303  C     0.61119   0.72002   0.65911   0.00000  Uiso   1.00
C1304  C     0.66652   0.72307   0.63326   0.00000  Uiso   1.00
H1305  H     0.35104   0.74108   0.65744   0.00000  Uiso   1.00
H1306  H     0.34941   0.69197   0.62786   0.00000  Uiso   1.00
H1307  H     0.34068   0.73812   0.59452   0.00000  Uiso   1.00
H1308  H     0.59597   0.69813   0.63627   0.00000  Uiso   1.00
H1309  H     0.59424   0.75025   0.65732   0.00000  Uiso   1.00
H1310  H     0.60437   0.73002   0.74191   0.00000  Uiso   1.00
H1311  H     0.62624   0.68198   0.71814   0.00000  Uiso   1.00
C1312  C     0.41693   0.70485   0.72303   0.00000  Uiso   1.00
C1313  C     0.37434   0.71318   0.77224   0.00000  Uiso   1.00
C1314  C     0.34948   0.67382   0.79890   0.00000  Uiso   1.00
H1315  H     0.34087   0.98627   0.77033   0.00000  Uiso   1.00
H1316  H     0.37349   0.99120   0.81844   0.00000  Uiso   1.00
H1317  H     0.64799   0.68117   0.82900   0.00000  Uiso   1.00
H1318  H     0.38705   0.73133   0.80061   0.00000  Uiso   1.00
H1319  H     0.34689   0.73173   0.76058   0.00000  Uiso   1.00
H1320  H     0.42708   0.73282   0.69858   0.00000  Uiso   1.00
H1321  H     0.40385   0.68375   0.69754   0.00000  Uiso   1.00
S1322  S     0.62282   0.76538   0.90229   0.00000  Uiso   1.00
O1323  O     0.62092   0.75584   0.84839   0.00000  Uiso   1.00
O1324  O     0.66585   0.79317   0.89848   0.00000  Uiso   1.00
O1325  O     0.62941   0.72171   0.93291   0.00000  Uiso   1.00
H1326  H     0.66304   0.71234   0.91466   0.00000  Uiso   1.00
O1327  O     0.79375   0.89345   0.75000   0.00000  Uiso   1.00
O1328  O     0.87294   0.89346   0.75000   0.00000  Uiso   1.00
C1329  C     0.83365   0.91254   0.74927   0.00000  Uiso   1.00
O1330  O     0.77441   0.83332   0.82549   0.00000  Uiso   1.00
O1331  O     0.85360   0.83333   0.82549   0.00000  Uiso   1.00
C1332  C     0.80711   0.83176   0.85013   0.00000  Uiso   1.00
Cu1333 Cu    0.78645   0.83333   0.75000   0.00000  Uiso   1.00
Cu1334 Cu    0.88022   0.83334   0.75000   0.00000  Uiso   1.00
O1335  O     0.79373   0.77321   0.75000   0.00000  Uiso   1.00
O1336  O     0.87292   0.77322   0.75000   0.00000  Uiso   1.00
O1337  O     0.81306   0.83334   0.67451   0.00000  Uiso   1.00
O1338  O     0.89225   0.83335   0.67451   0.00000  Uiso   1.00
C1339  C     0.83463   0.75406   0.74506   0.00000  Uiso   1.00
C1340  C     0.85948   0.83270   0.65005   0.00000  Uiso   1.00
C1341  C     0.92894   0.79873   0.51557   0.00000  Uiso   1.00
H1342  H     0.94679   0.80468   0.58698   0.00000  Uiso   1.00
H1343  H     0.96411   0.78504   0.99716   0.00000  Uiso   1.00
C1344  C     0.87415   0.82714   0.59368   0.00000  Uiso   1.00
C1345  C     0.74495   0.84702   0.93373   0.00000  Uiso   1.00
C1346  C     0.73072   0.85154   0.98734   0.00000  Uiso   1.00
C1347  C     0.76339   0.84280   0.51528   0.00000  Uiso   1.00
C1348  C     0.81106   0.82786   0.98999   0.00000  Uiso   1.00
C1349  C     0.82278   0.81833   0.93652   0.00000  Uiso   1.00
C1350  C     0.84731   0.82187   0.51597   0.00000  Uiso   1.00
C1351  C     0.89311   0.80355   0.98944   0.00000  Uiso   1.00
C1352  C     0.90136   0.78983   0.93802   0.00000  Uiso   1.00
C1353  C     0.86549   0.79596   0.91333   0.00000  Uiso   1.00
C1354  C     0.83957   0.83440   0.56752   0.00000  Uiso   1.00
C1355  C     0.91943   0.81031   0.56725   0.00000  Uiso   1.00
C1356  C     0.79110   0.83103   0.90757   0.00000  Uiso   1.00
H1357  H     0.80657   0.84983   0.58875   0.00000  Uiso   1.00
H1358  H     0.72006   0.85690   0.91259   0.00000  Uiso   1.00
H1359  H     0.74969   0.84742   0.55666   0.00000  Uiso   1.00
H1360  H     0.69463   0.86320   0.50723   0.00000  Uiso   1.00
H1361  H     0.87093   0.78220   0.87573   0.00000  Uiso   1.00
C1362  C     0.87806   0.97813   0.74149   0.00000  Uiso   1.00
H1363  H     0.91071   0.96131   0.74135   0.00000  Uiso   1.00
C1364  C     0.88072   0.68711   0.73437   0.00000  Uiso   1.00
C1365  C     0.83668   0.70912   0.73768   0.00000  Uiso   1.00
C1366  C     0.79437   0.68656   0.73532   0.00000  Uiso   1.00
C1367  C     0.79432   0.97747   0.73969   0.00000  Uiso   1.00
H1368  H     0.76232   0.96028   0.73783   0.00000  Uiso   1.00
C1369  C     0.83487   0.95687   0.74527   0.00000  Uiso   1.00
C1370  C     0.96411   0.85004   0.79030   0.00000  Uiso   1.00
H1371  H     0.93673   0.86364   0.82260   0.00000  Uiso   1.00
C1372  C     0.68036   0.85011   0.79023   0.00000  Uiso   1.00
H1373  H     0.69006   0.86372   0.82241   0.00000  Uiso   1.00
N1374  N     0.71598   0.83332   0.74998   0.00000  Uiso   1.00
C1375  C     0.70260   0.81699   0.70949   0.00000  Uiso   1.00
H1376  H     0.73002   0.80372   0.67697   0.00000  Uiso   1.00
C1377  C     0.98645   0.81737   0.70931   0.00000  Uiso   1.00
H1378  H     0.97693   0.80513   0.67641   0.00000  Uiso   1.00
N1379  N     0.95069   0.83335   0.75000   0.00000  Uiso   1.00
C1380  C     0.93218   0.70546   0.71606   0.00000  Uiso   1.00
C1381  C     0.94453   0.72002   0.65911   0.00000  Uiso   1.00
C1382  C     0.99985   0.72307   0.63326   0.00000  Uiso   1.00
H1383  H     0.68438   0.74108   0.65744   0.00000  Uiso   1.00
H1384  H     0.68275   0.69197   0.62786   0.00000  Uiso   1.00
H1385  H     0.67401   0.73812   0.59452   0.00000  Uiso   1.00
H1386  H     0.92930   0.69813   0.63627   0.00000  Uiso   1.00
H1387  H     0.92758   0.75025   0.65732   0.00000  Uiso   1.00
H1388  H     0.93771   0.73002   0.74191   0.00000  Uiso   1.00
H1389  H     0.95958   0.68198   0.71814   0.00000  Uiso   1.00
C1390  C     0.75026   0.70485   0.72303   0.00000  Uiso   1.00
C1391  C     0.70767   0.71318   0.77224   0.00000  Uiso   1.00
C1392  C     0.68282   0.67382   0.79890   0.00000  Uiso   1.00
H1393  H     0.67421   0.98627   0.77033   0.00000  Uiso   1.00
H1394  H     0.70683   0.99120   0.81844   0.00000  Uiso   1.00
H1395  H     0.98132   0.68117   0.82900   0.00000  Uiso   1.00
H1396  H     0.72038   0.73133   0.80061   0.00000  Uiso   1.00
H1397  H     0.68022   0.73173   0.76058   0.00000  Uiso   1.00
H1398  H     0.76042   0.73282   0.69858   0.00000  Uiso   1.00
H1399  H     0.73719   0.68375   0.69754   0.00000  Uiso   1.00
S1400  S     0.95616   0.76538   0.90229   0.00000  Uiso   1.00
O1401  O     0.95426   0.75584   0.84839   0.00000  Uiso   1.00
O1402  O     0.99918   0.79317   0.89848   0.00000  Uiso   1.00
O1403  O     0.96274   0.72171   0.93291   0.00000  Uiso   1.00
H1404  H     0.99637   0.71234   0.91466   0.00000  Uiso   1.00
loop_
_geom_bond_atom_site_label_1
_geom_bond_atom_site_label_2
_geom_bond_distance
_geom_bond_site_symmetry_2
_ccdc_geom_bond_type
O1     Cu7     1.973   .     S
O1     C3      1.291   .     A
O2     Cu8     1.975   .     S
O2     C3      1.292   .     A
C3     C43     1.450   .     S
O4     Cu7     1.956   .     S
O4     C6      1.297   .     A
O5     Cu8     1.946   .     S
O5     C6      1.297   .     A
C6     C30     1.475   .     S
Cu7    Cu8     2.678   .     S
Cu7    O11     1.946   .     S
Cu7    O9      1.975   .     S
Cu7    N48     2.013   .     S
Cu8    O12     1.956   .     S
Cu8    N53     2.012   .     S
Cu8    O10     1.973   .     S
O9     C13     1.300   .     A
O10    C13     1.298   .     A
O11    C14     1.293   .     A
O12    C14     1.294   .     A
C13    C39     1.481   .     S
C14    C18     1.461   .     S
C15    C29     1.390   .     A
C15    H719    1.080   1_554 S
C15    C727    1.412   1_554 S
H16    C29     1.083   .     S
H17    C717    1.080   .     S
C18    C28     1.393   .     A
C18    C29     1.395   .     A
C19    C20     1.386   .     A
C19    H32     1.083   .     S
C19    C30     1.402   .     A
C20    C723    1.391   .     S
C20    H736    1.083   .     S
C21    H33     1.077   .     S
C21    C722    1.391   1_554 S
C21    C724    1.420   1_554 S
C22    C23     1.414   .     A
C22    C723    1.420   .     S
C22    C726    1.424   .     S
C23    C27     1.405   .     A
C23    C30     1.420   .     A
C24    C28     1.402   .     A
C24    C724    1.424   1_554 S
C24    C727    1.428   1_554 S
C25    C26     1.409   .     A
C25    C717    1.412   .     S
C25    C726    1.428   .     S
C26    C27     1.391   .     A
C26    S74     1.772   .     S
C27    H35     1.078   .     S
C28    H31     1.076   .     S
H34    C722    1.083   1_554 S
C36    H37     1.084   .     S
C36    C43     1.389   .     A
C36    C272    1.392   .     S
C38    C39     1.432   .     A
C38    C54     1.523   .     S
C38    C504    1.392   1_545 S
C39    C40     1.429   .     A
C40    C64     1.519   .     S
C40    C509    1.389   1_545 S
C41    H42     1.084   .     S
C41    C43     1.388   .     A
C41    C274    1.389   .     S
C44    N53     1.368   .     A
C44    H45     1.081   .     S
C44    C124    1.415   .     S
C46    H47     1.081   .     S
C46    N48     1.366   .     A
C46    C200    1.415   1_455 S
N48    C49     1.367   .     A
C49    H50     1.081   .     S
C49    C207    1.415   1_455 S
C51    H52     1.078   .     S
C51    N53     1.365   .     A
C51    C127    1.415   .     S
C54    H63     1.111   .     S
C54    H62     1.106   .     S
C54    C55     1.538   .     S
C55    C56     1.528   .     S
C55    H60     1.113   .     S
C55    H61     1.109   .     S
C56    H135    1.108   .     S
C56    H136    1.111   .     S
C56    H137    1.111   .     S
H57    C212    1.108   1_455 S
H58    C212    1.111   1_455 S
H59    C212    1.111   1_455 S
C64    H73     1.113   .     S
C64    C65     1.536   .     S
C64    H72     1.108   .     S
C65    H70     1.110   .     S
C65    H71     1.108   .     S
C65    C66     1.532   .     S
C66    H535    1.110   1_545 S
C66    H536    1.110   1_545 S
C66    H225    1.109   1_455 S
H67    C300    1.110   .     S
H68    C300    1.110   .     S
H69    C144    1.109   .     S
S74    O76     1.502   .     D
S74    O77     1.681   .     S
S74    O75     1.501   .     D
O77    H78     0.991   .     S
O79    Cu85    1.973   .     S
O79    C81     1.291   .     A
O80    Cu86    1.975   .     S
O80    C81     1.292   .     A
C81    C121    1.450   .     S
O82    Cu85    1.956   .     S
O82    C84     1.297   .     A
O83    Cu86    1.946   .     S
O83    C84     1.297   .     A
C84    C108    1.475   .     S
Cu85   Cu86    2.678   .     S
Cu85   O89     1.946   .     S
Cu85   O87     1.975   .     S
Cu85   N126    2.013   .     S
Cu86   O90     1.956   .     S
Cu86   N131    2.012   .     S
Cu86   O88     1.973   .     S
O87    C91     1.300   .     A
O88    C91     1.298   .     A
O89    C92     1.293   .     A
O90    C92     1.294   .     A
C91    C117    1.481   .     S
C92    C96     1.461   .     S
C93    C107    1.390   .     A
C93    H797    1.080   1_554 S
C93    C805    1.412   1_554 S
H94    C107    1.083   .     S
H95    C795    1.080   .     S
C96    C106    1.393   .     A
C96    C107    1.395   .     A
C97    C98     1.386   .     A
C97    H110    1.083   .     S
C97    C108    1.402   .     A
C98    C801    1.391   .     S
C98    H814    1.083   .     S
C99    H111    1.077   .     S
C99    C800    1.391   1_554 S
C99    C802    1.420   1_554 S
C100   C101    1.414   .     A
C100   C801    1.420   .     S
C100   C804    1.424   .     S
C101   C105    1.405   .     A
C101   C108    1.420   .     A
C102   C106    1.402   .     A
C102   C802    1.424   1_554 S
C102   C805    1.428   1_554 S
C103   C104    1.409   .     A
C103   C795    1.412   .     S
C103   C804    1.428   .     S
C104   C105    1.391   .     A
C104   S152    1.772   .     S
C105   H113    1.078   .     S
C106   H109    1.076   .     S
H112   C800    1.083   1_554 S
C114   H115    1.084   .     S
C114   C121    1.389   .     A
C114   C350    1.392   .     S
C116   C117    1.432   .     A
C116   C132    1.523   .     S
C116   C582    1.392   1_545 S
C117   C118    1.429   .     A
C118   C142    1.519   .     S
C118   C587    1.389   1_545 S
C119   H120    1.084   .     S
C119   C121    1.388   .     A
C119   C352    1.389   .     S
C122   N131    1.368   .     A
C122   H123    1.081   .     S
C122   C202    1.415   .     S
C124   H125    1.081   .     S
C124   N126    1.366   .     A
N126   C127    1.367   .     A
C127   H128    1.081   .     S
C129   H130    1.078   .     S
C129   N131    1.365   .     A
C129   C205    1.415   .     S
C132   H141    1.111   .     S
C132   H140    1.106   .     S
C132   C133    1.538   .     S
C133   C134    1.528   .     S
C133   H138    1.113   .     S
C133   H139    1.109   .     S
C134   H213    1.108   .     S
C134   H214    1.111   .     S
C134   H215    1.111   .     S
C142   H151    1.113   .     S
C142   C143    1.536   .     S
C142   H150    1.108   .     S
C143   H148    1.110   .     S
C143   H149    1.108   .     S
C143   C144    1.532   .     S
C144   H613    1.110   1_545 S
C144   H614    1.110   1_545 S
H145   C378    1.110   .     S
H146   C378    1.110   .     S
H147   C222    1.109   .     S
S152   O154    1.502   .     D
S152   O155    1.681   .     S
S152   O153    1.501   .     D
O155   H156    0.991   .     S
O157   Cu163   1.973   .     S
O157   C159    1.291   .     A
O158   Cu164   1.975   .     S
O158   C159    1.292   .     A
C159   C199    1.450   .     S
O160   Cu163   1.956   .     S
O160   C162    1.297   .     A
O161   Cu164   1.946   .     S
O161   C162    1.297   .     A
C162   C186    1.475   .     S
Cu163  Cu164   2.678   .     S
Cu163  O167    1.946   .     S
Cu163  O165    1.975   .     S
Cu163  N204    2.013   .     S
Cu164  O168    1.956   .     S
Cu164  N209    2.012   .     S
Cu164  O166    1.973   .     S
O165   C169    1.300   .     A
O166   C169    1.298   .     A
O167   C170    1.293   .     A
O168   C170    1.294   .     A
C169   C195    1.481   .     S
C170   C174    1.461   .     S
C171   C185    1.390   .     A
C171   H875    1.080   1_554 S
C171   C883    1.412   1_554 S
H172   C185    1.083   .     S
H173   C873    1.080   .     S
C174   C184    1.393   .     A
C174   C185    1.395   .     A
C175   C176    1.386   .     A
C175   H188    1.083   .     S
C175   C186    1.402   .     A
C176   C879    1.391   .     S
C176   H892    1.083   .     S
C177   H189    1.077   .     S
C177   C878    1.391   1_554 S
C177   C880    1.420   1_554 S
C178   C179    1.414   .     A
C178   C879    1.420   .     S
C178   C882    1.424   .     S
C179   C183    1.405   .     A
C179   C186    1.420   .     A
C180   C184    1.402   .     A
C180   C880    1.424   1_554 S
C180   C883    1.428   1_554 S
C181   C182    1.409   .     A
C181   C873    1.412   .     S
C181   C882    1.428   .     S
C182   C183    1.391   .     A
C182   S230    1.772   .     S
C183   H191    1.078   .     S
C184   H187    1.076   .     S
H190   C878    1.083   1_554 S
C192   H193    1.084   .     S
C192   C199    1.389   .     A
C192   C428    1.392   .     S
C194   C195    1.432   .     A
C194   C210    1.523   .     S
C194   C660    1.392   1_545 S
C195   C196    1.429   .     A
C196   C220    1.519   .     S
C196   C665    1.389   1_545 S
C197   H198    1.084   .     S
C197   C199    1.388   .     A
C197   C430    1.389   .     S
C200   N209    1.368   .     A
C200   H201    1.081   .     S
C200   C46     1.415   1_655 S
C202   H203    1.081   .     S
C202   N204    1.366   .     A
N204   C205    1.367   .     A
C205   H206    1.081   .     S
C207   H208    1.078   .     S
C207   N209    1.365   .     A
C207   C49     1.415   1_655 S
C210   H219    1.111   .     S
C210   H218    1.106   .     S
C210   C211    1.538   .     S
C211   C212    1.528   .     S
C211   H216    1.113   .     S
C211   H217    1.109   .     S
C212   H57     1.108   1_655 S
C212   H58     1.111   1_655 S
C212   H59     1.111   1_655 S
C220   H229    1.113   .     S
C220   C221    1.536   .     S
C220   H228    1.108   .     S
C221   H226    1.110   .     S
C221   H227    1.108   .     S
C221   C222    1.532   .     S
C222   H691    1.110   1_545 S
C222   H692    1.110   1_545 S
H223   C456    1.110   .     S
H224   C456    1.110   .     S
H225   C66     1.109   1_655 S
S230   O232    1.502   .     D
S230   O233    1.681   .     S
S230   O231    1.501   .     D
O233   H234    0.991   .     S
O235   Cu241   1.973   .     S
O235   C237    1.291   .     A
O236   Cu242   1.975   .     S
O236   C237    1.292   .     A
C237   C277    1.450   .     S
O238   Cu241   1.956   .     S
O238   C240    1.297   .     A
O239   Cu242   1.946   .     S
O239   C240    1.297   .     A
C240   C264    1.475   .     S
Cu241  Cu242   2.678   .     S
Cu241  O245    1.946   .     S
Cu241  O243    1.975   .     S
Cu241  N282    2.013   .     S
Cu242  O246    1.956   .     S
Cu242  N287    2.012   .     S
Cu242  O244    1.973   .     S
O243   C247    1.300   .     A
O244   C247    1.298   .     A
O245   C248    1.293   .     A
O246   C248    1.294   .     A
C247   C273    1.481   .     S
C248   C252    1.461   .     S
C249   C263    1.390   .     A
C249   H953    1.080   1_554 S
C249   C961    1.412   1_554 S
H250   C263    1.083   .     S
H251   C951    1.080   .     S
C252   C262    1.393   .     A
C252   C263    1.395   .     A
C253   C254    1.386   .     A
C253   H266    1.083   .     S
C253   C264    1.402   .     A
C254   C957    1.391   .     S
C254   H970    1.083   .     S
C255   H267    1.077   .     S
C255   C956    1.391   1_554 S
C255   C958    1.420   1_554 S
C256   C257    1.414   .     A
C256   C957    1.420   .     S
C256   C960    1.424   .     S
C257   C261    1.405   .     A
C257   C264    1.420   .     A
C258   C262    1.402   .     A
C258   C958    1.424   1_554 S
C258   C961    1.428   1_554 S
C259   C260    1.409   .     A
C259   C951    1.412   .     S
C259   C960    1.428   .     S
C260   C261    1.391   .     A
C260   S308    1.772   .     S
C261   H269    1.078   .     S
C262   H265    1.076   .     S
H268   C956    1.083   1_554 S
C270   H271    1.084   .     S
C270   C277    1.389   .     A
C270   C506    1.392   .     S
C272   C273    1.432   .     A
C272   C288    1.523   .     S
C273   C274    1.429   .     A
C274   C298    1.519   .     S
C275   H276    1.084   .     S
C275   C277    1.388   .     A
C275   C508    1.389   .     S
C278   N287    1.368   .     A
C278   H279    1.081   .     S
C278   C358    1.415   .     S
C280   H281    1.081   .     S
C280   N282    1.366   .     A
C280   C434    1.415   1_455 S
N282   C283    1.367   .     A
C283   H284    1.081   .     S
C283   C441    1.415   1_455 S
C285   H286    1.078   .     S
C285   N287    1.365   .     A
C285   C361    1.415   .     S
C288   H297    1.111   .     S
C288   H296    1.106   .     S
C288   C289    1.538   .     S
C289   C290    1.528   .     S
C289   H294    1.113   .     S
C289   H295    1.109   .     S
C290   H369    1.108   .     S
C290   H370    1.111   .     S
C290   H371    1.111   .     S
H291   C446    1.108   1_455 S
H292   C446    1.111   1_455 S
H293   C446    1.111   1_455 S
C298   H307    1.113   .     S
C298   C299    1.536   .     S
C298   H306    1.108   .     S
C299   H304    1.110   .     S
C299   H305    1.108   .     S
C299   C300    1.532   .     S
C300   H459    1.109   1_455 S
H301   C534    1.110   .     S
H302   C534    1.110   .     S
H303   C378    1.109   .     S
S308   O310    1.502   .     D
S308   O311    1.681   .     S
S308   O309    1.501   .     D
O311   H312    0.991   .     S
O313   Cu319   1.973   .     S
O313   C315    1.291   .     A
O314   Cu320   1.975   .     S
O314   C315    1.292   .     A
C315   C355    1.450   .     S
O316   Cu319   1.956   .     S
O316   C318    1.297   .     A
O317   Cu320   1.946   .     S
O317   C318    1.297   .     A
C318   C342    1.475   .     S
Cu319  Cu320   2.678   .     S
Cu319  O323    1.946   .     S
Cu319  O321    1.975   .     S
Cu319  N360    2.013   .     S
Cu320  O324    1.956   .     S
Cu320  N365    2.012   .     S
Cu320  O322    1.973   .     S
O321   C325    1.300   .     A
O322   C325    1.298   .     A
O323   C326    1.293   .     A
O324   C326    1.294   .     A
C325   C351    1.481   .     S
C326   C330    1.461   .     S
C327   C341    1.390   .     A
C327   H1031   1.080   1_554 S
C327   C1039   1.412   1_554 S
H328   C341    1.083   .     S
H329   C1029   1.080   .     S
C330   C340    1.393   .     A
C330   C341    1.395   .     A
C331   C332    1.386   .     A
C331   H344    1.083   .     S
C331   C342    1.402   .     A
C332   C1035   1.391   .     S
C332   H1048   1.083   .     S
C333   H345    1.077   .     S
C333   C1034   1.391   1_554 S
C333   C1036   1.420   1_554 S
C334   C335    1.414   .     A
C334   C1035   1.420   .     S
C334   C1038   1.424   .     S
C335   C339    1.405   .     A
C335   C342    1.420   .     A
C336   C340    1.402   .     A
C336   C1036   1.424   1_554 S
C336   C1039   1.428   1_554 S
C337   C338    1.409   .     A
C337   C1029   1.412   .     S
C337   C1038   1.428   .     S
C338   C339    1.391   .     A
C338   S386    1.772   .     S
C339   H347    1.078   .     S
C340   H343    1.076   .     S
H346   C1034   1.083   1_554 S
C348   H349    1.084   .     S
C348   C355    1.389   .     A
C348   C584    1.392   .     S
C350   C351    1.432   .     A
C350   C366    1.523   .     S
C351   C352    1.429   .     A
C352   C376    1.519   .     S
C353   H354    1.084   .     S
C353   C355    1.388   .     A
C353   C586    1.389   .     S
C356   N365    1.368   .     A
C356   H357    1.081   .     S
C356   C436    1.415   .     S
C358   H359    1.081   .     S
C358   N360    1.366   .     A
N360   C361    1.367   .     A
C361   H362    1.081   .     S
C363   H364    1.078   .     S
C363   N365    1.365   .     A
C363   C439    1.415   .     S
C366   H375    1.111   .     S
C366   H374    1.106   .     S
C366   C367    1.538   .     S
C367   C368    1.528   .     S
C367   H372    1.113   .     S
C367   H373    1.109   .     S
C368   H447    1.108   .     S
C368   H448    1.111   .     S
C368   H449    1.111   .     S
C376   H385    1.113   .     S
C376   C377    1.536   .     S
C376   H384    1.108   .     S
C377   H382    1.110   .     S
C377   H383    1.108   .     S
C377   C378    1.532   .     S
H379   C612    1.110   .     S
H380   C612    1.110   .     S
H381   C456    1.109   .     S
S386   O388    1.502   .     D
S386   O389    1.681   .     S
S386   O387    1.501   .     D
O389   H390    0.991   .     S
O391   Cu397   1.973   .     S
O391   C393    1.291   .     A
O392   Cu398   1.975   .     S
O392   C393    1.292   .     A
C393   C433    1.450   .     S
O394   Cu397   1.956   .     S
O394   C396    1.297   .     A
O395   Cu398   1.946   .     S
O395   C396    1.297   .     A
C396   C420    1.475   .     S
Cu397  Cu398   2.678   .     S
Cu397  O401    1.946   .     S
Cu397  O399    1.975   .     S
Cu397  N438    2.013   .     S
Cu398  O402    1.956   .     S
Cu398  N443    2.012   .     S
Cu398  O400    1.973   .     S
O399   C403    1.300   .     A
O400   C403    1.298   .     A
O401   C404    1.293   .     A
O402   C404    1.294   .     A
C403   C429    1.481   .     S
C404   C408    1.461   .     S
C405   C419    1.390   .     A
C405   H1109   1.080   1_554 S
C405   C1117   1.412   1_554 S
H406   C419    1.083   .     S
H407   C1107   1.080   .     S
C408   C418    1.393   .     A
C408   C419    1.395   .     A
C409   C410    1.386   .     A
C409   H422    1.083   .     S
C409   C420    1.402   .     A
C410   C1113   1.391   .     S
C410   H1126   1.083   .     S
C411   H423    1.077   .     S
C411   C1112   1.391   1_554 S
C411   C1114   1.420   1_554 S
C412   C413    1.414   .     A
C412   C1113   1.420   .     S
C412   C1116   1.424   .     S
C413   C417    1.405   .     A
C413   C420    1.420   .     A
C414   C418    1.402   .     A
C414   C1114   1.424   1_554 S
C414   C1117   1.428   1_554 S
C415   C416    1.409   .     A
C415   C1107   1.412   .     S
C415   C1116   1.428   .     S
C416   C417    1.391   .     A
C416   S464    1.772   .     S
C417   H425    1.078   .     S
C418   H421    1.076   .     S
H424   C1112   1.083   1_554 S
C426   H427    1.084   .     S
C426   C433    1.389   .     A
C426   C662    1.392   .     S
C428   C429    1.432   .     A
C428   C444    1.523   .     S
C429   C430    1.429   .     A
C430   C454    1.519   .     S
C431   H432    1.084   .     S
C431   C433    1.388   .     A
C431   C664    1.389   .     S
C434   N443    1.368   .     A
C434   H435    1.081   .     S
C434   C280    1.415   1_655 S
C436   H437    1.081   .     S
C436   N438    1.366   .     A
N438   C439    1.367   .     A
C439   H440    1.081   .     S
C441   H442    1.078   .     S
C441   N443    1.365   .     A
C441   C283    1.415   1_655 S
C444   H453    1.111   .     S
C444   H452    1.106   .     S
C444   C445    1.538   .     S
C445   C446    1.528   .     S
C445   H450    1.113   .     S
C445   H451    1.109   .     S
C446   H291    1.108   1_655 S
C446   H292    1.111   1_655 S
C446   H293    1.111   1_655 S
C454   H463    1.113   .     S
C454   C455    1.536   .     S
C454   H462    1.108   .     S
C455   H460    1.110   .     S
C455   H461    1.108   .     S
C455   C456    1.532   .     S
H457   C690    1.110   .     S
H458   C690    1.110   .     S
H459   C300    1.109   1_655 S
S464   O466    1.502   .     D
S464   O467    1.681   .     S
S464   O465    1.501   .     D
O467   H468    0.991   .     S
O469   Cu475   1.973   .     S
O469   C471    1.291   .     A
O470   Cu476   1.975   .     S
O470   C471    1.292   .     A
C471   C511    1.450   .     S
O472   Cu475   1.956   .     S
O472   C474    1.297   .     A
O473   Cu476   1.946   .     S
O473   C474    1.297   .     A
C474   C498    1.475   .     S
Cu475  Cu476   2.678   .     S
Cu475  O479    1.946   .     S
Cu475  O477    1.975   .     S
Cu475  N516    2.013   .     S
Cu476  O480    1.956   .     S
Cu476  N521    2.012   .     S
Cu476  O478    1.973   .     S
O477   C481    1.300   .     A
O478   C481    1.298   .     A
O479   C482    1.293   .     A
O480   C482    1.294   .     A
C481   C507    1.481   .     S
C482   C486    1.461   .     S
C483   C497    1.390   .     A
C483   H1187   1.080   1_554 S
C483   C1195   1.412   1_554 S
H484   C497    1.083   .     S
H485   C1185   1.080   .     S
C486   C496    1.393   .     A
C486   C497    1.395   .     A
C487   C488    1.386   .     A
C487   H500    1.083   .     S
C487   C498    1.402   .     A
C488   C1191   1.391   .     S
C488   H1204   1.083   .     S
C489   H501    1.077   .     S
C489   C1190   1.391   1_554 S
C489   C1192   1.420   1_554 S
C490   C491    1.414   .     A
C490   C1191   1.420   .     S
C490   C1194   1.424   .     S
C491   C495    1.405   .     A
C491   C498    1.420   .     A
C492   C496    1.402   .     A
C492   C1192   1.424   1_554 S
C492   C1195   1.428   1_554 S
C493   C494    1.409   .     A
C493   C1185   1.412   .     S
C493   C1194   1.428   .     S
C494   C495    1.391   .     A
C494   S542    1.772   .     S
C495   H503    1.078   .     S
C496   H499    1.076   .     S
H502   C1190   1.083   1_554 S
C504   H505    1.084   .     S
C504   C511    1.389   .     A
C504   C38     1.392   1_565 S
C506   C507    1.432   .     A
C506   C522    1.523   .     S
C507   C508    1.429   .     A
C508   C532    1.519   .     S
C509   H510    1.084   .     S
C509   C511    1.388   .     A
C509   C40     1.389   1_565 S
C512   N521    1.368   .     A
C512   H513    1.081   .     S
C512   C592    1.415   .     S
C514   H515    1.081   .     S
C514   N516    1.366   .     A
C514   C668    1.415   1_455 S
N516   C517    1.367   .     A
C517   H518    1.081   .     S
C517   C675    1.415   1_455 S
C519   H520    1.078   .     S
C519   N521    1.365   .     A
C519   C595    1.415   .     S
C522   H531    1.111   .     S
C522   H530    1.106   .     S
C522   C523    1.538   .     S
C523   C524    1.528   .     S
C523   H528    1.113   .     S
C523   H529    1.109   .     S
C524   H603    1.108   .     S
C524   H604    1.111   .     S
C524   H605    1.111   .     S
H525   C680    1.108   1_455 S
H526   C680    1.111   1_455 S
H527   C680    1.111   1_455 S
C532   H541    1.113   .     S
C532   C533    1.536   .     S
C532   H540    1.108   .     S
C533   H538    1.110   .     S
C533   H539    1.108   .     S
C533   C534    1.532   .     S
C534   H693    1.109   1_455 S
H535   C66     1.110   1_565 S
H536   C66     1.110   1_565 S
H537   C612    1.109   .     S
S542   O544    1.502   .     D
S542   O545    1.681   .     S
S542   O543    1.501   .     D
O545   H546    0.991   .     S
O547   Cu553   1.973   .     S
O547   C549    1.291   .     A
O548   Cu554   1.975   .     S
O548   C549    1.292   .     A
C549   C589    1.450   .     S
O550   Cu553   1.956   .     S
O550   C552    1.297   .     A
O551   Cu554   1.946   .     S
O551   C552    1.297   .     A
C552   C576    1.475   .     S
Cu553  Cu554   2.678   .     S
Cu553  O557    1.946   .     S
Cu553  O555    1.975   .     S
Cu553  N594    2.013   .     S
Cu554  O558    1.956   .     S
Cu554  N599    2.012   .     S
Cu554  O556    1.973   .     S
O555   C559    1.300   .     A
O556   C559    1.298   .     A
O557   C560    1.293   .     A
O558   C560    1.294   .     A
C559   C585    1.481   .     S
C560   C564    1.461   .     S
C561   C575    1.390   .     A
C561   H1265   1.080   1_554 S
C561   C1273   1.412   1_554 S
H562   C575    1.083   .     S
H563   C1263   1.080   .     S
C564   C574    1.393   .     A
C564   C575    1.395   .     A
C565   C566    1.386   .     A
C565   H578    1.083   .     S
C565   C576    1.402   .     A
C566   C1269   1.391   .     S
C566   H1282   1.083   .     S
C567   H579    1.077   .     S
C567   C1268   1.391   1_554 S
C567   C1270   1.420   1_554 S
C568   C569    1.414   .     A
C568   C1269   1.420   .     S
C568   C1272   1.424   .     S
C569   C573    1.405   .     A
C569   C576    1.420   .     A
C570   C574    1.402   .     A
C570   C1270   1.424   1_554 S
C570   C1273   1.428   1_554 S
C571   C572    1.409   .     A
C571   C1263   1.412   .     S
C571   C1272   1.428   .     S
C572   C573    1.391   .     A
C572   S620    1.772   .     S
C573   H581    1.078   .     S
C574   H577    1.076   .     S
H580   C1268   1.083   1_554 S
C582   H583    1.084   .     S
C582   C589    1.389   .     A
C582   C116    1.392   1_565 S
C584   C585    1.432   .     A
C584   C600    1.523   .     S
C585   C586    1.429   .     A
C586   C610    1.519   .     S
C587   H588    1.084   .     S
C587   C589    1.388   .     A
C587   C118    1.389   1_565 S
C590   N599    1.368   .     A
C590   H591    1.081   .     S
C590   C670    1.415   .     S
C592   H593    1.081   .     S
C592   N594    1.366   .     A
N594   C595    1.367   .     A
C595   H596    1.081   .     S
C597   H598    1.078   .     S
C597   N599    1.365   .     A
C597   C673    1.415   .     S
C600   H609    1.111   .     S
C600   H608    1.106   .     S
C600   C601    1.538   .     S
C601   C602    1.528   .     S
C601   H606    1.113   .     S
C601   H607    1.109   .     S
C602   H681    1.108   .     S
C602   H682    1.111   .     S
C602   H683    1.111   .     S
C610   H619    1.113   .     S
C610   C611    1.536   .     S
C610   H618    1.108   .     S
C611   H616    1.110   .     S
C611   H617    1.108   .     S
C611   C612    1.532   .     S
H613   C144    1.110   1_565 S
H614   C144    1.110   1_565 S
H615   C690    1.109   .     S
S620   O622    1.502   .     D
S620   O623    1.681   .     S
S620   O621    1.501   .     D
O623   H624    0.991   .     S
O625   Cu631   1.973   .     S
O625   C627    1.291   .     A
O626   Cu632   1.975   .     S
O626   C627    1.292   .     A
C627   C667    1.450   .     S
O628   Cu631   1.956   .     S
O628   C630    1.297   .     A
O629   Cu632   1.946   .     S
O629   C630    1.297   .     A
C630   C654    1.475   .     S
Cu631  Cu632   2.678   .     S
Cu631  O635    1.946   .     S
Cu631  O633    1.975   .     S
Cu631  N672    2.013   .     S
Cu632  O636    1.956   .     S
Cu632  N677    2.012   .     S
Cu632  O634    1.973   .     S
O633   C637    1.300   .     A
O634   C637    1.298   .     A
O635   C638    1.293   .     A
O636   C638    1.294   .     A
C637   C663    1.481   .     S
C638   C642    1.461   .     S
C639   C653    1.390   .     A
C639   H1343   1.080   1_554 S
C639   C1351   1.412   1_554 S
H640   C653    1.083   .     S
H641   C1341   1.080   .     S
C642   C652    1.393   .     A
C642   C653    1.395   .     A
C643   C644    1.386   .     A
C643   H656    1.083   .     S
C643   C654    1.402   .     A
C644   C1347   1.391   .     S
C644   H1360   1.083   .     S
C645   H657    1.077   .     S
C645   C1346   1.391   1_554 S
C645   C1348   1.420   1_554 S
C646   C647    1.414   .     A
C646   C1347   1.420   .     S
C646   C1350   1.424   .     S
C647   C651    1.405   .     A
C647   C654    1.420   .     A
C648   C652    1.402   .     A
C648   C1348   1.424   1_554 S
C648   C1351   1.428   1_554 S
C649   C650    1.409   .     A
C649   C1341   1.412   .     S
C649   C1350   1.428   .     S
C650   C651    1.391   .     A
C650   S698    1.772   .     S
C651   H659    1.078   .     S
C652   H655    1.076   .     S
H658   C1346   1.083   1_554 S
C660   H661    1.084   .     S
C660   C667    1.389   .     A
C660   C194    1.392   1_565 S
C662   C663    1.432   .     A
C662   C678    1.523   .     S
C663   C664    1.429   .     A
C664   C688    1.519   .     S
C665   H666    1.084   .     S
C665   C667    1.388   .     A
C665   C196    1.389   1_565 S
C668   N677    1.368   .     A
C668   H669    1.081   .     S
C668   C514    1.415   1_655 S
C670   H671    1.081   .     S
C670   N672    1.366   .     A
N672   C673    1.367   .     A
C673   H674    1.081   .     S
C675   H676    1.078   .     S
C675   N677    1.365   .     A
C675   C517    1.415   1_655 S
C678   H687    1.111   .     S
C678   H686    1.106   .     S
C678   C679    1.538   .     S
C679   C680    1.528   .     S
C679   H684    1.113   .     S
C679   H685    1.109   .     S
C680   H525    1.108   1_655 S
C680   H526    1.111   1_655 S
C680   H527    1.111   1_655 S
C688   H697    1.113   .     S
C688   C689    1.536   .     S
C688   H696    1.108   .     S
C689   H694    1.110   .     S
C689   H695    1.108   .     S
C689   C690    1.532   .     S
H691   C222    1.110   1_565 S
H692   C222    1.110   1_565 S
H693   C534    1.109   1_655 S
S698   O700    1.502   .     D
S698   O701    1.681   .     S
S698   O699    1.501   .     D
O701   H702    0.991   .     S
O703   Cu709   1.973   .     S
O703   C705    1.291   .     A
O704   Cu710   1.975   .     S
O704   C705    1.292   .     A
C705   C745    1.450   .     S
O706   Cu709   1.956   .     S
O706   C708    1.297   .     A
O707   Cu710   1.946   .     S
O707   C708    1.297   .     A
C708   C732    1.475   .     S
Cu709  Cu710   2.678   .     S
Cu709  O713    1.946   .     S
Cu709  O711    1.975   .     S
Cu709  N750    2.013   .     S
Cu710  O714    1.956   .     S
Cu710  N755    2.012   .     S
Cu710  O712    1.973   .     S
O711   C715    1.300   .     A
O712   C715    1.298   .     A
O713   C716    1.293   .     A
O714   C716    1.294   .     A
C715   C741    1.481   .     S
C716   C720    1.461   .     S
C717   C731    1.390   .     A
H718   C731    1.083   .     S
H719   C15     1.080   1_556 S
C720   C730    1.393   .     A
C720   C731    1.395   .     A
C721   C722    1.386   .     A
C721   H734    1.083   .     S
C721   C732    1.402   .     A
C722   C21     1.391   1_556 S
C722   H34     1.083   1_556 S
C723   H735    1.077   .     S
C724   C725    1.414   .     A
C724   C21     1.420   1_556 S
C724   C24     1.424   1_556 S
C725   C729    1.405   .     A
C725   C732    1.420   .     A
C726   C730    1.402   .     A
C727   C728    1.409   .     A
C727   C15     1.412   1_556 S
C727   C24     1.428   1_556 S
C728   C729    1.391   .     A
C728   S776    1.772   .     S
C729   H737    1.078   .     S
C730   H733    1.076   .     S
C738   H739    1.084   .     S
C738   C745    1.389   .     A
C738   C974    1.392   .     S
C740   C741    1.432   .     A
C740   C756    1.523   .     S
C740   C1206   1.392   1_545 S
C741   C742    1.429   .     A
C742   C766    1.519   .     S
C742   C1211   1.389   1_545 S
C743   H744    1.084   .     S
C743   C745    1.388   .     A
C743   C976    1.389   .     S
C746   N755    1.368   .     A
C746   H747    1.081   .     S
C746   C826    1.415   .     S
C748   H749    1.081   .     S
C748   N750    1.366   .     A
C748   C902    1.415   1_455 S
N750   C751    1.367   .     A
C751   H752    1.081   .     S
C751   C909    1.415   1_455 S
C753   H754    1.078   .     S
C753   N755    1.365   .     A
C753   C829    1.415   .     S
C756   H765    1.111   .     S
C756   H764    1.106   .     S
C756   C757    1.538   .     S
C757   C758    1.528   .     S
C757   H762    1.113   .     S
C757   H763    1.109   .     S
C758   H837    1.108   .     S
C758   H838    1.111   .     S
C758   H839    1.111   .     S
H759   C914    1.108   1_455 S
H760   C914    1.111   1_455 S
H761   C914    1.111   1_455 S
C766   H775    1.113   .     S
C766   C767    1.536   .     S
C766   H774    1.108   .     S
C767   H772    1.110   .     S
C767   H773    1.108   .     S
C767   C768    1.532   .     S
C768   H1237   1.110   1_545 S
C768   H1238   1.110   1_545 S
C768   H927    1.109   1_455 S
H769   C1002   1.110   .     S
H770   C1002   1.110   .     S
H771   C846    1.109   .     S
S776   O778    1.502   .     D
S776   O779    1.681   .     S
S776   O777    1.501   .     D
O779   H780    0.991   .     S
O781   Cu787   1.973   .     S
O781   C783    1.291   .     A
O782   Cu788   1.975   .     S
O782   C783    1.292   .     A
C783   C823    1.450   .     S
O784   Cu787   1.956   .     S
O784   C786    1.297   .     A
O785   Cu788   1.946   .     S
O785   C786    1.297   .     A
C786   C810    1.475   .     S
Cu787  Cu788   2.678   .     S
Cu787  O791    1.946   .     S
Cu787  O789    1.975   .     S
Cu787  N828    2.013   .     S
Cu788  O792    1.956   .     S
Cu788  N833    2.012   .     S
Cu788  O790    1.973   .     S
O789   C793    1.300   .     A
O790   C793    1.298   .     A
O791   C794    1.293   .     A
O792   C794    1.294   .     A
C793   C819    1.481   .     S
C794   C798    1.461   .     S
C795   C809    1.390   .     A
H796   C809    1.083   .     S
H797   C93     1.080   1_556 S
C798   C808    1.393   .     A
C798   C809    1.395   .     A
C799   C800    1.386   .     A
C799   H812    1.083   .     S
C799   C810    1.402   .     A
C800   C99     1.391   1_556 S
C800   H112    1.083   1_556 S
C801   H813    1.077   .     S
C802   C803    1.414   .     A
C802   C99     1.420   1_556 S
C802   C102    1.424   1_556 S
C803   C807    1.405   .     A
C803   C810    1.420   .     A
C804   C808    1.402   .     A
C805   C806    1.409   .     A
C805   C93     1.412   1_556 S
C805   C102    1.428   1_556 S
C806   C807    1.391   .     A
C806   S854    1.772   .     S
C807   H815    1.078   .     S
C808   H811    1.076   .     S
C816   H817    1.084   .     S
C816   C823    1.389   .     A
C816   C1052   1.392   .     S
C818   C819    1.432   .     A
C818   C834    1.523   .     S
C818   C1284   1.392   1_545 S
C819   C820    1.429   .     A
C820   C844    1.519   .     S
C820   C1289   1.389   1_545 S
C821   H822    1.084   .     S
C821   C823    1.388   .     A
C821   C1054   1.389   .     S
C824   N833    1.368   .     A
C824   H825    1.081   .     S
C824   C904    1.415   .     S
C826   H827    1.081   .     S
C826   N828    1.366   .     A
N828   C829    1.367   .     A
C829   H830    1.081   .     S
C831   H832    1.078   .     S
C831   N833    1.365   .     A
C831   C907    1.415   .     S
C834   H843    1.111   .     S
C834   H842    1.106   .     S
C834   C835    1.538   .     S
C835   C836    1.528   .     S
C835   H840    1.113   .     S
C835   H841    1.109   .     S
C836   H915    1.108   .     S
C836   H916    1.111   .     S
C836   H917    1.111   .     S
C844   H853    1.113   .     S
C844   C845    1.536   .     S
C844   H852    1.108   .     S
C845   H850    1.110   .     S
C845   H851    1.108   .     S
C845   C846    1.532   .     S
C846   H1315   1.110   1_545 S
C846   H1316   1.110   1_545 S
H847   C1080   1.110   .     S
H848   C1080   1.110   .     S
H849   C924    1.109   .     S
S854   O856    1.502   .     D
S854   O857    1.681   .     S
S854   O855    1.501   .     D
O857   H858    0.991   .     S
O859   Cu865   1.973   .     S
O859   C861    1.291   .     A
O860   Cu866   1.975   .     S
O860   C861    1.292   .     A
C861   C901    1.450   .     S
O862   Cu865   1.956   .     S
O862   C864    1.297   .     A
O863   Cu866   1.946   .     S
O863   C864    1.297   .     A
C864   C888    1.475   .     S
Cu865  Cu866   2.678   .     S
Cu865  O869    1.946   .     S
Cu865  O867    1.975   .     S
Cu865  N906    2.013   .     S
Cu866  O870    1.956   .     S
Cu866  N911    2.012   .     S
Cu866  O868    1.973   .     S
O867   C871    1.300   .     A
O868   C871    1.298   .     A
O869   C872    1.293   .     A
O870   C872    1.294   .     A
C871   C897    1.481   .     S
C872   C876    1.461   .     S
C873   C887    1.390   .     A
H874   C887    1.083   .     S
H875   C171    1.080   1_556 S
C876   C886    1.393   .     A
C876   C887    1.395   .     A
C877   C878    1.386   .     A
C877   H890    1.083   .     S
C877   C888    1.402   .     A
C878   C177    1.391   1_556 S
C878   H190    1.083   1_556 S
C879   H891    1.077   .     S
C880   C881    1.414   .     A
C880   C177    1.420   1_556 S
C880   C180    1.424   1_556 S
C881   C885    1.405   .     A
C881   C888    1.420   .     A
C882   C886    1.402   .     A
C883   C884    1.409   .     A
C883   C171    1.412   1_556 S
C883   C180    1.428   1_556 S
C884   C885    1.391   .     A
C884   S932    1.772   .     S
C885   H893    1.078   .     S
C886   H889    1.076   .     S
C894   H895    1.084   .     S
C894   C901    1.389   .     A
C894   C1130   1.392   .     S
C896   C897    1.432   .     A
C896   C912    1.523   .     S
C896   C1362   1.392   1_545 S
C897   C898    1.429   .     A
C898   C922    1.519   .     S
C898   C1367   1.389   1_545 S
C899   H900    1.084   .     S
C899   C901    1.388   .     A
C899   C1132   1.389   .     S
C902   N911    1.368   .     A
C902   H903    1.081   .     S
C902   C748    1.415   1_655 S
C904   H905    1.081   .     S
C904   N906    1.366   .     A
N906   C907    1.367   .     A
C907   H908    1.081   .     S
C909   H910    1.078   .     S
C909   N911    1.365   .     A
C909   C751    1.415   1_655 S
C912   H921    1.111   .     S
C912   H920    1.106   .     S
C912   C913    1.538   .     S
C913   C914    1.528   .     S
C913   H918    1.113   .     S
C913   H919    1.109   .     S
C914   H759    1.108   1_655 S
C914   H760    1.111   1_655 S
C914   H761    1.111   1_655 S
C922   H931    1.113   .     S
C922   C923    1.536   .     S
C922   H930    1.108   .     S
C923   H928    1.110   .     S
C923   H929    1.108   .     S
C923   C924    1.532   .     S
C924   H1393   1.110   1_545 S
C924   H1394   1.110   1_545 S
H925   C1158   1.110   .     S
H926   C1158   1.110   .     S
H927   C768    1.109   1_655 S
S932   O934    1.502   .     D
S932   O935    1.681   .     S
S932   O933    1.501   .     D
O935   H936    0.991   .     S
O937   Cu943   1.973   .     S
O937   C939    1.291   .     A
O938   Cu944   1.975   .     S
O938   C939    1.292   .     A
C939   C979    1.450   .     S
O940   Cu943   1.956   .     S
O940   C942    1.297   .     A
O941   Cu944   1.946   .     S
O941   C942    1.297   .     A
C942   C966    1.475   .     S
Cu943  Cu944   2.678   .     S
Cu943  O947    1.946   .     S
Cu943  O945    1.975   .     S
Cu943  N984    2.013   .     S
Cu944  O948    1.956   .     S
Cu944  N989    2.012   .     S
Cu944  O946    1.973   .     S
O945   C949    1.300   .     A
O946   C949    1.298   .     A
O947   C950    1.293   .     A
O948   C950    1.294   .     A
C949   C975    1.481   .     S
C950   C954    1.461   .     S
C951   C965    1.390   .     A
H952   C965    1.083   .     S
H953   C249    1.080   1_556 S
C954   C964    1.393   .     A
C954   C965    1.395   .     A
C955   C956    1.386   .     A
C955   H968    1.083   .     S
C955   C966    1.402   .     A
C956   C255    1.391   1_556 S
C956   H268    1.083   1_556 S
C957   H969    1.077   .     S
C958   C959    1.414   .     A
C958   C255    1.420   1_556 S
C958   C258    1.424   1_556 S
C959   C963    1.405   .     A
C959   C966    1.420   .     A
C960   C964    1.402   .     A
C961   C962    1.409   .     A
C961   C249    1.412   1_556 S
C961   C258    1.428   1_556 S
C962   C963    1.391   .     A
C962   S1010   1.772   .     S
C963   H971    1.078   .     S
C964   H967    1.076   .     S
C972   H973    1.084   .     S
C972   C979    1.389   .     A
C972   C1208   1.392   .     S
C974   C975    1.432   .     A
C974   C990    1.523   .     S
C975   C976    1.429   .     A
C976   C1000   1.519   .     S
C977   H978    1.084   .     S
C977   C979    1.388   .     A
C977   C1210   1.389   .     S
C980   N989    1.368   .     A
C980   H981    1.081   .     S
C980   C1060   1.415   .     S
C982   H983    1.081   .     S
C982   N984    1.366   .     A
C982   C1136   1.415   1_455 S
N984   C985    1.367   .     A
C985   H986    1.081   .     S
C985   C1143   1.415   1_455 S
C987   H988    1.078   .     S
C987   N989    1.365   .     A
C987   C1063   1.415   .     S
C990   H999    1.111   .     S
C990   H998    1.106   .     S
C990   C991    1.538   .     S
C991   C992    1.528   .     S
C991   H996    1.113   .     S
C991   H997    1.109   .     S
C992   H1071   1.108   .     S
C992   H1072   1.111   .     S
C992   H1073   1.111   .     S
H993   C1148   1.108   1_455 S
H994   C1148   1.111   1_455 S
H995   C1148   1.111   1_455 S
C1000  H1009   1.113   .     S
C1000  C1001   1.536   .     S
C1000  H1008   1.108   .     S
C1001  H1006   1.110   .     S
C1001  H1007   1.108   .     S
C1001  C1002   1.532   .     S
C1002  H1161   1.109   1_455 S
H1003  C1236   1.110   .     S
H1004  C1236   1.110   .     S
H1005  C1080   1.109   .     S
S1010  O1012   1.502   .     D
S1010  O1013   1.681   .     S
S1010  O1011   1.501   .     D
O1013  H1014   0.991   .     S
O1015  Cu1021  1.973   .     S
O1015  C1017   1.291   .     A
O1016  Cu1022  1.975   .     S
O1016  C1017   1.292   .     A
C1017  C1057   1.450   .     S
O1018  Cu1021  1.956   .     S
O1018  C1020   1.297   .     A
O1019  Cu1022  1.946   .     S
O1019  C1020   1.297   .     A
C1020  C1044   1.475   .     S
Cu1021 Cu1022  2.678   .     S
Cu1021 O1025   1.946   .     S
Cu1021 O1023   1.975   .     S
Cu1021 N1062   2.013   .     S
Cu1022 O1026   1.956   .     S
Cu1022 N1067   2.012   .     S
Cu1022 O1024   1.973   .     S
O1023  C1027   1.300   .     A
O1024  C1027   1.298   .     A
O1025  C1028   1.293   .     A
O1026  C1028   1.294   .     A
C1027  C1053   1.481   .     S
C1028  C1032   1.461   .     S
C1029  C1043   1.390   .     A
H1030  C1043   1.083   .     S
H1031  C327    1.080   1_556 S
C1032  C1042   1.393   .     A
C1032  C1043   1.395   .     A
C1033  C1034   1.386   .     A
C1033  H1046   1.083   .     S
C1033  C1044   1.402   .     A
C1034  C333    1.391   1_556 S
C1034  H346    1.083   1_556 S
C1035  H1047   1.077   .     S
C1036  C1037   1.414   .     A
C1036  C333    1.420   1_556 S
C1036  C336    1.424   1_556 S
C1037  C1041   1.405   .     A
C1037  C1044   1.420   .     A
C1038  C1042   1.402   .     A
C1039  C1040   1.409   .     A
C1039  C327    1.412   1_556 S
C1039  C336    1.428   1_556 S
C1040  C1041   1.391   .     A
C1040  S1088   1.772   .     S
C1041  H1049   1.078   .     S
C1042  H1045   1.076   .     S
C1050  H1051   1.084   .     S
C1050  C1057   1.389   .     A
C1050  C1286   1.392   .     S
C1052  C1053   1.432   .     A
C1052  C1068   1.523   .     S
C1053  C1054   1.429   .     A
C1054  C1078   1.519   .     S
C1055  H1056   1.084   .     S
C1055  C1057   1.388   .     A
C1055  C1288   1.389   .     S
C1058  N1067   1.368   .     A
C1058  H1059   1.081   .     S
C1058  C1138   1.415   .     S
C1060  H1061   1.081   .     S
C1060  N1062   1.366   .     A
N1062  C1063   1.367   .     A
C1063  H1064   1.081   .     S
C1065  H1066   1.078   .     S
C1065  N1067   1.365   .     A
C1065  C1141   1.415   .     S
C1068  H1077   1.111   .     S
C1068  H1076   1.106   .     S
C1068  C1069   1.538   .     S
C1069  C1070   1.528   .     S
C1069  H1074   1.113   .     S
C1069  H1075   1.109   .     S
C1070  H1149   1.108   .     S
C1070  H1150   1.111   .     S
C1070  H1151   1.111   .     S
C1078  H1087   1.113   .     S
C1078  C1079   1.536   .     S
C1078  H1086   1.108   .     S
C1079  H1084   1.110   .     S
C1079  H1085   1.108   .     S
C1079  C1080   1.532   .     S
H1081  C1314   1.110   .     S
H1082  C1314   1.110   .     S
H1083  C1158   1.109   .     S
S1088  O1090   1.502   .     D
S1088  O1091   1.681   .     S
S1088  O1089   1.501   .     D
O1091  H1092   0.991   .     S
O1093  Cu1099  1.973   .     S
O1093  C1095   1.291   .     A
O1094  Cu1100  1.975   .     S
O1094  C1095   1.292   .     A
C1095  C1135   1.450   .     S
O1096  Cu1099  1.956   .     S
O1096  C1098   1.297   .     A
O1097  Cu1100  1.946   .     S
O1097  C1098   1.297   .     A
C1098  C1122   1.475   .     S
Cu1099 Cu1100  2.678   .     S
Cu1099 O1103   1.946   .     S
Cu1099 O1101   1.975   .     S
Cu1099 N1140   2.013   .     S
Cu1100 O1104   1.956   .     S
Cu1100 N1145   2.012   .     S
Cu1100 O1102   1.973   .     S
O1101  C1105   1.300   .     A
O1102  C1105   1.298   .     A
O1103  C1106   1.293   .     A
O1104  C1106   1.294   .     A
C1105  C1131   1.481   .     S
C1106  C1110   1.461   .     S
C1107  C1121   1.390   .     A
H1108  C1121   1.083   .     S
H1109  C405    1.080   1_556 S
C1110  C1120   1.393   .     A
C1110  C1121   1.395   .     A
C1111  C1112   1.386   .     A
C1111  H1124   1.083   .     S
C1111  C1122   1.402   .     A
C1112  C411    1.391   1_556 S
C1112  H424    1.083   1_556 S
C1113  H1125   1.077   .     S
C1114  C1115   1.414   .     A
C1114  C411    1.420   1_556 S
C1114  C414    1.424   1_556 S
C1115  C1119   1.405   .     A
C1115  C1122   1.420   .     A
C1116  C1120   1.402   .     A
C1117  C1118   1.409   .     A
C1117  C405    1.412   1_556 S
C1117  C414    1.428   1_556 S
C1118  C1119   1.391   .     A
C1118  S1166   1.772   .     S
C1119  H1127   1.078   .     S
C1120  H1123   1.076   .     S
C1128  H1129   1.084   .     S
C1128  C1135   1.389   .     A
C1128  C1364   1.392   .     S
C1130  C1131   1.432   .     A
C1130  C1146   1.523   .     S
C1131  C1132   1.429   .     A
C1132  C1156   1.519   .     S
C1133  H1134   1.084   .     S
C1133  C1135   1.388   .     A
C1133  C1366   1.389   .     S
C1136  N1145   1.368   .     A
C1136  H1137   1.081   .     S
C1136  C982    1.415   1_655 S
C1138  H1139   1.081   .     S
C1138  N1140   1.366   .     A
N1140  C1141   1.367   .     A
C1141  H1142   1.081   .     S
C1143  H1144   1.078   .     S
C1143  N1145   1.365   .     A
C1143  C985    1.415   1_655 S
C1146  H1155   1.111   .     S
C1146  H1154   1.106   .     S
C1146  C1147   1.538   .     S
C1147  C1148   1.528   .     S
C1147  H1152   1.113   .     S
C1147  H1153   1.109   .     S
C1148  H993    1.108   1_655 S
C1148  H994    1.111   1_655 S
C1148  H995    1.111   1_655 S
C1156  H1165   1.113   .     S
C1156  C1157   1.536   .     S
C1156  H1164   1.108   .     S
C1157  H1162   1.110   .     S
C1157  H1163   1.108   .     S
C1157  C1158   1.532   .     S
H1159  C1392   1.110   .     S
H1160  C1392   1.110   .     S
H1161  C1002   1.109   1_655 S
S1166  O1168   1.502   .     D
S1166  O1169   1.681   .     S
S1166  O1167   1.501   .     D
O1169  H1170   0.991   .     S
O1171  Cu1177  1.973   .     S
O1171  C1173   1.291   .     A
O1172  Cu1178  1.975   .     S
O1172  C1173   1.292   .     A
C1173  C1213   1.450   .     S
O1174  Cu1177  1.956   .     S
O1174  C1176   1.297   .     A
O1175  Cu1178  1.946   .     S
O1175  C1176   1.297   .     A
C1176  C1200   1.475   .     S
Cu1177 Cu1178  2.678   .     S
Cu1177 O1181   1.946   .     S
Cu1177 O1179   1.975   .     S
Cu1177 N1218   2.013   .     S
Cu1178 O1182   1.956   .     S
Cu1178 N1223   2.012   .     S
Cu1178 O1180   1.973   .     S
O1179  C1183   1.300   .     A
O1180  C1183   1.298   .     A
O1181  C1184   1.293   .     A
O1182  C1184   1.294   .     A
C1183  C1209   1.481   .     S
C1184  C1188   1.461   .     S
C1185  C1199   1.390   .     A
H1186  C1199   1.083   .     S
H1187  C483    1.080   1_556 S
C1188  C1198   1.393   .     A
C1188  C1199   1.395   .     A
C1189  C1190   1.386   .     A
C1189  H1202   1.083   .     S
C1189  C1200   1.402   .     A
C1190  C489    1.391   1_556 S
C1190  H502    1.083   1_556 S
C1191  H1203   1.077   .     S
C1192  C1193   1.414   .     A
C1192  C489    1.420   1_556 S
C1192  C492    1.424   1_556 S
C1193  C1197   1.405   .     A
C1193  C1200   1.420   .     A
C1194  C1198   1.402   .     A
C1195  C1196   1.409   .     A
C1195  C483    1.412   1_556 S
C1195  C492    1.428   1_556 S
C1196  C1197   1.391   .     A
C1196  S1244   1.772   .     S
C1197  H1205   1.078   .     S
C1198  H1201   1.076   .     S
C1206  H1207   1.084   .     S
C1206  C1213   1.389   .     A
C1206  C740    1.392   1_565 S
C1208  C1209   1.432   .     A
C1208  C1224   1.523   .     S
C1209  C1210   1.429   .     A
C1210  C1234   1.519   .     S
C1211  H1212   1.084   .     S
C1211  C1213   1.388   .     A
C1211  C742    1.389   1_565 S
C1214  N1223   1.368   .     A
C1214  H1215   1.081   .     S
C1214  C1294   1.415   .     S
C1216  H1217   1.081   .     S
C1216  N1218   1.366   .     A
C1216  C1370   1.415   1_455 S
N1218  C1219   1.367   .     A
C1219  H1220   1.081   .     S
C1219  C1377   1.415   1_455 S
C1221  H1222   1.078   .     S
C1221  N1223   1.365   .     A
C1221  C1297   1.415   .     S
C1224  H1233   1.111   .     S
C1224  H1232   1.106   .     S
C1224  C1225   1.538   .     S
C1225  C1226   1.528   .     S
C1225  H1230   1.113   .     S
C1225  H1231   1.109   .     S
C1226  H1305   1.108   .     S
C1226  H1306   1.111   .     S
C1226  H1307   1.111   .     S
H1227  C1382   1.108   1_455 S
H1228  C1382   1.111   1_455 S
H1229  C1382   1.111   1_455 S
C1234  H1243   1.113   .     S
C1234  C1235   1.536   .     S
C1234  H1242   1.108   .     S
C1235  H1240   1.110   .     S
C1235  H1241   1.108   .     S
C1235  C1236   1.532   .     S
C1236  H1395   1.109   1_455 S
H1237  C768    1.110   1_565 S
H1238  C768    1.110   1_565 S
H1239  C1314   1.109   .     S
S1244  O1246   1.502   .     D
S1244  O1247   1.681   .     S
S1244  O1245   1.501   .     D
O1247  H1248   0.991   .     S
O1249  Cu1255  1.973   .     S
O1249  C1251   1.291   .     A
O1250  Cu1256  1.975   .     S
O1250  C1251   1.292   .     A
C1251  C1291   1.450   .     S
O1252  Cu1255  1.956   .     S
O1252  C1254   1.297   .     A
O1253  Cu1256  1.946   .     S
O1253  C1254   1.297   .     A
C1254  C1278   1.475   .     S
Cu1255 Cu1256  2.678   .     S
Cu1255 O1259   1.946   .     S
Cu1255 O1257   1.975   .     S
Cu1255 N1296   2.013   .     S
Cu1256 O1260   1.956   .     S
Cu1256 N1301   2.012   .     S
Cu1256 O1258   1.973   .     S
O1257  C1261   1.300   .     A
O1258  C1261   1.298   .     A
O1259  C1262   1.293   .     A
O1260  C1262   1.294   .     A
C1261  C1287   1.481   .     S
C1262  C1266   1.461   .     S
C1263  C1277   1.390   .     A
H1264  C1277   1.083   .     S
H1265  C561    1.080   1_556 S
C1266  C1276   1.393   .     A
C1266  C1277   1.395   .     A
C1267  C1268   1.386   .     A
C1267  H1280   1.083   .     S
C1267  C1278   1.402   .     A
C1268  C567    1.391   1_556 S
C1268  H580    1.083   1_556 S
C1269  H1281   1.077   .     S
C1270  C1271   1.414   .     A
C1270  C567    1.420   1_556 S
C1270  C570    1.424   1_556 S
C1271  C1275   1.405   .     A
C1271  C1278   1.420   .     A
C1272  C1276   1.402   .     A
C1273  C1274   1.409   .     A
C1273  C561    1.412   1_556 S
C1273  C570    1.428   1_556 S
C1274  C1275   1.391   .     A
C1274  S1322   1.772   .     S
C1275  H1283   1.078   .     S
C1276  H1279   1.076   .     S
C1284  H1285   1.084   .     S
C1284  C1291   1.389   .     A
C1284  C818    1.392   1_565 S
C1286  C1287   1.432   .     A
C1286  C1302   1.523   .     S
C1287  C1288   1.429   .     A
C1288  C1312   1.519   .     S
C1289  H1290   1.084   .     S
C1289  C1291   1.388   .     A
C1289  C820    1.389   1_565 S
C1292  N1301   1.368   .     A
C1292  H1293   1.081   .     S
C1292  C1372   1.415   .     S
C1294  H1295   1.081   .     S
C1294  N1296   1.366   .     A
N1296  C1297   1.367   .     A
C1297  H1298   1.081   .     S
C1299  H1300   1.078   .     S
C1299  N1301   1.365   .     A
C1299  C1375   1.415   .     S
C1302  H1311   1.111   .     S
C1302  H1310   1.106   .     S
C1302  C1303   1.538   .     S
C1303  C1304   1.528   .     S
C1303  H1308   1.113   .     S
C1303  H1309   1.109   .     S
C1304  H1383   1.108   .     S
C1304  H1384   1.111   .     S
C1304  H1385   1.111   .     S
C1312  H1321   1.113   .     S
C1312  C1313   1.536   .     S
C1312  H1320   1.108   .     S
C1313  H1318   1.110   .     S
C1313  H1319   1.108   .     S
C1313  C1314   1.532   .     S
H1315  C846    1.110   1_565 S
H1316  C846    1.110   1_565 S
H1317  C1392   1.109   .     S
S1322  O1324   1.502   .     D
S1322  O1325   1.681   .     S
S1322  O1323   1.501   .     D
O1325  H1326   0.991   .     S
O1327  Cu1333  1.973   .     S
O1327  C1329   1.291   .     A
O1328  Cu1334  1.975   .     S
O1328  C1329   1.292   .     A
C1329  C1369   1.450   .     S
O1330  Cu1333  1.956   .     S
O1330  C1332   1.297   .     A
O1331  Cu1334  1.946   .     S
O1331  C1332   1.297   .     A
C1332  C1356   1.475   .     S
Cu1333 Cu1334  2.678   .     S
Cu1333 O1337   1.946   .     S
Cu1333 O1335   1.975   .     S
Cu1333 N1374   2.013   .     S
Cu1334 O1338   1.956   .     S
Cu1334 N1379   2.012   .     S
Cu1334 O1336   1.973   .     S
O1335  C1339   1.300   .     A
O1336  C1339   1.298   .     A
O1337  C1340   1.293   .     A
O1338  C1340   1.294   .     A
C1339  C1365   1.481   .     S
C1340  C1344   1.461   .     S
C1341  C1355   1.390   .     A
H1342  C1355   1.083   .     S
H1343  C639    1.080   1_556 S
C1344  C1354   1.393   .     A
C1344  C1355   1.395   .     A
C1345  C1346   1.386   .     A
C1345  H1358   1.083   .     S
C1345  C1356   1.402   .     A
C1346  C645    1.391   1_556 S
C1346  H658    1.083   1_556 S
C1347  H1359   1.077   .     S
C1348  C1349   1.414   .     A
C1348  C645    1.420   1_556 S
C1348  C648    1.424   1_556 S
C1349  C1353   1.405   .     A
C1349  C1356   1.420   .     A
C1350  C1354   1.402   .     A
C1351  C1352   1.409   .     A
C1351  C639    1.412   1_556 S
C1351  C648    1.428   1_556 S
C1352  C1353   1.391   .     A
C1352  S1400   1.772   .     S
C1353  H1361   1.078   .     S
C1354  H1357   1.076   .     S
C1362  H1363   1.084   .     S
C1362  C1369   1.389   .     A
C1362  C896    1.392   1_565 S
C1364  C1365   1.432   .     A
C1364  C1380   1.523   .     S
C1365  C1366   1.429   .     A
C1366  C1390   1.519   .     S
C1367  H1368   1.084   .     S
C1367  C1369   1.388   .     A
C1367  C898    1.389   1_565 S
C1370  N1379   1.368   .     A
C1370  H1371   1.081   .     S
C1370  C1216   1.415   1_655 S
C1372  H1373   1.081   .     S
C1372  N1374   1.366   .     A
N1374  C1375   1.367   .     A
C1375  H1376   1.081   .     S
C1377  H1378   1.078   .     S
C1377  N1379   1.365   .     A
C1377  C1219   1.415   1_655 S
C1380  H1389   1.111   .     S
C1380  H1388   1.106   .     S
C1380  C1381   1.538   .     S
C1381  C1382   1.528   .     S
C1381  H1386   1.113   .     S
C1381  H1387   1.109   .     S
C1382  H1227   1.108   1_655 S
C1382  H1228   1.111   1_655 S
C1382  H1229   1.111   1_655 S
C1390  H1399   1.113   .     S
C1390  C1391   1.536   .     S
C1390  H1398   1.108   .     S
C1391  H1396   1.110   .     S
C1391  H1397   1.108   .     S
C1391  C1392   1.532   .     S
H1393  C924    1.110   1_565 S
H1394  C924    1.110   1_565 S
H1395  C1236   1.109   1_655 S
S1400  O1402   1.502   .     D
S1400  O1403   1.681   .     S
S1400  O1401   1.501   .     D
O1403  H1404   0.991   .     S
