data_str_m2_o2_o10_pcu_sym.143
_audit_creation_date              2020-01-03
_audit_creation_method            'Materials Studio'
_symmetry_space_group_name_H-M    'P1'
_symmetry_Int_Tables_number       1
_symmetry_cell_setting            triclinic
loop_
_symmetry_equiv_pos_as_xyz
  x,y,z
_cell_length_a                    26.1609
_cell_length_b                    30.2325
_cell_length_c                    27.8841
_cell_angle_alpha                 90.4747
_cell_angle_beta                  98.4509
_cell_angle_gamma                 91.1269
loop_
_atom_site_label
_atom_site_type_symbol
_atom_site_fract_x
_atom_site_fract_y
_atom_site_fract_z
_atom_site_U_iso_or_equiv
_atom_site_adp_type
_atom_site_occupancy
C1     C     0.16754   0.16505   0.25003   0.00000  Uiso   1.00
C2     C     0.16756   0.33489   0.25026   0.00000  Uiso   1.00
C3     C     0.21198   0.26481   0.06102   0.00000  Uiso   1.00
C4     C     0.14834   0.21154   0.44246   0.00000  Uiso   1.00
C5     C     0.20878   0.26660   0.11122   0.00000  Uiso   1.00
C6     C     0.14643   0.21427   0.39159   0.00000  Uiso   1.00
C7     C     0.12612   0.23176   0.09760   0.00000  Uiso   1.00
C8     C     0.18878   0.28436   0.39998   0.00000  Uiso   1.00
C9     C     0.12585   0.23373   0.04712   0.00000  Uiso   1.00
C10    C     0.18663   0.28456   0.45015   0.00000  Uiso   1.00
C11    C     0.16926   0.24866   0.02761   0.00000  Uiso   1.00
C12    C     0.16820   0.24774   0.47290   0.00000  Uiso   1.00
C13    C     0.06790   0.24998   0.23747   0.00000  Uiso   1.00
C14    C     0.26543   0.25009   0.26252   0.00000  Uiso   1.00
C15    C     0.01247   0.25002   0.23067   0.00000  Uiso   1.00
C16    C     0.32086   0.25011   0.26929   0.00000  Uiso   1.00
C17    C     0.19544   0.04711   0.28779   0.00000  Uiso   1.00
C18    C     0.20031   0.45361   0.22470   0.00000  Uiso   1.00
C19    C     0.19740   0.09352   0.28824   0.00000  Uiso   1.00
C20    C     0.20219   0.40728   0.22511   0.00000  Uiso   1.00
C21    C     0.16836   0.11668   0.25016   0.00000  Uiso   1.00
C22    C     0.16839   0.38312   0.25049   0.00000  Uiso   1.00
C23    C     0.13852   0.09359   0.21195   0.00000  Uiso   1.00
C24    C     0.13379   0.40495   0.27568   0.00000  Uiso   1.00
C25    C     0.13562   0.04747   0.21113   0.00000  Uiso   1.00
C26    C     0.13075   0.45094   0.27513   0.00000  Uiso   1.00
C27    C     0.16434   0.02411   0.24953   0.00000  Uiso   1.00
C28    C     0.16434   0.47542   0.24928   0.00000  Uiso   1.00
Cu29   Cu    0.16667   0.25000   0.29822   0.00000  Uiso   1.00
Cu30   Cu    0.16667   0.25001   0.20179   0.00000  Uiso   1.00
H31    H     0.32548   0.24996   0.19374   0.00000  Uiso   1.00
H32    H     0.00786   0.25017   0.30621   0.00000  Uiso   1.00
H33    H     0.11627   0.11183   0.18302   0.00000  Uiso   1.00
H34    H     0.10803   0.38571   0.29495   0.00000  Uiso   1.00
H35    H     0.24114   0.28009   0.13596   0.00000  Uiso   1.00
H36    H     0.13003   0.18686   0.36885   0.00000  Uiso   1.00
H37    H     0.09210   0.22179   0.02295   0.00000  Uiso   1.00
H38    H     0.20136   0.31317   0.47185   0.00000  Uiso   1.00
N39    N     0.16667   0.25001   0.12935   0.00000  Uiso   1.00
N40    N     0.16667   0.24999   0.37066   0.00000  Uiso   1.00
O41    O     0.16667   0.18573   0.29072   0.00000  Uiso   1.00
O42    O     0.16666   0.31428   0.20929   0.00000  Uiso   1.00
O43    O     0.16667   0.18573   0.20928   0.00000  Uiso   1.00
O44    O     0.16666   0.31427   0.29072   0.00000  Uiso   1.00
O45    O     0.09161   0.25000   0.28132   0.00000  Uiso   1.00
O46    O     0.24172   0.25001   0.21868   0.00000  Uiso   1.00
O47    O     0.09161   0.25000   0.19989   0.00000  Uiso   1.00
O48    O     0.24172   0.25000   0.30012   0.00000  Uiso   1.00
C49    C     0.22566   0.02285   0.32644   0.00000  Uiso   1.00
N50    N     0.24972   0.00346   0.35720   0.00000  Uiso   1.00
C51    C     0.23561   0.47898   0.19945   0.00000  Uiso   1.00
N52    N     0.26375   0.49924   0.17937   0.00000  Uiso   1.00
C53    C     0.23062   0.11707   0.32681   0.00000  Uiso   1.00
N54    N     0.25711   0.13585   0.35757   0.00000  Uiso   1.00
C55    C     0.24011   0.38475   0.20117   0.00000  Uiso   1.00
N56    N     0.27040   0.36681   0.18214   0.00000  Uiso   1.00
C57    C     0.10176   0.02578   0.16962   0.00000  Uiso   1.00
H58    H     0.08313   0.04589   0.14029   0.00000  Uiso   1.00
O59    O     0.09357   0.48588   0.16747   0.00000  Uiso   1.00
C60    C     0.09165   0.47131   0.30177   0.00000  Uiso   1.00
H61    H     0.06914   0.45045   0.32275   0.00000  Uiso   1.00
O62    O     0.08336   0.01090   0.30053   0.00000  Uiso   1.00
C63    C     0.26043   0.27760   0.04563   0.00000  Uiso   1.00
N64    N     0.29934   0.28781   0.03337   0.00000  Uiso   1.00
C65    C     0.13206   0.17045   0.46207   0.00000  Uiso   1.00
N66    N     0.11903   0.13746   0.47774   0.00000  Uiso   1.00
C67    C     0.08367   0.20620   0.11459   0.00000  Uiso   1.00
H68    H     0.09058   0.18697   0.14726   0.00000  Uiso   1.00
O69    O     0.04032   0.20519   0.09124   0.00000  Uiso   1.00
C70    C     0.21905   0.32042   0.38133   0.00000  Uiso   1.00
H71    H     0.24124   0.31438   0.35230   0.00000  Uiso   1.00
O72    O     0.22084   0.35749   0.39935   0.00000  Uiso   1.00
C73    C     0.50088   0.16505   0.25003   0.00000  Uiso   1.00
C74    C     0.50089   0.33489   0.25026   0.00000  Uiso   1.00
C75    C     0.54531   0.26481   0.06102   0.00000  Uiso   1.00
C76    C     0.48167   0.21154   0.44246   0.00000  Uiso   1.00
C77    C     0.54212   0.26660   0.11122   0.00000  Uiso   1.00
C78    C     0.47977   0.21427   0.39159   0.00000  Uiso   1.00
C79    C     0.45945   0.23176   0.09760   0.00000  Uiso   1.00
C80    C     0.52211   0.28436   0.39998   0.00000  Uiso   1.00
C81    C     0.45918   0.23373   0.04712   0.00000  Uiso   1.00
C82    C     0.51996   0.28456   0.45015   0.00000  Uiso   1.00
C83    C     0.50260   0.24866   0.02761   0.00000  Uiso   1.00
C84    C     0.50153   0.24774   0.47290   0.00000  Uiso   1.00
C85    C     0.40123   0.24998   0.23747   0.00000  Uiso   1.00
C86    C     0.59877   0.25009   0.26252   0.00000  Uiso   1.00
C87    C     0.34580   0.25002   0.23067   0.00000  Uiso   1.00
C88    C     0.65419   0.25011   0.26929   0.00000  Uiso   1.00
C89    C     0.52878   0.04711   0.28779   0.00000  Uiso   1.00
C90    C     0.53365   0.45361   0.22470   0.00000  Uiso   1.00
C91    C     0.53074   0.09352   0.28824   0.00000  Uiso   1.00
C92    C     0.53553   0.40728   0.22511   0.00000  Uiso   1.00
C93    C     0.50170   0.11668   0.25016   0.00000  Uiso   1.00
C94    C     0.50172   0.38312   0.25049   0.00000  Uiso   1.00
C95    C     0.47185   0.09359   0.21195   0.00000  Uiso   1.00
C96    C     0.46712   0.40495   0.27568   0.00000  Uiso   1.00
C97    C     0.46896   0.04747   0.21113   0.00000  Uiso   1.00
C98    C     0.46409   0.45094   0.27513   0.00000  Uiso   1.00
C99    C     0.49768   0.02411   0.24953   0.00000  Uiso   1.00
C100   C     0.49768   0.47542   0.24928   0.00000  Uiso   1.00
Cu101  Cu    0.50000   0.25000   0.29822   0.00000  Uiso   1.00
Cu102  Cu    0.50000   0.25001   0.20179   0.00000  Uiso   1.00
H103   H     0.65882   0.24996   0.19374   0.00000  Uiso   1.00
H104   H     0.34120   0.25017   0.30621   0.00000  Uiso   1.00
H105   H     0.44960   0.11183   0.18302   0.00000  Uiso   1.00
H106   H     0.44136   0.38571   0.29495   0.00000  Uiso   1.00
H107   H     0.57447   0.28009   0.13596   0.00000  Uiso   1.00
H108   H     0.46337   0.18686   0.36885   0.00000  Uiso   1.00
H109   H     0.42543   0.22179   0.02295   0.00000  Uiso   1.00
H110   H     0.53469   0.31317   0.47185   0.00000  Uiso   1.00
N111   N     0.50000   0.25001   0.12935   0.00000  Uiso   1.00
N112   N     0.50000   0.24999   0.37066   0.00000  Uiso   1.00
O113   O     0.50000   0.18573   0.29072   0.00000  Uiso   1.00
O114   O     0.50000   0.31428   0.20929   0.00000  Uiso   1.00
O115   O     0.50000   0.18573   0.20928   0.00000  Uiso   1.00
O116   O     0.50000   0.31427   0.29072   0.00000  Uiso   1.00
O117   O     0.42495   0.25000   0.28132   0.00000  Uiso   1.00
O118   O     0.57505   0.25001   0.21868   0.00000  Uiso   1.00
O119   O     0.42495   0.25000   0.19989   0.00000  Uiso   1.00
O120   O     0.57505   0.25000   0.30012   0.00000  Uiso   1.00
C121   C     0.55899   0.02285   0.32644   0.00000  Uiso   1.00
N122   N     0.58305   0.00346   0.35720   0.00000  Uiso   1.00
C123   C     0.56895   0.47898   0.19945   0.00000  Uiso   1.00
N124   N     0.59708   0.49924   0.17937   0.00000  Uiso   1.00
C125   C     0.56396   0.11707   0.32681   0.00000  Uiso   1.00
N126   N     0.59044   0.13585   0.35757   0.00000  Uiso   1.00
C127   C     0.57344   0.38475   0.20117   0.00000  Uiso   1.00
N128   N     0.60374   0.36681   0.18214   0.00000  Uiso   1.00
C129   C     0.43510   0.02578   0.16962   0.00000  Uiso   1.00
H130   H     0.41646   0.04589   0.14029   0.00000  Uiso   1.00
O131   O     0.42690   0.48588   0.16747   0.00000  Uiso   1.00
C132   C     0.42498   0.47131   0.30177   0.00000  Uiso   1.00
H133   H     0.40247   0.45045   0.32275   0.00000  Uiso   1.00
O134   O     0.41670   0.01090   0.30053   0.00000  Uiso   1.00
C135   C     0.59376   0.27760   0.04563   0.00000  Uiso   1.00
N136   N     0.63267   0.28781   0.03337   0.00000  Uiso   1.00
C137   C     0.46539   0.17045   0.46207   0.00000  Uiso   1.00
N138   N     0.45237   0.13746   0.47774   0.00000  Uiso   1.00
C139   C     0.41700   0.20620   0.11459   0.00000  Uiso   1.00
H140   H     0.42391   0.18697   0.14726   0.00000  Uiso   1.00
O141   O     0.37365   0.20519   0.09124   0.00000  Uiso   1.00
C142   C     0.55239   0.32042   0.38133   0.00000  Uiso   1.00
H143   H     0.57457   0.31438   0.35230   0.00000  Uiso   1.00
O144   O     0.55417   0.35749   0.39935   0.00000  Uiso   1.00
C145   C     0.83421   0.16505   0.25003   0.00000  Uiso   1.00
C146   C     0.83422   0.33489   0.25026   0.00000  Uiso   1.00
C147   C     0.87865   0.26481   0.06102   0.00000  Uiso   1.00
C148   C     0.81501   0.21154   0.44246   0.00000  Uiso   1.00
C149   C     0.87545   0.26660   0.11122   0.00000  Uiso   1.00
C150   C     0.81310   0.21427   0.39159   0.00000  Uiso   1.00
C151   C     0.79278   0.23176   0.09760   0.00000  Uiso   1.00
C152   C     0.85544   0.28436   0.39998   0.00000  Uiso   1.00
C153   C     0.79251   0.23373   0.04712   0.00000  Uiso   1.00
C154   C     0.85329   0.28456   0.45015   0.00000  Uiso   1.00
C155   C     0.83593   0.24866   0.02761   0.00000  Uiso   1.00
C156   C     0.83487   0.24774   0.47290   0.00000  Uiso   1.00
C157   C     0.73457   0.24998   0.23747   0.00000  Uiso   1.00
C158   C     0.93210   0.25009   0.26252   0.00000  Uiso   1.00
C159   C     0.67913   0.25002   0.23067   0.00000  Uiso   1.00
C160   C     0.98753   0.25011   0.26929   0.00000  Uiso   1.00
C161   C     0.86211   0.04711   0.28779   0.00000  Uiso   1.00
C162   C     0.86698   0.45361   0.22470   0.00000  Uiso   1.00
C163   C     0.86407   0.09352   0.28824   0.00000  Uiso   1.00
C164   C     0.86886   0.40728   0.22511   0.00000  Uiso   1.00
C165   C     0.83503   0.11668   0.25016   0.00000  Uiso   1.00
C166   C     0.83505   0.38312   0.25049   0.00000  Uiso   1.00
C167   C     0.80519   0.09359   0.21195   0.00000  Uiso   1.00
C168   C     0.80046   0.40495   0.27568   0.00000  Uiso   1.00
C169   C     0.80229   0.04747   0.21113   0.00000  Uiso   1.00
C170   C     0.79742   0.45094   0.27513   0.00000  Uiso   1.00
C171   C     0.83101   0.02411   0.24953   0.00000  Uiso   1.00
C172   C     0.83101   0.47542   0.24928   0.00000  Uiso   1.00
Cu173  Cu    0.83333   0.25000   0.29822   0.00000  Uiso   1.00
Cu174  Cu    0.83333   0.25001   0.20179   0.00000  Uiso   1.00
H175   H     0.99215   0.24996   0.19374   0.00000  Uiso   1.00
H176   H     0.67453   0.25017   0.30621   0.00000  Uiso   1.00
H177   H     0.78293   0.11183   0.18302   0.00000  Uiso   1.00
H178   H     0.77470   0.38571   0.29495   0.00000  Uiso   1.00
H179   H     0.90780   0.28009   0.13596   0.00000  Uiso   1.00
H180   H     0.79670   0.18686   0.36885   0.00000  Uiso   1.00
H181   H     0.75876   0.22179   0.02295   0.00000  Uiso   1.00
H182   H     0.86803   0.31317   0.47185   0.00000  Uiso   1.00
N183   N     0.83333   0.25001   0.12935   0.00000  Uiso   1.00
N184   N     0.83333   0.24999   0.37066   0.00000  Uiso   1.00
O185   O     0.83334   0.18573   0.29072   0.00000  Uiso   1.00
O186   O     0.83333   0.31428   0.20929   0.00000  Uiso   1.00
O187   O     0.83334   0.18573   0.20928   0.00000  Uiso   1.00
O188   O     0.83333   0.31427   0.29072   0.00000  Uiso   1.00
O189   O     0.75828   0.25000   0.28132   0.00000  Uiso   1.00
O190   O     0.90839   0.25001   0.21868   0.00000  Uiso   1.00
O191   O     0.75828   0.25000   0.19989   0.00000  Uiso   1.00
O192   O     0.90839   0.25000   0.30012   0.00000  Uiso   1.00
C193   C     0.89232   0.02285   0.32644   0.00000  Uiso   1.00
N194   N     0.91638   0.00346   0.35720   0.00000  Uiso   1.00
C195   C     0.90228   0.47898   0.19945   0.00000  Uiso   1.00
N196   N     0.93042   0.49924   0.17937   0.00000  Uiso   1.00
C197   C     0.89729   0.11707   0.32681   0.00000  Uiso   1.00
N198   N     0.92378   0.13585   0.35757   0.00000  Uiso   1.00
C199   C     0.90678   0.38475   0.20117   0.00000  Uiso   1.00
N200   N     0.93707   0.36681   0.18214   0.00000  Uiso   1.00
C201   C     0.76843   0.02578   0.16962   0.00000  Uiso   1.00
H202   H     0.74980   0.04589   0.14029   0.00000  Uiso   1.00
O203   O     0.76023   0.48588   0.16747   0.00000  Uiso   1.00
C204   C     0.75831   0.47131   0.30177   0.00000  Uiso   1.00
H205   H     0.73581   0.45045   0.32275   0.00000  Uiso   1.00
O206   O     0.75003   0.01090   0.30053   0.00000  Uiso   1.00
C207   C     0.92709   0.27760   0.04563   0.00000  Uiso   1.00
N208   N     0.96600   0.28781   0.03337   0.00000  Uiso   1.00
C209   C     0.79872   0.17045   0.46207   0.00000  Uiso   1.00
N210   N     0.78570   0.13746   0.47774   0.00000  Uiso   1.00
C211   C     0.75033   0.20620   0.11459   0.00000  Uiso   1.00
H212   H     0.75724   0.18697   0.14726   0.00000  Uiso   1.00
O213   O     0.70699   0.20519   0.09124   0.00000  Uiso   1.00
C214   C     0.88572   0.32042   0.38133   0.00000  Uiso   1.00
H215   H     0.90791   0.31438   0.35230   0.00000  Uiso   1.00
O216   O     0.88750   0.35749   0.39935   0.00000  Uiso   1.00
C217   C     0.16754   0.66505   0.25003   0.00000  Uiso   1.00
C218   C     0.16756   0.83489   0.25026   0.00000  Uiso   1.00
C219   C     0.21198   0.76481   0.06102   0.00000  Uiso   1.00
C220   C     0.14834   0.71154   0.44246   0.00000  Uiso   1.00
C221   C     0.20878   0.76660   0.11122   0.00000  Uiso   1.00
C222   C     0.14643   0.71427   0.39159   0.00000  Uiso   1.00
C223   C     0.12612   0.73176   0.09760   0.00000  Uiso   1.00
C224   C     0.18878   0.78436   0.39998   0.00000  Uiso   1.00
C225   C     0.12585   0.73373   0.04712   0.00000  Uiso   1.00
C226   C     0.18663   0.78456   0.45015   0.00000  Uiso   1.00
C227   C     0.16926   0.74866   0.02761   0.00000  Uiso   1.00
C228   C     0.16820   0.74774   0.47290   0.00000  Uiso   1.00
C229   C     0.06790   0.74998   0.23747   0.00000  Uiso   1.00
C230   C     0.26543   0.75009   0.26252   0.00000  Uiso   1.00
C231   C     0.01247   0.75002   0.23067   0.00000  Uiso   1.00
C232   C     0.32086   0.75011   0.26929   0.00000  Uiso   1.00
C233   C     0.19544   0.54711   0.28779   0.00000  Uiso   1.00
C234   C     0.20031   0.95361   0.22470   0.00000  Uiso   1.00
C235   C     0.19740   0.59352   0.28824   0.00000  Uiso   1.00
C236   C     0.20219   0.90728   0.22511   0.00000  Uiso   1.00
C237   C     0.16836   0.61668   0.25016   0.00000  Uiso   1.00
C238   C     0.16839   0.88312   0.25049   0.00000  Uiso   1.00
C239   C     0.13852   0.59359   0.21195   0.00000  Uiso   1.00
C240   C     0.13379   0.90495   0.27568   0.00000  Uiso   1.00
C241   C     0.13562   0.54747   0.21113   0.00000  Uiso   1.00
C242   C     0.13075   0.95094   0.27513   0.00000  Uiso   1.00
C243   C     0.16434   0.52411   0.24953   0.00000  Uiso   1.00
C244   C     0.16434   0.97542   0.24928   0.00000  Uiso   1.00
Cu245  Cu    0.16667   0.75000   0.29822   0.00000  Uiso   1.00
Cu246  Cu    0.16667   0.75001   0.20179   0.00000  Uiso   1.00
H247   H     0.32548   0.74996   0.19374   0.00000  Uiso   1.00
H248   H     0.00786   0.75017   0.30621   0.00000  Uiso   1.00
H249   H     0.11627   0.61183   0.18302   0.00000  Uiso   1.00
H250   H     0.10803   0.88571   0.29495   0.00000  Uiso   1.00
H251   H     0.24114   0.78009   0.13596   0.00000  Uiso   1.00
H252   H     0.13003   0.68686   0.36885   0.00000  Uiso   1.00
H253   H     0.09210   0.72179   0.02295   0.00000  Uiso   1.00
H254   H     0.20136   0.81317   0.47185   0.00000  Uiso   1.00
N255   N     0.16667   0.75001   0.12935   0.00000  Uiso   1.00
N256   N     0.16667   0.74999   0.37066   0.00000  Uiso   1.00
O257   O     0.16667   0.68573   0.29072   0.00000  Uiso   1.00
O258   O     0.16666   0.81428   0.20929   0.00000  Uiso   1.00
O259   O     0.16667   0.68573   0.20928   0.00000  Uiso   1.00
O260   O     0.16666   0.81427   0.29072   0.00000  Uiso   1.00
O261   O     0.09161   0.75000   0.28132   0.00000  Uiso   1.00
O262   O     0.24172   0.75001   0.21868   0.00000  Uiso   1.00
O263   O     0.09161   0.75000   0.19989   0.00000  Uiso   1.00
O264   O     0.24172   0.75000   0.30012   0.00000  Uiso   1.00
C265   C     0.22566   0.52285   0.32644   0.00000  Uiso   1.00
N266   N     0.24972   0.50346   0.35720   0.00000  Uiso   1.00
C267   C     0.23561   0.97898   0.19945   0.00000  Uiso   1.00
N268   N     0.26375   0.99924   0.17937   0.00000  Uiso   1.00
C269   C     0.23062   0.61707   0.32681   0.00000  Uiso   1.00
N270   N     0.25711   0.63585   0.35757   0.00000  Uiso   1.00
C271   C     0.24011   0.88475   0.20117   0.00000  Uiso   1.00
N272   N     0.27040   0.86681   0.18214   0.00000  Uiso   1.00
C273   C     0.10176   0.52578   0.16962   0.00000  Uiso   1.00
H274   H     0.08313   0.54589   0.14029   0.00000  Uiso   1.00
O275   O     0.09357   0.98588   0.16747   0.00000  Uiso   1.00
C276   C     0.09165   0.97131   0.30177   0.00000  Uiso   1.00
H277   H     0.06914   0.95045   0.32275   0.00000  Uiso   1.00
O278   O     0.08336   0.51090   0.30053   0.00000  Uiso   1.00
C279   C     0.26043   0.77760   0.04563   0.00000  Uiso   1.00
N280   N     0.29934   0.78781   0.03337   0.00000  Uiso   1.00
C281   C     0.13206   0.67045   0.46207   0.00000  Uiso   1.00
N282   N     0.11903   0.63746   0.47774   0.00000  Uiso   1.00
C283   C     0.08367   0.70620   0.11459   0.00000  Uiso   1.00
H284   H     0.09058   0.68697   0.14726   0.00000  Uiso   1.00
O285   O     0.04032   0.70519   0.09124   0.00000  Uiso   1.00
C286   C     0.21905   0.82042   0.38133   0.00000  Uiso   1.00
H287   H     0.24124   0.81438   0.35230   0.00000  Uiso   1.00
O288   O     0.22084   0.85749   0.39935   0.00000  Uiso   1.00
C289   C     0.50088   0.66505   0.25003   0.00000  Uiso   1.00
C290   C     0.50089   0.83489   0.25026   0.00000  Uiso   1.00
C291   C     0.54531   0.76481   0.06102   0.00000  Uiso   1.00
C292   C     0.48167   0.71154   0.44246   0.00000  Uiso   1.00
C293   C     0.54212   0.76660   0.11122   0.00000  Uiso   1.00
C294   C     0.47977   0.71427   0.39159   0.00000  Uiso   1.00
C295   C     0.45945   0.73176   0.09760   0.00000  Uiso   1.00
C296   C     0.52211   0.78436   0.39998   0.00000  Uiso   1.00
C297   C     0.45918   0.73373   0.04712   0.00000  Uiso   1.00
C298   C     0.51996   0.78456   0.45015   0.00000  Uiso   1.00
C299   C     0.50260   0.74866   0.02761   0.00000  Uiso   1.00
C300   C     0.50153   0.74774   0.47290   0.00000  Uiso   1.00
C301   C     0.40123   0.74998   0.23747   0.00000  Uiso   1.00
C302   C     0.59877   0.75009   0.26252   0.00000  Uiso   1.00
C303   C     0.34580   0.75002   0.23067   0.00000  Uiso   1.00
C304   C     0.65419   0.75011   0.26929   0.00000  Uiso   1.00
C305   C     0.52878   0.54711   0.28779   0.00000  Uiso   1.00
C306   C     0.53365   0.95361   0.22470   0.00000  Uiso   1.00
C307   C     0.53074   0.59352   0.28824   0.00000  Uiso   1.00
C308   C     0.53553   0.90728   0.22511   0.00000  Uiso   1.00
C309   C     0.50170   0.61668   0.25016   0.00000  Uiso   1.00
C310   C     0.50172   0.88312   0.25049   0.00000  Uiso   1.00
C311   C     0.47185   0.59359   0.21195   0.00000  Uiso   1.00
C312   C     0.46712   0.90495   0.27568   0.00000  Uiso   1.00
C313   C     0.46896   0.54747   0.21113   0.00000  Uiso   1.00
C314   C     0.46409   0.95094   0.27513   0.00000  Uiso   1.00
C315   C     0.49768   0.52411   0.24953   0.00000  Uiso   1.00
C316   C     0.49768   0.97542   0.24928   0.00000  Uiso   1.00
Cu317  Cu    0.50000   0.75000   0.29822   0.00000  Uiso   1.00
Cu318  Cu    0.50000   0.75001   0.20179   0.00000  Uiso   1.00
H319   H     0.65882   0.74996   0.19374   0.00000  Uiso   1.00
H320   H     0.34120   0.75017   0.30621   0.00000  Uiso   1.00
H321   H     0.44960   0.61183   0.18302   0.00000  Uiso   1.00
H322   H     0.44136   0.88571   0.29495   0.00000  Uiso   1.00
H323   H     0.57447   0.78009   0.13596   0.00000  Uiso   1.00
H324   H     0.46337   0.68686   0.36885   0.00000  Uiso   1.00
H325   H     0.42543   0.72179   0.02295   0.00000  Uiso   1.00
H326   H     0.53469   0.81317   0.47185   0.00000  Uiso   1.00
N327   N     0.50000   0.75001   0.12935   0.00000  Uiso   1.00
N328   N     0.50000   0.74999   0.37066   0.00000  Uiso   1.00
O329   O     0.50000   0.68573   0.29072   0.00000  Uiso   1.00
O330   O     0.50000   0.81428   0.20929   0.00000  Uiso   1.00
O331   O     0.50000   0.68573   0.20928   0.00000  Uiso   1.00
O332   O     0.50000   0.81427   0.29072   0.00000  Uiso   1.00
O333   O     0.42495   0.75000   0.28132   0.00000  Uiso   1.00
O334   O     0.57505   0.75001   0.21868   0.00000  Uiso   1.00
O335   O     0.42495   0.75000   0.19989   0.00000  Uiso   1.00
O336   O     0.57505   0.75000   0.30012   0.00000  Uiso   1.00
C337   C     0.55899   0.52285   0.32644   0.00000  Uiso   1.00
N338   N     0.58305   0.50346   0.35720   0.00000  Uiso   1.00
C339   C     0.56895   0.97898   0.19945   0.00000  Uiso   1.00
N340   N     0.59708   0.99924   0.17937   0.00000  Uiso   1.00
C341   C     0.56396   0.61707   0.32681   0.00000  Uiso   1.00
N342   N     0.59044   0.63585   0.35757   0.00000  Uiso   1.00
C343   C     0.57344   0.88475   0.20117   0.00000  Uiso   1.00
N344   N     0.60374   0.86681   0.18214   0.00000  Uiso   1.00
C345   C     0.43510   0.52578   0.16962   0.00000  Uiso   1.00
H346   H     0.41646   0.54589   0.14029   0.00000  Uiso   1.00
O347   O     0.42690   0.98588   0.16747   0.00000  Uiso   1.00
C348   C     0.42498   0.97131   0.30177   0.00000  Uiso   1.00
H349   H     0.40247   0.95045   0.32275   0.00000  Uiso   1.00
O350   O     0.41670   0.51090   0.30053   0.00000  Uiso   1.00
C351   C     0.59376   0.77760   0.04563   0.00000  Uiso   1.00
N352   N     0.63267   0.78781   0.03337   0.00000  Uiso   1.00
C353   C     0.46539   0.67045   0.46207   0.00000  Uiso   1.00
N354   N     0.45237   0.63746   0.47774   0.00000  Uiso   1.00
C355   C     0.41700   0.70620   0.11459   0.00000  Uiso   1.00
H356   H     0.42391   0.68697   0.14726   0.00000  Uiso   1.00
O357   O     0.37365   0.70519   0.09124   0.00000  Uiso   1.00
C358   C     0.55239   0.82042   0.38133   0.00000  Uiso   1.00
H359   H     0.57457   0.81438   0.35230   0.00000  Uiso   1.00
O360   O     0.55417   0.85749   0.39935   0.00000  Uiso   1.00
C361   C     0.83421   0.66505   0.25003   0.00000  Uiso   1.00
C362   C     0.83422   0.83489   0.25026   0.00000  Uiso   1.00
C363   C     0.87865   0.76481   0.06102   0.00000  Uiso   1.00
C364   C     0.81501   0.71154   0.44246   0.00000  Uiso   1.00
C365   C     0.87545   0.76660   0.11122   0.00000  Uiso   1.00
C366   C     0.81310   0.71427   0.39159   0.00000  Uiso   1.00
C367   C     0.79278   0.73176   0.09760   0.00000  Uiso   1.00
C368   C     0.85544   0.78436   0.39998   0.00000  Uiso   1.00
C369   C     0.79251   0.73373   0.04712   0.00000  Uiso   1.00
C370   C     0.85329   0.78456   0.45015   0.00000  Uiso   1.00
C371   C     0.83593   0.74866   0.02761   0.00000  Uiso   1.00
C372   C     0.83487   0.74774   0.47290   0.00000  Uiso   1.00
C373   C     0.73457   0.74998   0.23747   0.00000  Uiso   1.00
C374   C     0.93210   0.75009   0.26252   0.00000  Uiso   1.00
C375   C     0.67913   0.75002   0.23067   0.00000  Uiso   1.00
C376   C     0.98753   0.75011   0.26929   0.00000  Uiso   1.00
C377   C     0.86211   0.54711   0.28779   0.00000  Uiso   1.00
C378   C     0.86698   0.95361   0.22470   0.00000  Uiso   1.00
C379   C     0.86407   0.59352   0.28824   0.00000  Uiso   1.00
C380   C     0.86886   0.90728   0.22511   0.00000  Uiso   1.00
C381   C     0.83503   0.61668   0.25016   0.00000  Uiso   1.00
C382   C     0.83505   0.88312   0.25049   0.00000  Uiso   1.00
C383   C     0.80519   0.59359   0.21195   0.00000  Uiso   1.00
C384   C     0.80046   0.90495   0.27568   0.00000  Uiso   1.00
C385   C     0.80229   0.54747   0.21113   0.00000  Uiso   1.00
C386   C     0.79742   0.95094   0.27513   0.00000  Uiso   1.00
C387   C     0.83101   0.52411   0.24953   0.00000  Uiso   1.00
C388   C     0.83101   0.97542   0.24928   0.00000  Uiso   1.00
Cu389  Cu    0.83333   0.75000   0.29822   0.00000  Uiso   1.00
Cu390  Cu    0.83333   0.75001   0.20179   0.00000  Uiso   1.00
H391   H     0.99215   0.74996   0.19374   0.00000  Uiso   1.00
H392   H     0.67453   0.75017   0.30621   0.00000  Uiso   1.00
H393   H     0.78293   0.61183   0.18302   0.00000  Uiso   1.00
H394   H     0.77470   0.88571   0.29495   0.00000  Uiso   1.00
H395   H     0.90780   0.78009   0.13596   0.00000  Uiso   1.00
H396   H     0.79670   0.68686   0.36885   0.00000  Uiso   1.00
H397   H     0.75876   0.72179   0.02295   0.00000  Uiso   1.00
H398   H     0.86803   0.81317   0.47185   0.00000  Uiso   1.00
N399   N     0.83333   0.75001   0.12935   0.00000  Uiso   1.00
N400   N     0.83333   0.74999   0.37066   0.00000  Uiso   1.00
O401   O     0.83334   0.68573   0.29072   0.00000  Uiso   1.00
O402   O     0.83333   0.81428   0.20929   0.00000  Uiso   1.00
O403   O     0.83334   0.68573   0.20928   0.00000  Uiso   1.00
O404   O     0.83333   0.81427   0.29072   0.00000  Uiso   1.00
O405   O     0.75828   0.75000   0.28132   0.00000  Uiso   1.00
O406   O     0.90839   0.75001   0.21868   0.00000  Uiso   1.00
O407   O     0.75828   0.75000   0.19989   0.00000  Uiso   1.00
O408   O     0.90839   0.75000   0.30012   0.00000  Uiso   1.00
C409   C     0.89232   0.52285   0.32644   0.00000  Uiso   1.00
N410   N     0.91638   0.50346   0.35720   0.00000  Uiso   1.00
C411   C     0.90228   0.97898   0.19945   0.00000  Uiso   1.00
N412   N     0.93042   0.99924   0.17937   0.00000  Uiso   1.00
C413   C     0.89729   0.61707   0.32681   0.00000  Uiso   1.00
N414   N     0.92378   0.63585   0.35757   0.00000  Uiso   1.00
C415   C     0.90678   0.88475   0.20117   0.00000  Uiso   1.00
N416   N     0.93707   0.86681   0.18214   0.00000  Uiso   1.00
C417   C     0.76843   0.52578   0.16962   0.00000  Uiso   1.00
H418   H     0.74980   0.54589   0.14029   0.00000  Uiso   1.00
O419   O     0.76023   0.98588   0.16747   0.00000  Uiso   1.00
C420   C     0.75831   0.97131   0.30177   0.00000  Uiso   1.00
H421   H     0.73581   0.95045   0.32275   0.00000  Uiso   1.00
O422   O     0.75003   0.51090   0.30053   0.00000  Uiso   1.00
C423   C     0.92709   0.77760   0.04563   0.00000  Uiso   1.00
N424   N     0.96600   0.78781   0.03337   0.00000  Uiso   1.00
C425   C     0.79872   0.67045   0.46207   0.00000  Uiso   1.00
N426   N     0.78570   0.63746   0.47774   0.00000  Uiso   1.00
C427   C     0.75033   0.70620   0.11459   0.00000  Uiso   1.00
H428   H     0.75724   0.68697   0.14726   0.00000  Uiso   1.00
O429   O     0.70699   0.70519   0.09124   0.00000  Uiso   1.00
C430   C     0.88572   0.82042   0.38133   0.00000  Uiso   1.00
H431   H     0.90791   0.81438   0.35230   0.00000  Uiso   1.00
O432   O     0.88750   0.85749   0.39935   0.00000  Uiso   1.00
C433   C     0.16754   0.16505   0.75003   0.00000  Uiso   1.00
C434   C     0.16756   0.33489   0.75026   0.00000  Uiso   1.00
C435   C     0.21198   0.26481   0.56102   0.00000  Uiso   1.00
C436   C     0.14834   0.21154   0.94246   0.00000  Uiso   1.00
C437   C     0.20878   0.26660   0.61122   0.00000  Uiso   1.00
C438   C     0.14643   0.21427   0.89159   0.00000  Uiso   1.00
C439   C     0.12612   0.23176   0.59760   0.00000  Uiso   1.00
C440   C     0.18878   0.28436   0.89998   0.00000  Uiso   1.00
C441   C     0.12585   0.23373   0.54712   0.00000  Uiso   1.00
C442   C     0.18663   0.28456   0.95015   0.00000  Uiso   1.00
C443   C     0.16926   0.24866   0.52761   0.00000  Uiso   1.00
C444   C     0.16820   0.24774   0.97290   0.00000  Uiso   1.00
C445   C     0.06790   0.24998   0.73747   0.00000  Uiso   1.00
C446   C     0.26543   0.25009   0.76252   0.00000  Uiso   1.00
C447   C     0.01247   0.25002   0.73067   0.00000  Uiso   1.00
C448   C     0.32086   0.25011   0.76929   0.00000  Uiso   1.00
C449   C     0.19544   0.04711   0.78779   0.00000  Uiso   1.00
C450   C     0.20031   0.45361   0.72470   0.00000  Uiso   1.00
C451   C     0.19740   0.09352   0.78824   0.00000  Uiso   1.00
C452   C     0.20219   0.40728   0.72511   0.00000  Uiso   1.00
C453   C     0.16836   0.11668   0.75016   0.00000  Uiso   1.00
C454   C     0.16839   0.38312   0.75049   0.00000  Uiso   1.00
C455   C     0.13852   0.09359   0.71195   0.00000  Uiso   1.00
C456   C     0.13379   0.40495   0.77568   0.00000  Uiso   1.00
C457   C     0.13562   0.04747   0.71113   0.00000  Uiso   1.00
C458   C     0.13075   0.45094   0.77513   0.00000  Uiso   1.00
C459   C     0.16434   0.02411   0.74953   0.00000  Uiso   1.00
C460   C     0.16434   0.47542   0.74928   0.00000  Uiso   1.00
Cu461  Cu    0.16667   0.25000   0.79822   0.00000  Uiso   1.00
Cu462  Cu    0.16667   0.25001   0.70179   0.00000  Uiso   1.00
H463   H     0.32548   0.24996   0.69374   0.00000  Uiso   1.00
H464   H     0.00786   0.25017   0.80621   0.00000  Uiso   1.00
H465   H     0.11627   0.11183   0.68302   0.00000  Uiso   1.00
H466   H     0.10803   0.38571   0.79495   0.00000  Uiso   1.00
H467   H     0.24114   0.28009   0.63596   0.00000  Uiso   1.00
H468   H     0.13003   0.18686   0.86885   0.00000  Uiso   1.00
H469   H     0.09210   0.22179   0.52295   0.00000  Uiso   1.00
H470   H     0.20136   0.31317   0.97185   0.00000  Uiso   1.00
N471   N     0.16667   0.25001   0.62935   0.00000  Uiso   1.00
N472   N     0.16667   0.24999   0.87066   0.00000  Uiso   1.00
O473   O     0.16667   0.18573   0.79072   0.00000  Uiso   1.00
O474   O     0.16666   0.31428   0.70929   0.00000  Uiso   1.00
O475   O     0.16667   0.18573   0.70928   0.00000  Uiso   1.00
O476   O     0.16666   0.31427   0.79072   0.00000  Uiso   1.00
O477   O     0.09161   0.25000   0.78132   0.00000  Uiso   1.00
O478   O     0.24172   0.25001   0.71868   0.00000  Uiso   1.00
O479   O     0.09161   0.25000   0.69989   0.00000  Uiso   1.00
O480   O     0.24172   0.25000   0.80012   0.00000  Uiso   1.00
C481   C     0.22566   0.02285   0.82644   0.00000  Uiso   1.00
N482   N     0.24972   0.00346   0.85720   0.00000  Uiso   1.00
C483   C     0.23561   0.47898   0.69945   0.00000  Uiso   1.00
N484   N     0.26375   0.49924   0.67937   0.00000  Uiso   1.00
C485   C     0.23062   0.11707   0.82681   0.00000  Uiso   1.00
N486   N     0.25711   0.13585   0.85757   0.00000  Uiso   1.00
C487   C     0.24011   0.38475   0.70117   0.00000  Uiso   1.00
N488   N     0.27040   0.36681   0.68214   0.00000  Uiso   1.00
C489   C     0.10176   0.02578   0.66962   0.00000  Uiso   1.00
H490   H     0.08313   0.04589   0.64029   0.00000  Uiso   1.00
O491   O     0.09357   0.48588   0.66747   0.00000  Uiso   1.00
C492   C     0.09165   0.47131   0.80177   0.00000  Uiso   1.00
H493   H     0.06914   0.45045   0.82275   0.00000  Uiso   1.00
O494   O     0.08336   0.01090   0.80053   0.00000  Uiso   1.00
C495   C     0.26043   0.27760   0.54563   0.00000  Uiso   1.00
N496   N     0.29934   0.28781   0.53337   0.00000  Uiso   1.00
C497   C     0.13206   0.17045   0.96207   0.00000  Uiso   1.00
N498   N     0.11903   0.13746   0.97774   0.00000  Uiso   1.00
C499   C     0.08367   0.20620   0.61459   0.00000  Uiso   1.00
H500   H     0.09058   0.18697   0.64726   0.00000  Uiso   1.00
O501   O     0.04032   0.20519   0.59124   0.00000  Uiso   1.00
C502   C     0.21905   0.32042   0.88133   0.00000  Uiso   1.00
H503   H     0.24124   0.31438   0.85230   0.00000  Uiso   1.00
O504   O     0.22084   0.35749   0.89935   0.00000  Uiso   1.00
C505   C     0.50088   0.16505   0.75003   0.00000  Uiso   1.00
C506   C     0.50089   0.33489   0.75026   0.00000  Uiso   1.00
C507   C     0.54531   0.26481   0.56102   0.00000  Uiso   1.00
C508   C     0.48167   0.21154   0.94246   0.00000  Uiso   1.00
C509   C     0.54212   0.26660   0.61122   0.00000  Uiso   1.00
C510   C     0.47977   0.21427   0.89159   0.00000  Uiso   1.00
C511   C     0.45945   0.23176   0.59760   0.00000  Uiso   1.00
C512   C     0.52211   0.28436   0.89998   0.00000  Uiso   1.00
C513   C     0.45918   0.23373   0.54712   0.00000  Uiso   1.00
C514   C     0.51996   0.28456   0.95015   0.00000  Uiso   1.00
C515   C     0.50260   0.24866   0.52761   0.00000  Uiso   1.00
C516   C     0.50153   0.24774   0.97290   0.00000  Uiso   1.00
C517   C     0.40123   0.24998   0.73747   0.00000  Uiso   1.00
C518   C     0.59877   0.25009   0.76252   0.00000  Uiso   1.00
C519   C     0.34580   0.25002   0.73067   0.00000  Uiso   1.00
C520   C     0.65419   0.25011   0.76929   0.00000  Uiso   1.00
C521   C     0.52878   0.04711   0.78779   0.00000  Uiso   1.00
C522   C     0.53365   0.45361   0.72470   0.00000  Uiso   1.00
C523   C     0.53074   0.09352   0.78824   0.00000  Uiso   1.00
C524   C     0.53553   0.40728   0.72511   0.00000  Uiso   1.00
C525   C     0.50170   0.11668   0.75016   0.00000  Uiso   1.00
C526   C     0.50172   0.38312   0.75049   0.00000  Uiso   1.00
C527   C     0.47185   0.09359   0.71195   0.00000  Uiso   1.00
C528   C     0.46712   0.40495   0.77568   0.00000  Uiso   1.00
C529   C     0.46896   0.04747   0.71113   0.00000  Uiso   1.00
C530   C     0.46409   0.45094   0.77513   0.00000  Uiso   1.00
C531   C     0.49768   0.02411   0.74953   0.00000  Uiso   1.00
C532   C     0.49768   0.47542   0.74928   0.00000  Uiso   1.00
Cu533  Cu    0.50000   0.25000   0.79822   0.00000  Uiso   1.00
Cu534  Cu    0.50000   0.25001   0.70179   0.00000  Uiso   1.00
H535   H     0.65882   0.24996   0.69374   0.00000  Uiso   1.00
H536   H     0.34120   0.25017   0.80621   0.00000  Uiso   1.00
H537   H     0.44960   0.11183   0.68302   0.00000  Uiso   1.00
H538   H     0.44136   0.38571   0.79495   0.00000  Uiso   1.00
H539   H     0.57447   0.28009   0.63596   0.00000  Uiso   1.00
H540   H     0.46337   0.18686   0.86885   0.00000  Uiso   1.00
H541   H     0.42543   0.22179   0.52295   0.00000  Uiso   1.00
H542   H     0.53469   0.31317   0.97185   0.00000  Uiso   1.00
N543   N     0.50000   0.25001   0.62935   0.00000  Uiso   1.00
N544   N     0.50000   0.24999   0.87066   0.00000  Uiso   1.00
O545   O     0.50000   0.18573   0.79072   0.00000  Uiso   1.00
O546   O     0.50000   0.31428   0.70929   0.00000  Uiso   1.00
O547   O     0.50000   0.18573   0.70928   0.00000  Uiso   1.00
O548   O     0.50000   0.31427   0.79072   0.00000  Uiso   1.00
O549   O     0.42495   0.25000   0.78132   0.00000  Uiso   1.00
O550   O     0.57505   0.25001   0.71868   0.00000  Uiso   1.00
O551   O     0.42495   0.25000   0.69989   0.00000  Uiso   1.00
O552   O     0.57505   0.25000   0.80012   0.00000  Uiso   1.00
C553   C     0.55899   0.02285   0.82644   0.00000  Uiso   1.00
N554   N     0.58305   0.00346   0.85720   0.00000  Uiso   1.00
C555   C     0.56895   0.47898   0.69945   0.00000  Uiso   1.00
N556   N     0.59708   0.49924   0.67937   0.00000  Uiso   1.00
C557   C     0.56396   0.11707   0.82681   0.00000  Uiso   1.00
N558   N     0.59044   0.13585   0.85757   0.00000  Uiso   1.00
C559   C     0.57344   0.38475   0.70117   0.00000  Uiso   1.00
N560   N     0.60374   0.36681   0.68214   0.00000  Uiso   1.00
C561   C     0.43510   0.02578   0.66962   0.00000  Uiso   1.00
H562   H     0.41646   0.04589   0.64029   0.00000  Uiso   1.00
O563   O     0.42690   0.48588   0.66747   0.00000  Uiso   1.00
C564   C     0.42498   0.47131   0.80177   0.00000  Uiso   1.00
H565   H     0.40247   0.45045   0.82275   0.00000  Uiso   1.00
O566   O     0.41670   0.01090   0.80053   0.00000  Uiso   1.00
C567   C     0.59376   0.27760   0.54563   0.00000  Uiso   1.00
N568   N     0.63267   0.28781   0.53337   0.00000  Uiso   1.00
C569   C     0.46539   0.17045   0.96207   0.00000  Uiso   1.00
N570   N     0.45237   0.13746   0.97774   0.00000  Uiso   1.00
C571   C     0.41700   0.20620   0.61459   0.00000  Uiso   1.00
H572   H     0.42391   0.18697   0.64726   0.00000  Uiso   1.00
O573   O     0.37365   0.20519   0.59124   0.00000  Uiso   1.00
C574   C     0.55239   0.32042   0.88133   0.00000  Uiso   1.00
H575   H     0.57457   0.31438   0.85230   0.00000  Uiso   1.00
O576   O     0.55417   0.35749   0.89935   0.00000  Uiso   1.00
C577   C     0.83421   0.16505   0.75003   0.00000  Uiso   1.00
C578   C     0.83422   0.33489   0.75026   0.00000  Uiso   1.00
C579   C     0.87865   0.26481   0.56102   0.00000  Uiso   1.00
C580   C     0.81501   0.21154   0.94246   0.00000  Uiso   1.00
C581   C     0.87545   0.26660   0.61122   0.00000  Uiso   1.00
C582   C     0.81310   0.21427   0.89159   0.00000  Uiso   1.00
C583   C     0.79278   0.23176   0.59760   0.00000  Uiso   1.00
C584   C     0.85544   0.28436   0.89998   0.00000  Uiso   1.00
C585   C     0.79251   0.23373   0.54712   0.00000  Uiso   1.00
C586   C     0.85329   0.28456   0.95015   0.00000  Uiso   1.00
C587   C     0.83593   0.24866   0.52761   0.00000  Uiso   1.00
C588   C     0.83487   0.24774   0.97290   0.00000  Uiso   1.00
C589   C     0.73457   0.24998   0.73747   0.00000  Uiso   1.00
C590   C     0.93210   0.25009   0.76252   0.00000  Uiso   1.00
C591   C     0.67913   0.25002   0.73067   0.00000  Uiso   1.00
C592   C     0.98753   0.25011   0.76929   0.00000  Uiso   1.00
C593   C     0.86211   0.04711   0.78779   0.00000  Uiso   1.00
C594   C     0.86698   0.45361   0.72470   0.00000  Uiso   1.00
C595   C     0.86407   0.09352   0.78824   0.00000  Uiso   1.00
C596   C     0.86886   0.40728   0.72511   0.00000  Uiso   1.00
C597   C     0.83503   0.11668   0.75016   0.00000  Uiso   1.00
C598   C     0.83505   0.38312   0.75049   0.00000  Uiso   1.00
C599   C     0.80519   0.09359   0.71195   0.00000  Uiso   1.00
C600   C     0.80046   0.40495   0.77568   0.00000  Uiso   1.00
C601   C     0.80229   0.04747   0.71113   0.00000  Uiso   1.00
C602   C     0.79742   0.45094   0.77513   0.00000  Uiso   1.00
C603   C     0.83101   0.02411   0.74953   0.00000  Uiso   1.00
C604   C     0.83101   0.47542   0.74928   0.00000  Uiso   1.00
Cu605  Cu    0.83333   0.25000   0.79822   0.00000  Uiso   1.00
Cu606  Cu    0.83333   0.25001   0.70179   0.00000  Uiso   1.00
H607   H     0.99215   0.24996   0.69374   0.00000  Uiso   1.00
H608   H     0.67453   0.25017   0.80621   0.00000  Uiso   1.00
H609   H     0.78293   0.11183   0.68302   0.00000  Uiso   1.00
H610   H     0.77470   0.38571   0.79495   0.00000  Uiso   1.00
H611   H     0.90780   0.28009   0.63596   0.00000  Uiso   1.00
H612   H     0.79670   0.18686   0.86885   0.00000  Uiso   1.00
H613   H     0.75876   0.22179   0.52295   0.00000  Uiso   1.00
H614   H     0.86803   0.31317   0.97185   0.00000  Uiso   1.00
N615   N     0.83333   0.25001   0.62935   0.00000  Uiso   1.00
N616   N     0.83333   0.24999   0.87066   0.00000  Uiso   1.00
O617   O     0.83334   0.18573   0.79072   0.00000  Uiso   1.00
O618   O     0.83333   0.31428   0.70929   0.00000  Uiso   1.00
O619   O     0.83334   0.18573   0.70928   0.00000  Uiso   1.00
O620   O     0.83333   0.31427   0.79072   0.00000  Uiso   1.00
O621   O     0.75828   0.25000   0.78132   0.00000  Uiso   1.00
O622   O     0.90839   0.25001   0.71868   0.00000  Uiso   1.00
O623   O     0.75828   0.25000   0.69989   0.00000  Uiso   1.00
O624   O     0.90839   0.25000   0.80012   0.00000  Uiso   1.00
C625   C     0.89232   0.02285   0.82644   0.00000  Uiso   1.00
N626   N     0.91638   0.00346   0.85720   0.00000  Uiso   1.00
C627   C     0.90228   0.47898   0.69945   0.00000  Uiso   1.00
N628   N     0.93042   0.49924   0.67937   0.00000  Uiso   1.00
C629   C     0.89729   0.11707   0.82681   0.00000  Uiso   1.00
N630   N     0.92378   0.13585   0.85757   0.00000  Uiso   1.00
C631   C     0.90678   0.38475   0.70117   0.00000  Uiso   1.00
N632   N     0.93707   0.36681   0.68214   0.00000  Uiso   1.00
C633   C     0.76843   0.02578   0.66962   0.00000  Uiso   1.00
H634   H     0.74980   0.04589   0.64029   0.00000  Uiso   1.00
O635   O     0.76023   0.48588   0.66747   0.00000  Uiso   1.00
C636   C     0.75831   0.47131   0.80177   0.00000  Uiso   1.00
H637   H     0.73581   0.45045   0.82275   0.00000  Uiso   1.00
O638   O     0.75003   0.01090   0.80053   0.00000  Uiso   1.00
C639   C     0.92709   0.27760   0.54563   0.00000  Uiso   1.00
N640   N     0.96600   0.28781   0.53337   0.00000  Uiso   1.00
C641   C     0.79872   0.17045   0.96207   0.00000  Uiso   1.00
N642   N     0.78570   0.13746   0.97774   0.00000  Uiso   1.00
C643   C     0.75033   0.20620   0.61459   0.00000  Uiso   1.00
H644   H     0.75724   0.18697   0.64726   0.00000  Uiso   1.00
O645   O     0.70699   0.20519   0.59124   0.00000  Uiso   1.00
C646   C     0.88572   0.32042   0.88133   0.00000  Uiso   1.00
H647   H     0.90791   0.31438   0.85230   0.00000  Uiso   1.00
O648   O     0.88750   0.35749   0.89935   0.00000  Uiso   1.00
C649   C     0.16754   0.66505   0.75003   0.00000  Uiso   1.00
C650   C     0.16756   0.83489   0.75026   0.00000  Uiso   1.00
C651   C     0.21198   0.76481   0.56102   0.00000  Uiso   1.00
C652   C     0.14834   0.71154   0.94246   0.00000  Uiso   1.00
C653   C     0.20878   0.76660   0.61122   0.00000  Uiso   1.00
C654   C     0.14643   0.71427   0.89159   0.00000  Uiso   1.00
C655   C     0.12612   0.73176   0.59760   0.00000  Uiso   1.00
C656   C     0.18878   0.78436   0.89998   0.00000  Uiso   1.00
C657   C     0.12585   0.73373   0.54712   0.00000  Uiso   1.00
C658   C     0.18663   0.78456   0.95015   0.00000  Uiso   1.00
C659   C     0.16926   0.74866   0.52761   0.00000  Uiso   1.00
C660   C     0.16820   0.74774   0.97290   0.00000  Uiso   1.00
C661   C     0.06790   0.74998   0.73747   0.00000  Uiso   1.00
C662   C     0.26543   0.75009   0.76252   0.00000  Uiso   1.00
C663   C     0.01247   0.75002   0.73067   0.00000  Uiso   1.00
C664   C     0.32086   0.75011   0.76929   0.00000  Uiso   1.00
C665   C     0.19544   0.54711   0.78779   0.00000  Uiso   1.00
C666   C     0.20031   0.95361   0.72470   0.00000  Uiso   1.00
C667   C     0.19740   0.59352   0.78824   0.00000  Uiso   1.00
C668   C     0.20219   0.90728   0.72511   0.00000  Uiso   1.00
C669   C     0.16836   0.61668   0.75016   0.00000  Uiso   1.00
C670   C     0.16839   0.88312   0.75049   0.00000  Uiso   1.00
C671   C     0.13852   0.59359   0.71195   0.00000  Uiso   1.00
C672   C     0.13379   0.90495   0.77568   0.00000  Uiso   1.00
C673   C     0.13562   0.54747   0.71113   0.00000  Uiso   1.00
C674   C     0.13075   0.95094   0.77513   0.00000  Uiso   1.00
C675   C     0.16434   0.52411   0.74953   0.00000  Uiso   1.00
C676   C     0.16434   0.97542   0.74928   0.00000  Uiso   1.00
Cu677  Cu    0.16667   0.75000   0.79822   0.00000  Uiso   1.00
Cu678  Cu    0.16667   0.75001   0.70179   0.00000  Uiso   1.00
H679   H     0.32548   0.74996   0.69374   0.00000  Uiso   1.00
H680   H     0.00786   0.75017   0.80621   0.00000  Uiso   1.00
H681   H     0.11627   0.61183   0.68302   0.00000  Uiso   1.00
H682   H     0.10803   0.88571   0.79495   0.00000  Uiso   1.00
H683   H     0.24114   0.78009   0.63596   0.00000  Uiso   1.00
H684   H     0.13003   0.68686   0.86885   0.00000  Uiso   1.00
H685   H     0.09210   0.72179   0.52295   0.00000  Uiso   1.00
H686   H     0.20136   0.81317   0.97185   0.00000  Uiso   1.00
N687   N     0.16667   0.75001   0.62935   0.00000  Uiso   1.00
N688   N     0.16667   0.74999   0.87066   0.00000  Uiso   1.00
O689   O     0.16667   0.68573   0.79072   0.00000  Uiso   1.00
O690   O     0.16666   0.81428   0.70929   0.00000  Uiso   1.00
O691   O     0.16667   0.68573   0.70928   0.00000  Uiso   1.00
O692   O     0.16666   0.81427   0.79072   0.00000  Uiso   1.00
O693   O     0.09161   0.75000   0.78132   0.00000  Uiso   1.00
O694   O     0.24172   0.75001   0.71868   0.00000  Uiso   1.00
O695   O     0.09161   0.75000   0.69989   0.00000  Uiso   1.00
O696   O     0.24172   0.75000   0.80012   0.00000  Uiso   1.00
C697   C     0.22566   0.52285   0.82644   0.00000  Uiso   1.00
N698   N     0.24972   0.50346   0.85720   0.00000  Uiso   1.00
C699   C     0.23561   0.97898   0.69945   0.00000  Uiso   1.00
N700   N     0.26375   0.99924   0.67937   0.00000  Uiso   1.00
C701   C     0.23062   0.61707   0.82681   0.00000  Uiso   1.00
N702   N     0.25711   0.63585   0.85757   0.00000  Uiso   1.00
C703   C     0.24011   0.88475   0.70117   0.00000  Uiso   1.00
N704   N     0.27040   0.86681   0.68214   0.00000  Uiso   1.00
C705   C     0.10176   0.52578   0.66962   0.00000  Uiso   1.00
H706   H     0.08313   0.54589   0.64029   0.00000  Uiso   1.00
O707   O     0.09357   0.98588   0.66747   0.00000  Uiso   1.00
C708   C     0.09165   0.97131   0.80177   0.00000  Uiso   1.00
H709   H     0.06914   0.95045   0.82275   0.00000  Uiso   1.00
O710   O     0.08336   0.51090   0.80053   0.00000  Uiso   1.00
C711   C     0.26043   0.77760   0.54563   0.00000  Uiso   1.00
N712   N     0.29934   0.78781   0.53337   0.00000  Uiso   1.00
C713   C     0.13206   0.67045   0.96207   0.00000  Uiso   1.00
N714   N     0.11903   0.63746   0.97774   0.00000  Uiso   1.00
C715   C     0.08367   0.70620   0.61459   0.00000  Uiso   1.00
H716   H     0.09058   0.68697   0.64726   0.00000  Uiso   1.00
O717   O     0.04032   0.70519   0.59124   0.00000  Uiso   1.00
C718   C     0.21905   0.82042   0.88133   0.00000  Uiso   1.00
H719   H     0.24124   0.81438   0.85230   0.00000  Uiso   1.00
O720   O     0.22084   0.85749   0.89935   0.00000  Uiso   1.00
C721   C     0.50088   0.66505   0.75003   0.00000  Uiso   1.00
C722   C     0.50089   0.83489   0.75026   0.00000  Uiso   1.00
C723   C     0.54531   0.76481   0.56102   0.00000  Uiso   1.00
C724   C     0.48167   0.71154   0.94246   0.00000  Uiso   1.00
C725   C     0.54212   0.76660   0.61122   0.00000  Uiso   1.00
C726   C     0.47977   0.71427   0.89159   0.00000  Uiso   1.00
C727   C     0.45945   0.73176   0.59760   0.00000  Uiso   1.00
C728   C     0.52211   0.78436   0.89998   0.00000  Uiso   1.00
C729   C     0.45918   0.73373   0.54712   0.00000  Uiso   1.00
C730   C     0.51996   0.78456   0.95015   0.00000  Uiso   1.00
C731   C     0.50260   0.74866   0.52761   0.00000  Uiso   1.00
C732   C     0.50153   0.74774   0.97290   0.00000  Uiso   1.00
C733   C     0.40123   0.74998   0.73747   0.00000  Uiso   1.00
C734   C     0.59877   0.75009   0.76252   0.00000  Uiso   1.00
C735   C     0.34580   0.75002   0.73067   0.00000  Uiso   1.00
C736   C     0.65419   0.75011   0.76929   0.00000  Uiso   1.00
C737   C     0.52878   0.54711   0.78779   0.00000  Uiso   1.00
C738   C     0.53365   0.95361   0.72470   0.00000  Uiso   1.00
C739   C     0.53074   0.59352   0.78824   0.00000  Uiso   1.00
C740   C     0.53553   0.90728   0.72511   0.00000  Uiso   1.00
C741   C     0.50170   0.61668   0.75016   0.00000  Uiso   1.00
C742   C     0.50172   0.88312   0.75049   0.00000  Uiso   1.00
C743   C     0.47185   0.59359   0.71195   0.00000  Uiso   1.00
C744   C     0.46712   0.90495   0.77568   0.00000  Uiso   1.00
C745   C     0.46896   0.54747   0.71113   0.00000  Uiso   1.00
C746   C     0.46409   0.95094   0.77513   0.00000  Uiso   1.00
C747   C     0.49768   0.52411   0.74953   0.00000  Uiso   1.00
C748   C     0.49768   0.97542   0.74928   0.00000  Uiso   1.00
Cu749  Cu    0.50000   0.75000   0.79822   0.00000  Uiso   1.00
Cu750  Cu    0.50000   0.75001   0.70179   0.00000  Uiso   1.00
H751   H     0.65882   0.74996   0.69374   0.00000  Uiso   1.00
H752   H     0.34120   0.75017   0.80621   0.00000  Uiso   1.00
H753   H     0.44960   0.61183   0.68302   0.00000  Uiso   1.00
H754   H     0.44136   0.88571   0.79495   0.00000  Uiso   1.00
H755   H     0.57447   0.78009   0.63596   0.00000  Uiso   1.00
H756   H     0.46337   0.68686   0.86885   0.00000  Uiso   1.00
H757   H     0.42543   0.72179   0.52295   0.00000  Uiso   1.00
H758   H     0.53469   0.81317   0.97185   0.00000  Uiso   1.00
N759   N     0.50000   0.75001   0.62935   0.00000  Uiso   1.00
N760   N     0.50000   0.74999   0.87066   0.00000  Uiso   1.00
O761   O     0.50000   0.68573   0.79072   0.00000  Uiso   1.00
O762   O     0.50000   0.81428   0.70929   0.00000  Uiso   1.00
O763   O     0.50000   0.68573   0.70928   0.00000  Uiso   1.00
O764   O     0.50000   0.81427   0.79072   0.00000  Uiso   1.00
O765   O     0.42495   0.75000   0.78132   0.00000  Uiso   1.00
O766   O     0.57505   0.75001   0.71868   0.00000  Uiso   1.00
O767   O     0.42495   0.75000   0.69989   0.00000  Uiso   1.00
O768   O     0.57505   0.75000   0.80012   0.00000  Uiso   1.00
C769   C     0.55899   0.52285   0.82644   0.00000  Uiso   1.00
N770   N     0.58305   0.50346   0.85720   0.00000  Uiso   1.00
C771   C     0.56895   0.97898   0.69945   0.00000  Uiso   1.00
N772   N     0.59708   0.99924   0.67937   0.00000  Uiso   1.00
C773   C     0.56396   0.61707   0.82681   0.00000  Uiso   1.00
N774   N     0.59044   0.63585   0.85757   0.00000  Uiso   1.00
C775   C     0.57344   0.88475   0.70117   0.00000  Uiso   1.00
N776   N     0.60374   0.86681   0.68214   0.00000  Uiso   1.00
C777   C     0.43510   0.52578   0.66962   0.00000  Uiso   1.00
H778   H     0.41646   0.54589   0.64029   0.00000  Uiso   1.00
O779   O     0.42690   0.98588   0.66747   0.00000  Uiso   1.00
C780   C     0.42498   0.97131   0.80177   0.00000  Uiso   1.00
H781   H     0.40247   0.95045   0.82275   0.00000  Uiso   1.00
O782   O     0.41670   0.51090   0.80053   0.00000  Uiso   1.00
C783   C     0.59376   0.77760   0.54563   0.00000  Uiso   1.00
N784   N     0.63267   0.78781   0.53337   0.00000  Uiso   1.00
C785   C     0.46539   0.67045   0.96207   0.00000  Uiso   1.00
N786   N     0.45237   0.63746   0.97774   0.00000  Uiso   1.00
C787   C     0.41700   0.70620   0.61459   0.00000  Uiso   1.00
H788   H     0.42391   0.68697   0.64726   0.00000  Uiso   1.00
O789   O     0.37365   0.70519   0.59124   0.00000  Uiso   1.00
C790   C     0.55239   0.82042   0.88133   0.00000  Uiso   1.00
H791   H     0.57457   0.81438   0.85230   0.00000  Uiso   1.00
O792   O     0.55417   0.85749   0.89935   0.00000  Uiso   1.00
C793   C     0.83421   0.66505   0.75003   0.00000  Uiso   1.00
C794   C     0.83422   0.83489   0.75026   0.00000  Uiso   1.00
C795   C     0.87865   0.76481   0.56102   0.00000  Uiso   1.00
C796   C     0.81501   0.71154   0.94246   0.00000  Uiso   1.00
C797   C     0.87545   0.76660   0.61122   0.00000  Uiso   1.00
C798   C     0.81310   0.71427   0.89159   0.00000  Uiso   1.00
C799   C     0.79278   0.73176   0.59760   0.00000  Uiso   1.00
C800   C     0.85544   0.78436   0.89998   0.00000  Uiso   1.00
C801   C     0.79251   0.73373   0.54712   0.00000  Uiso   1.00
C802   C     0.85329   0.78456   0.95015   0.00000  Uiso   1.00
C803   C     0.83593   0.74866   0.52761   0.00000  Uiso   1.00
C804   C     0.83487   0.74774   0.97290   0.00000  Uiso   1.00
C805   C     0.73457   0.74998   0.73747   0.00000  Uiso   1.00
C806   C     0.93210   0.75009   0.76252   0.00000  Uiso   1.00
C807   C     0.67913   0.75002   0.73067   0.00000  Uiso   1.00
C808   C     0.98753   0.75011   0.76929   0.00000  Uiso   1.00
C809   C     0.86211   0.54711   0.78779   0.00000  Uiso   1.00
C810   C     0.86698   0.95361   0.72470   0.00000  Uiso   1.00
C811   C     0.86407   0.59352   0.78824   0.00000  Uiso   1.00
C812   C     0.86886   0.90728   0.72511   0.00000  Uiso   1.00
C813   C     0.83503   0.61668   0.75016   0.00000  Uiso   1.00
C814   C     0.83505   0.88312   0.75049   0.00000  Uiso   1.00
C815   C     0.80519   0.59359   0.71195   0.00000  Uiso   1.00
C816   C     0.80046   0.90495   0.77568   0.00000  Uiso   1.00
C817   C     0.80229   0.54747   0.71113   0.00000  Uiso   1.00
C818   C     0.79742   0.95094   0.77513   0.00000  Uiso   1.00
C819   C     0.83101   0.52411   0.74953   0.00000  Uiso   1.00
C820   C     0.83101   0.97542   0.74928   0.00000  Uiso   1.00
Cu821  Cu    0.83333   0.75000   0.79822   0.00000  Uiso   1.00
Cu822  Cu    0.83333   0.75001   0.70179   0.00000  Uiso   1.00
H823   H     0.99215   0.74996   0.69374   0.00000  Uiso   1.00
H824   H     0.67453   0.75017   0.80621   0.00000  Uiso   1.00
H825   H     0.78293   0.61183   0.68302   0.00000  Uiso   1.00
H826   H     0.77470   0.88571   0.79495   0.00000  Uiso   1.00
H827   H     0.90780   0.78009   0.63596   0.00000  Uiso   1.00
H828   H     0.79670   0.68686   0.86885   0.00000  Uiso   1.00
H829   H     0.75876   0.72179   0.52295   0.00000  Uiso   1.00
H830   H     0.86803   0.81317   0.97185   0.00000  Uiso   1.00
N831   N     0.83333   0.75001   0.62935   0.00000  Uiso   1.00
N832   N     0.83333   0.74999   0.87066   0.00000  Uiso   1.00
O833   O     0.83334   0.68573   0.79072   0.00000  Uiso   1.00
O834   O     0.83333   0.81428   0.70929   0.00000  Uiso   1.00
O835   O     0.83334   0.68573   0.70928   0.00000  Uiso   1.00
O836   O     0.83333   0.81427   0.79072   0.00000  Uiso   1.00
O837   O     0.75828   0.75000   0.78132   0.00000  Uiso   1.00
O838   O     0.90839   0.75001   0.71868   0.00000  Uiso   1.00
O839   O     0.75828   0.75000   0.69989   0.00000  Uiso   1.00
O840   O     0.90839   0.75000   0.80012   0.00000  Uiso   1.00
C841   C     0.89232   0.52285   0.82644   0.00000  Uiso   1.00
N842   N     0.91638   0.50346   0.85720   0.00000  Uiso   1.00
C843   C     0.90228   0.97898   0.69945   0.00000  Uiso   1.00
N844   N     0.93042   0.99924   0.67937   0.00000  Uiso   1.00
C845   C     0.89729   0.61707   0.82681   0.00000  Uiso   1.00
N846   N     0.92378   0.63585   0.85757   0.00000  Uiso   1.00
C847   C     0.90678   0.88475   0.70117   0.00000  Uiso   1.00
N848   N     0.93707   0.86681   0.68214   0.00000  Uiso   1.00
C849   C     0.76843   0.52578   0.66962   0.00000  Uiso   1.00
H850   H     0.74980   0.54589   0.64029   0.00000  Uiso   1.00
O851   O     0.76023   0.98588   0.66747   0.00000  Uiso   1.00
C852   C     0.75831   0.97131   0.80177   0.00000  Uiso   1.00
H853   H     0.73581   0.95045   0.82275   0.00000  Uiso   1.00
O854   O     0.75003   0.51090   0.80053   0.00000  Uiso   1.00
C855   C     0.92709   0.77760   0.54563   0.00000  Uiso   1.00
N856   N     0.96600   0.78781   0.53337   0.00000  Uiso   1.00
C857   C     0.79872   0.67045   0.96207   0.00000  Uiso   1.00
N858   N     0.78570   0.63746   0.97774   0.00000  Uiso   1.00
C859   C     0.75033   0.70620   0.61459   0.00000  Uiso   1.00
H860   H     0.75724   0.68697   0.64726   0.00000  Uiso   1.00
O861   O     0.70699   0.70519   0.59124   0.00000  Uiso   1.00
C862   C     0.88572   0.82042   0.88133   0.00000  Uiso   1.00
H863   H     0.90791   0.81438   0.85230   0.00000  Uiso   1.00
O864   O     0.88750   0.85749   0.89935   0.00000  Uiso   1.00
loop_
_geom_bond_atom_site_label_1
_geom_bond_atom_site_label_2
_geom_bond_distance
_geom_bond_site_symmetry_2
_ccdc_geom_bond_type
C1     C21     1.463   .     S
C1     O41     1.294   .     A
C1     O43     1.299   .     A
C2     C22     1.458   .     S
C2     O42     1.294   .     A
C2     O44     1.297   .     A
C3     C63     1.443   .     S
C3     C5      1.415   .     A
C3     C11     1.421   .     A
C4     C65     1.443   .     S
C4     C6      1.415   .     A
C4     C12     1.422   .     A
C5     H35     1.081   .     S
C5     N39     1.366   .     A
C6     H36     1.082   .     S
C6     N40     1.366   .     A
C7     C67     1.477   .     S
C7     C9      1.408   .     A
C7     N39     1.381   .     A
C8     N40     1.381   .     A
C8     C70     1.477   .     S
C8     C10     1.408   .     A
C9     C11     1.398   .     A
C9     H37     1.083   .     S
C10    H38     1.083   .     S
C10    C12     1.398   .     A
C11    C444    1.522   1_554 S
C12    C443    1.522   .     S
C13    O45     1.287   .     A
C13    C15     1.435   .     S
C13    O47     1.294   .     A
C14    O46     1.287   .     A
C14    C16     1.435   .     S
C14    O48     1.294   .     A
C15    C160    1.339   1_455 S
C15    H175    1.087   1_455 S
C16    C87     1.339   .     S
C16    H104    1.087   .     S
C17    C27     1.412   .     A
C17    C19     1.403   .     A
C17    C49     1.452   .     S
C18    C28     1.413   .     A
C18    C51     1.452   .     S
C18    C20     1.403   .     A
C19    C53     1.452   .     S
C19    C21     1.411   .     A
C20    C55     1.452   .     S
C20    C22     1.408   .     A
C21    C23     1.398   .     A
C22    C24     1.397   .     A
C23    H33     1.084   .     S
C23    C25     1.394   .     A
C24    C26     1.394   .     A
C24    H34     1.085   .     S
C25    C27     1.417   .     A
C25    C57     1.489   .     S
C26    C28     1.417   .     A
C26    C60     1.489   .     S
C27    C244    1.472   1_545 S
C28    C243    1.472   .     S
Cu29   O45     1.951   .     S
Cu29   Cu30    2.689   .     S
Cu29   N40     2.020   .     S
Cu29   O44     1.956   .     S
Cu29   O48     1.956   .     S
Cu29   O41     1.953   .     S
Cu30   O46     1.951   .     S
Cu30   O42     1.953   .     S
Cu30   O43     1.956   .     S
Cu30   O47     1.956   .     S
Cu30   N39     2.020   .     S
H31    C87     1.087   .     S
H32    C160    1.087   1_455 S
C49    N50     1.157   .     T
C51    N52     1.157   .     T
C53    N54     1.157   .     T
C55    N56     1.157   .     T
C57    H58     1.086   .     S
C57    O275    1.220   1_545 S
O59    C273    1.220   .     S
C60    H61     1.086   .     S
C60    O278    1.220   .     S
O62    C276    1.220   1_545 S
C63    N64     1.157   .     T
C65    N66     1.157   .     T
C67    H68     1.079   .     S
C67    O69     1.221   .     D
C70    H71     1.080   .     S
C70    O72     1.221   .     D
C73    C93     1.463   .     S
C73    O113    1.294   .     A
C73    O115    1.299   .     A
C74    C94     1.458   .     S
C74    O114    1.294   .     A
C74    O116    1.297   .     A
C75    C135    1.443   .     S
C75    C77     1.415   .     A
C75    C83     1.421   .     A
C76    C137    1.443   .     S
C76    C78     1.415   .     A
C76    C84     1.422   .     A
C77    H107    1.081   .     S
C77    N111    1.366   .     A
C78    H108    1.082   .     S
C78    N112    1.366   .     A
C79    C139    1.477   .     S
C79    C81     1.408   .     A
C79    N111    1.381   .     A
C80    N112    1.381   .     A
C80    C142    1.477   .     S
C80    C82     1.408   .     A
C81    C83     1.398   .     A
C81    H109    1.083   .     S
C82    H110    1.083   .     S
C82    C84     1.398   .     A
C83    C516    1.522   1_554 S
C84    C515    1.522   .     S
C85    O117    1.287   .     A
C85    C87     1.435   .     S
C85    O119    1.294   .     A
C86    O118    1.287   .     A
C86    C88     1.435   .     S
C86    O120    1.294   .     A
C88    C159    1.339   .     S
C88    H176    1.087   .     S
C89    C99     1.412   .     A
C89    C91     1.403   .     A
C89    C121    1.452   .     S
C90    C100    1.413   .     A
C90    C123    1.452   .     S
C90    C92     1.403   .     A
C91    C125    1.452   .     S
C91    C93     1.411   .     A
C92    C127    1.452   .     S
C92    C94     1.408   .     A
C93    C95     1.398   .     A
C94    C96     1.397   .     A
C95    H105    1.084   .     S
C95    C97     1.394   .     A
C96    C98     1.394   .     A
C96    H106    1.085   .     S
C97    C99     1.417   .     A
C97    C129    1.489   .     S
C98    C100    1.417   .     A
C98    C132    1.489   .     S
C99    C316    1.472   1_545 S
C100   C315    1.472   .     S
Cu101  O117    1.951   .     S
Cu101  Cu102   2.689   .     S
Cu101  N112    2.020   .     S
Cu101  O116    1.956   .     S
Cu101  O120    1.956   .     S
Cu101  O113    1.953   .     S
Cu102  O118    1.951   .     S
Cu102  O114    1.953   .     S
Cu102  O115    1.956   .     S
Cu102  O119    1.956   .     S
Cu102  N111    2.020   .     S
H103   C159    1.087   .     S
C121   N122    1.157   .     T
C123   N124    1.157   .     T
C125   N126    1.157   .     T
C127   N128    1.157   .     T
C129   H130    1.086   .     S
C129   O347    1.220   1_545 S
O131   C345    1.220   .     S
C132   H133    1.086   .     S
C132   O350    1.220   .     S
O134   C348    1.220   1_545 S
C135   N136    1.157   .     T
C137   N138    1.157   .     T
C139   H140    1.079   .     S
C139   O141    1.221   .     D
C142   H143    1.080   .     S
C142   O144    1.221   .     D
C145   C165    1.463   .     S
C145   O185    1.294   .     A
C145   O187    1.299   .     A
C146   C166    1.458   .     S
C146   O186    1.294   .     A
C146   O188    1.297   .     A
C147   C207    1.443   .     S
C147   C149    1.415   .     A
C147   C155    1.421   .     A
C148   C209    1.443   .     S
C148   C150    1.415   .     A
C148   C156    1.422   .     A
C149   H179    1.081   .     S
C149   N183    1.366   .     A
C150   H180    1.082   .     S
C150   N184    1.366   .     A
C151   C211    1.477   .     S
C151   C153    1.408   .     A
C151   N183    1.381   .     A
C152   N184    1.381   .     A
C152   C214    1.477   .     S
C152   C154    1.408   .     A
C153   C155    1.398   .     A
C153   H181    1.083   .     S
C154   H182    1.083   .     S
C154   C156    1.398   .     A
C155   C588    1.522   1_554 S
C156   C587    1.522   .     S
C157   O189    1.287   .     A
C157   C159    1.435   .     S
C157   O191    1.294   .     A
C158   O190    1.287   .     A
C158   C160    1.435   .     S
C158   O192    1.294   .     A
C160   C15     1.339   1_655 S
C160   H32     1.087   1_655 S
C161   C171    1.412   .     A
C161   C163    1.403   .     A
C161   C193    1.452   .     S
C162   C172    1.413   .     A
C162   C195    1.452   .     S
C162   C164    1.403   .     A
C163   C197    1.452   .     S
C163   C165    1.411   .     A
C164   C199    1.452   .     S
C164   C166    1.408   .     A
C165   C167    1.398   .     A
C166   C168    1.397   .     A
C167   H177    1.084   .     S
C167   C169    1.394   .     A
C168   C170    1.394   .     A
C168   H178    1.085   .     S
C169   C171    1.417   .     A
C169   C201    1.489   .     S
C170   C172    1.417   .     A
C170   C204    1.489   .     S
C171   C388    1.472   1_545 S
C172   C387    1.472   .     S
Cu173  O189    1.951   .     S
Cu173  Cu174   2.689   .     S
Cu173  N184    2.020   .     S
Cu173  O188    1.956   .     S
Cu173  O192    1.956   .     S
Cu173  O185    1.953   .     S
Cu174  O190    1.951   .     S
Cu174  O186    1.953   .     S
Cu174  O187    1.956   .     S
Cu174  O191    1.956   .     S
Cu174  N183    2.020   .     S
H175   C15     1.087   1_655 S
C193   N194    1.157   .     T
C195   N196    1.157   .     T
C197   N198    1.157   .     T
C199   N200    1.157   .     T
C201   H202    1.086   .     S
C201   O419    1.220   1_545 S
O203   C417    1.220   .     S
C204   H205    1.086   .     S
C204   O422    1.220   .     S
O206   C420    1.220   1_545 S
C207   N208    1.157   .     T
C209   N210    1.157   .     T
C211   H212    1.079   .     S
C211   O213    1.221   .     D
C214   H215    1.080   .     S
C214   O216    1.221   .     D
C217   C237    1.463   .     S
C217   O257    1.294   .     A
C217   O259    1.299   .     A
C218   C238    1.458   .     S
C218   O258    1.294   .     A
C218   O260    1.297   .     A
C219   C279    1.443   .     S
C219   C221    1.415   .     A
C219   C227    1.421   .     A
C220   C281    1.443   .     S
C220   C222    1.415   .     A
C220   C228    1.422   .     A
C221   H251    1.081   .     S
C221   N255    1.366   .     A
C222   H252    1.082   .     S
C222   N256    1.366   .     A
C223   C283    1.477   .     S
C223   C225    1.408   .     A
C223   N255    1.381   .     A
C224   N256    1.381   .     A
C224   C286    1.477   .     S
C224   C226    1.408   .     A
C225   C227    1.398   .     A
C225   H253    1.083   .     S
C226   H254    1.083   .     S
C226   C228    1.398   .     A
C227   C660    1.522   1_554 S
C228   C659    1.522   .     S
C229   O261    1.287   .     A
C229   C231    1.435   .     S
C229   O263    1.294   .     A
C230   O262    1.287   .     A
C230   C232    1.435   .     S
C230   O264    1.294   .     A
C231   C376    1.339   1_455 S
C231   H391    1.087   1_455 S
C232   C303    1.339   .     S
C232   H320    1.087   .     S
C233   C243    1.412   .     A
C233   C235    1.403   .     A
C233   C265    1.452   .     S
C234   C244    1.413   .     A
C234   C267    1.452   .     S
C234   C236    1.403   .     A
C235   C269    1.452   .     S
C235   C237    1.411   .     A
C236   C271    1.452   .     S
C236   C238    1.408   .     A
C237   C239    1.398   .     A
C238   C240    1.397   .     A
C239   H249    1.084   .     S
C239   C241    1.394   .     A
C240   C242    1.394   .     A
C240   H250    1.085   .     S
C241   C243    1.417   .     A
C241   C273    1.489   .     S
C242   C244    1.417   .     A
C242   C276    1.489   .     S
C244   C27     1.472   1_565 S
Cu245  O261    1.951   .     S
Cu245  Cu246   2.689   .     S
Cu245  N256    2.020   .     S
Cu245  O260    1.956   .     S
Cu245  O264    1.956   .     S
Cu245  O257    1.953   .     S
Cu246  O262    1.951   .     S
Cu246  O258    1.953   .     S
Cu246  O259    1.956   .     S
Cu246  O263    1.956   .     S
Cu246  N255    2.020   .     S
H247   C303    1.087   .     S
H248   C376    1.087   1_455 S
C265   N266    1.157   .     T
C267   N268    1.157   .     T
C269   N270    1.157   .     T
C271   N272    1.157   .     T
C273   H274    1.086   .     S
O275   C57     1.220   1_565 S
C276   H277    1.086   .     S
C276   O62     1.220   1_565 S
C279   N280    1.157   .     T
C281   N282    1.157   .     T
C283   H284    1.079   .     S
C283   O285    1.221   .     D
C286   H287    1.080   .     S
C286   O288    1.221   .     D
C289   C309    1.463   .     S
C289   O329    1.294   .     A
C289   O331    1.299   .     A
C290   C310    1.458   .     S
C290   O330    1.294   .     A
C290   O332    1.297   .     A
C291   C351    1.443   .     S
C291   C293    1.415   .     A
C291   C299    1.421   .     A
C292   C353    1.443   .     S
C292   C294    1.415   .     A
C292   C300    1.422   .     A
C293   H323    1.081   .     S
C293   N327    1.366   .     A
C294   H324    1.082   .     S
C294   N328    1.366   .     A
C295   C355    1.477   .     S
C295   C297    1.408   .     A
C295   N327    1.381   .     A
C296   N328    1.381   .     A
C296   C358    1.477   .     S
C296   C298    1.408   .     A
C297   C299    1.398   .     A
C297   H325    1.083   .     S
C298   H326    1.083   .     S
C298   C300    1.398   .     A
C299   C732    1.522   1_554 S
C300   C731    1.522   .     S
C301   O333    1.287   .     A
C301   C303    1.435   .     S
C301   O335    1.294   .     A
C302   O334    1.287   .     A
C302   C304    1.435   .     S
C302   O336    1.294   .     A
C304   C375    1.339   .     S
C304   H392    1.087   .     S
C305   C315    1.412   .     A
C305   C307    1.403   .     A
C305   C337    1.452   .     S
C306   C316    1.413   .     A
C306   C339    1.452   .     S
C306   C308    1.403   .     A
C307   C341    1.452   .     S
C307   C309    1.411   .     A
C308   C343    1.452   .     S
C308   C310    1.408   .     A
C309   C311    1.398   .     A
C310   C312    1.397   .     A
C311   H321    1.084   .     S
C311   C313    1.394   .     A
C312   C314    1.394   .     A
C312   H322    1.085   .     S
C313   C315    1.417   .     A
C313   C345    1.489   .     S
C314   C316    1.417   .     A
C314   C348    1.489   .     S
C316   C99     1.472   1_565 S
Cu317  O333    1.951   .     S
Cu317  Cu318   2.689   .     S
Cu317  N328    2.020   .     S
Cu317  O332    1.956   .     S
Cu317  O336    1.956   .     S
Cu317  O329    1.953   .     S
Cu318  O334    1.951   .     S
Cu318  O330    1.953   .     S
Cu318  O331    1.956   .     S
Cu318  O335    1.956   .     S
Cu318  N327    2.020   .     S
H319   C375    1.087   .     S
C337   N338    1.157   .     T
C339   N340    1.157   .     T
C341   N342    1.157   .     T
C343   N344    1.157   .     T
C345   H346    1.086   .     S
O347   C129    1.220   1_565 S
C348   H349    1.086   .     S
C348   O134    1.220   1_565 S
C351   N352    1.157   .     T
C353   N354    1.157   .     T
C355   H356    1.079   .     S
C355   O357    1.221   .     D
C358   H359    1.080   .     S
C358   O360    1.221   .     D
C361   C381    1.463   .     S
C361   O401    1.294   .     A
C361   O403    1.299   .     A
C362   C382    1.458   .     S
C362   O402    1.294   .     A
C362   O404    1.297   .     A
C363   C423    1.443   .     S
C363   C365    1.415   .     A
C363   C371    1.421   .     A
C364   C425    1.443   .     S
C364   C366    1.415   .     A
C364   C372    1.422   .     A
C365   H395    1.081   .     S
C365   N399    1.366   .     A
C366   H396    1.082   .     S
C366   N400    1.366   .     A
C367   C427    1.477   .     S
C367   C369    1.408   .     A
C367   N399    1.381   .     A
C368   N400    1.381   .     A
C368   C430    1.477   .     S
C368   C370    1.408   .     A
C369   C371    1.398   .     A
C369   H397    1.083   .     S
C370   H398    1.083   .     S
C370   C372    1.398   .     A
C371   C804    1.522   1_554 S
C372   C803    1.522   .     S
C373   O405    1.287   .     A
C373   C375    1.435   .     S
C373   O407    1.294   .     A
C374   O406    1.287   .     A
C374   C376    1.435   .     S
C374   O408    1.294   .     A
C376   C231    1.339   1_655 S
C376   H248    1.087   1_655 S
C377   C387    1.412   .     A
C377   C379    1.403   .     A
C377   C409    1.452   .     S
C378   C388    1.413   .     A
C378   C411    1.452   .     S
C378   C380    1.403   .     A
C379   C413    1.452   .     S
C379   C381    1.411   .     A
C380   C415    1.452   .     S
C380   C382    1.408   .     A
C381   C383    1.398   .     A
C382   C384    1.397   .     A
C383   H393    1.084   .     S
C383   C385    1.394   .     A
C384   C386    1.394   .     A
C384   H394    1.085   .     S
C385   C387    1.417   .     A
C385   C417    1.489   .     S
C386   C388    1.417   .     A
C386   C420    1.489   .     S
C388   C171    1.472   1_565 S
Cu389  O405    1.951   .     S
Cu389  Cu390   2.689   .     S
Cu389  N400    2.020   .     S
Cu389  O404    1.956   .     S
Cu389  O408    1.956   .     S
Cu389  O401    1.953   .     S
Cu390  O406    1.951   .     S
Cu390  O402    1.953   .     S
Cu390  O403    1.956   .     S
Cu390  O407    1.956   .     S
Cu390  N399    2.020   .     S
H391   C231    1.087   1_655 S
C409   N410    1.157   .     T
C411   N412    1.157   .     T
C413   N414    1.157   .     T
C415   N416    1.157   .     T
C417   H418    1.086   .     S
O419   C201    1.220   1_565 S
C420   H421    1.086   .     S
C420   O206    1.220   1_565 S
C423   N424    1.157   .     T
C425   N426    1.157   .     T
C427   H428    1.079   .     S
C427   O429    1.221   .     D
C430   H431    1.080   .     S
C430   O432    1.221   .     D
C433   C453    1.463   .     S
C433   O473    1.294   .     A
C433   O475    1.299   .     A
C434   C454    1.458   .     S
C434   O474    1.294   .     A
C434   O476    1.297   .     A
C435   C495    1.443   .     S
C435   C437    1.415   .     A
C435   C443    1.421   .     A
C436   C497    1.443   .     S
C436   C438    1.415   .     A
C436   C444    1.422   .     A
C437   H467    1.081   .     S
C437   N471    1.366   .     A
C438   H468    1.082   .     S
C438   N472    1.366   .     A
C439   C499    1.477   .     S
C439   C441    1.408   .     A
C439   N471    1.381   .     A
C440   N472    1.381   .     A
C440   C502    1.477   .     S
C440   C442    1.408   .     A
C441   C443    1.398   .     A
C441   H469    1.083   .     S
C442   H470    1.083   .     S
C442   C444    1.398   .     A
C444   C11     1.522   1_556 S
C445   O477    1.287   .     A
C445   C447    1.435   .     S
C445   O479    1.294   .     A
C446   O478    1.287   .     A
C446   C448    1.435   .     S
C446   O480    1.294   .     A
C447   C592    1.339   1_455 S
C447   H607    1.087   1_455 S
C448   C519    1.339   .     S
C448   H536    1.087   .     S
C449   C459    1.412   .     A
C449   C451    1.403   .     A
C449   C481    1.452   .     S
C450   C460    1.413   .     A
C450   C483    1.452   .     S
C450   C452    1.403   .     A
C451   C485    1.452   .     S
C451   C453    1.411   .     A
C452   C487    1.452   .     S
C452   C454    1.408   .     A
C453   C455    1.398   .     A
C454   C456    1.397   .     A
C455   H465    1.084   .     S
C455   C457    1.394   .     A
C456   C458    1.394   .     A
C456   H466    1.085   .     S
C457   C459    1.417   .     A
C457   C489    1.489   .     S
C458   C460    1.417   .     A
C458   C492    1.489   .     S
C459   C676    1.472   1_545 S
C460   C675    1.472   .     S
Cu461  O477    1.951   .     S
Cu461  Cu462   2.689   .     S
Cu461  N472    2.020   .     S
Cu461  O476    1.956   .     S
Cu461  O480    1.956   .     S
Cu461  O473    1.953   .     S
Cu462  O478    1.951   .     S
Cu462  O474    1.953   .     S
Cu462  O475    1.956   .     S
Cu462  O479    1.956   .     S
Cu462  N471    2.020   .     S
H463   C519    1.087   .     S
H464   C592    1.087   1_455 S
C481   N482    1.157   .     T
C483   N484    1.157   .     T
C485   N486    1.157   .     T
C487   N488    1.157   .     T
C489   H490    1.086   .     S
C489   O707    1.220   1_545 S
O491   C705    1.220   .     S
C492   H493    1.086   .     S
C492   O710    1.220   .     S
O494   C708    1.220   1_545 S
C495   N496    1.157   .     T
C497   N498    1.157   .     T
C499   H500    1.079   .     S
C499   O501    1.221   .     D
C502   H503    1.080   .     S
C502   O504    1.221   .     D
C505   C525    1.463   .     S
C505   O545    1.294   .     A
C505   O547    1.299   .     A
C506   C526    1.458   .     S
C506   O546    1.294   .     A
C506   O548    1.297   .     A
C507   C567    1.443   .     S
C507   C509    1.415   .     A
C507   C515    1.421   .     A
C508   C569    1.443   .     S
C508   C510    1.415   .     A
C508   C516    1.422   .     A
C509   H539    1.081   .     S
C509   N543    1.366   .     A
C510   H540    1.082   .     S
C510   N544    1.366   .     A
C511   C571    1.477   .     S
C511   C513    1.408   .     A
C511   N543    1.381   .     A
C512   N544    1.381   .     A
C512   C574    1.477   .     S
C512   C514    1.408   .     A
C513   C515    1.398   .     A
C513   H541    1.083   .     S
C514   H542    1.083   .     S
C514   C516    1.398   .     A
C516   C83     1.522   1_556 S
C517   O549    1.287   .     A
C517   C519    1.435   .     S
C517   O551    1.294   .     A
C518   O550    1.287   .     A
C518   C520    1.435   .     S
C518   O552    1.294   .     A
C520   C591    1.339   .     S
C520   H608    1.087   .     S
C521   C531    1.412   .     A
C521   C523    1.403   .     A
C521   C553    1.452   .     S
C522   C532    1.413   .     A
C522   C555    1.452   .     S
C522   C524    1.403   .     A
C523   C557    1.452   .     S
C523   C525    1.411   .     A
C524   C559    1.452   .     S
C524   C526    1.408   .     A
C525   C527    1.398   .     A
C526   C528    1.397   .     A
C527   H537    1.084   .     S
C527   C529    1.394   .     A
C528   C530    1.394   .     A
C528   H538    1.085   .     S
C529   C531    1.417   .     A
C529   C561    1.489   .     S
C530   C532    1.417   .     A
C530   C564    1.489   .     S
C531   C748    1.472   1_545 S
C532   C747    1.472   .     S
Cu533  O549    1.951   .     S
Cu533  Cu534   2.689   .     S
Cu533  N544    2.020   .     S
Cu533  O548    1.956   .     S
Cu533  O552    1.956   .     S
Cu533  O545    1.953   .     S
Cu534  O550    1.951   .     S
Cu534  O546    1.953   .     S
Cu534  O547    1.956   .     S
Cu534  O551    1.956   .     S
Cu534  N543    2.020   .     S
H535   C591    1.087   .     S
C553   N554    1.157   .     T
C555   N556    1.157   .     T
C557   N558    1.157   .     T
C559   N560    1.157   .     T
C561   H562    1.086   .     S
C561   O779    1.220   1_545 S
O563   C777    1.220   .     S
C564   H565    1.086   .     S
C564   O782    1.220   .     S
O566   C780    1.220   1_545 S
C567   N568    1.157   .     T
C569   N570    1.157   .     T
C571   H572    1.079   .     S
C571   O573    1.221   .     D
C574   H575    1.080   .     S
C574   O576    1.221   .     D
C577   C597    1.463   .     S
C577   O617    1.294   .     A
C577   O619    1.299   .     A
C578   C598    1.458   .     S
C578   O618    1.294   .     A
C578   O620    1.297   .     A
C579   C639    1.443   .     S
C579   C581    1.415   .     A
C579   C587    1.421   .     A
C580   C641    1.443   .     S
C580   C582    1.415   .     A
C580   C588    1.422   .     A
C581   H611    1.081   .     S
C581   N615    1.366   .     A
C582   H612    1.082   .     S
C582   N616    1.366   .     A
C583   C643    1.477   .     S
C583   C585    1.408   .     A
C583   N615    1.381   .     A
C584   N616    1.381   .     A
C584   C646    1.477   .     S
C584   C586    1.408   .     A
C585   C587    1.398   .     A
C585   H613    1.083   .     S
C586   H614    1.083   .     S
C586   C588    1.398   .     A
C588   C155    1.522   1_556 S
C589   O621    1.287   .     A
C589   C591    1.435   .     S
C589   O623    1.294   .     A
C590   O622    1.287   .     A
C590   C592    1.435   .     S
C590   O624    1.294   .     A
C592   C447    1.339   1_655 S
C592   H464    1.087   1_655 S
C593   C603    1.412   .     A
C593   C595    1.403   .     A
C593   C625    1.452   .     S
C594   C604    1.413   .     A
C594   C627    1.452   .     S
C594   C596    1.403   .     A
C595   C629    1.452   .     S
C595   C597    1.411   .     A
C596   C631    1.452   .     S
C596   C598    1.408   .     A
C597   C599    1.398   .     A
C598   C600    1.397   .     A
C599   H609    1.084   .     S
C599   C601    1.394   .     A
C600   C602    1.394   .     A
C600   H610    1.085   .     S
C601   C603    1.417   .     A
C601   C633    1.489   .     S
C602   C604    1.417   .     A
C602   C636    1.489   .     S
C603   C820    1.472   1_545 S
C604   C819    1.472   .     S
Cu605  O621    1.951   .     S
Cu605  Cu606   2.689   .     S
Cu605  N616    2.020   .     S
Cu605  O620    1.956   .     S
Cu605  O624    1.956   .     S
Cu605  O617    1.953   .     S
Cu606  O622    1.951   .     S
Cu606  O618    1.953   .     S
Cu606  O619    1.956   .     S
Cu606  O623    1.956   .     S
Cu606  N615    2.020   .     S
H607   C447    1.087   1_655 S
C625   N626    1.157   .     T
C627   N628    1.157   .     T
C629   N630    1.157   .     T
C631   N632    1.157   .     T
C633   H634    1.086   .     S
C633   O851    1.220   1_545 S
O635   C849    1.220   .     S
C636   H637    1.086   .     S
C636   O854    1.220   .     S
O638   C852    1.220   1_545 S
C639   N640    1.157   .     T
C641   N642    1.157   .     T
C643   H644    1.079   .     S
C643   O645    1.221   .     D
C646   H647    1.080   .     S
C646   O648    1.221   .     D
C649   C669    1.463   .     S
C649   O689    1.294   .     A
C649   O691    1.299   .     A
C650   C670    1.458   .     S
C650   O690    1.294   .     A
C650   O692    1.297   .     A
C651   C711    1.443   .     S
C651   C653    1.415   .     A
C651   C659    1.421   .     A
C652   C713    1.443   .     S
C652   C654    1.415   .     A
C652   C660    1.422   .     A
C653   H683    1.081   .     S
C653   N687    1.366   .     A
C654   H684    1.082   .     S
C654   N688    1.366   .     A
C655   C715    1.477   .     S
C655   C657    1.408   .     A
C655   N687    1.381   .     A
C656   N688    1.381   .     A
C656   C718    1.477   .     S
C656   C658    1.408   .     A
C657   C659    1.398   .     A
C657   H685    1.083   .     S
C658   H686    1.083   .     S
C658   C660    1.398   .     A
C660   C227    1.522   1_556 S
C661   O693    1.287   .     A
C661   C663    1.435   .     S
C661   O695    1.294   .     A
C662   O694    1.287   .     A
C662   C664    1.435   .     S
C662   O696    1.294   .     A
C663   C808    1.339   1_455 S
C663   H823    1.087   1_455 S
C664   C735    1.339   .     S
C664   H752    1.087   .     S
C665   C675    1.412   .     A
C665   C667    1.403   .     A
C665   C697    1.452   .     S
C666   C676    1.413   .     A
C666   C699    1.452   .     S
C666   C668    1.403   .     A
C667   C701    1.452   .     S
C667   C669    1.411   .     A
C668   C703    1.452   .     S
C668   C670    1.408   .     A
C669   C671    1.398   .     A
C670   C672    1.397   .     A
C671   H681    1.084   .     S
C671   C673    1.394   .     A
C672   C674    1.394   .     A
C672   H682    1.085   .     S
C673   C675    1.417   .     A
C673   C705    1.489   .     S
C674   C676    1.417   .     A
C674   C708    1.489   .     S
C676   C459    1.472   1_565 S
Cu677  O693    1.951   .     S
Cu677  Cu678   2.689   .     S
Cu677  N688    2.020   .     S
Cu677  O692    1.956   .     S
Cu677  O696    1.956   .     S
Cu677  O689    1.953   .     S
Cu678  O694    1.951   .     S
Cu678  O690    1.953   .     S
Cu678  O691    1.956   .     S
Cu678  O695    1.956   .     S
Cu678  N687    2.020   .     S
H679   C735    1.087   .     S
H680   C808    1.087   1_455 S
C697   N698    1.157   .     T
C699   N700    1.157   .     T
C701   N702    1.157   .     T
C703   N704    1.157   .     T
C705   H706    1.086   .     S
O707   C489    1.220   1_565 S
C708   H709    1.086   .     S
C708   O494    1.220   1_565 S
C711   N712    1.157   .     T
C713   N714    1.157   .     T
C715   H716    1.079   .     S
C715   O717    1.221   .     D
C718   H719    1.080   .     S
C718   O720    1.221   .     D
C721   C741    1.463   .     S
C721   O761    1.294   .     A
C721   O763    1.299   .     A
C722   C742    1.458   .     S
C722   O762    1.294   .     A
C722   O764    1.297   .     A
C723   C783    1.443   .     S
C723   C725    1.415   .     A
C723   C731    1.421   .     A
C724   C785    1.443   .     S
C724   C726    1.415   .     A
C724   C732    1.422   .     A
C725   H755    1.081   .     S
C725   N759    1.366   .     A
C726   H756    1.082   .     S
C726   N760    1.366   .     A
C727   C787    1.477   .     S
C727   C729    1.408   .     A
C727   N759    1.381   .     A
C728   N760    1.381   .     A
C728   C790    1.477   .     S
C728   C730    1.408   .     A
C729   C731    1.398   .     A
C729   H757    1.083   .     S
C730   H758    1.083   .     S
C730   C732    1.398   .     A
C732   C299    1.522   1_556 S
C733   O765    1.287   .     A
C733   C735    1.435   .     S
C733   O767    1.294   .     A
C734   O766    1.287   .     A
C734   C736    1.435   .     S
C734   O768    1.294   .     A
C736   C807    1.339   .     S
C736   H824    1.087   .     S
C737   C747    1.412   .     A
C737   C739    1.403   .     A
C737   C769    1.452   .     S
C738   C748    1.413   .     A
C738   C771    1.452   .     S
C738   C740    1.403   .     A
C739   C773    1.452   .     S
C739   C741    1.411   .     A
C740   C775    1.452   .     S
C740   C742    1.408   .     A
C741   C743    1.398   .     A
C742   C744    1.397   .     A
C743   H753    1.084   .     S
C743   C745    1.394   .     A
C744   C746    1.394   .     A
C744   H754    1.085   .     S
C745   C747    1.417   .     A
C745   C777    1.489   .     S
C746   C748    1.417   .     A
C746   C780    1.489   .     S
C748   C531    1.472   1_565 S
Cu749  O765    1.951   .     S
Cu749  Cu750   2.689   .     S
Cu749  N760    2.020   .     S
Cu749  O764    1.956   .     S
Cu749  O768    1.956   .     S
Cu749  O761    1.953   .     S
Cu750  O766    1.951   .     S
Cu750  O762    1.953   .     S
Cu750  O763    1.956   .     S
Cu750  O767    1.956   .     S
Cu750  N759    2.020   .     S
H751   C807    1.087   .     S
C769   N770    1.157   .     T
C771   N772    1.157   .     T
C773   N774    1.157   .     T
C775   N776    1.157   .     T
C777   H778    1.086   .     S
O779   C561    1.220   1_565 S
C780   H781    1.086   .     S
C780   O566    1.220   1_565 S
C783   N784    1.157   .     T
C785   N786    1.157   .     T
C787   H788    1.079   .     S
C787   O789    1.221   .     D
C790   H791    1.080   .     S
C790   O792    1.221   .     D
C793   C813    1.463   .     S
C793   O833    1.294   .     A
C793   O835    1.299   .     A
C794   C814    1.458   .     S
C794   O834    1.294   .     A
C794   O836    1.297   .     A
C795   C855    1.443   .     S
C795   C797    1.415   .     A
C795   C803    1.421   .     A
C796   C857    1.443   .     S
C796   C798    1.415   .     A
C796   C804    1.422   .     A
C797   H827    1.081   .     S
C797   N831    1.366   .     A
C798   H828    1.082   .     S
C798   N832    1.366   .     A
C799   C859    1.477   .     S
C799   C801    1.408   .     A
C799   N831    1.381   .     A
C800   N832    1.381   .     A
C800   C862    1.477   .     S
C800   C802    1.408   .     A
C801   C803    1.398   .     A
C801   H829    1.083   .     S
C802   H830    1.083   .     S
C802   C804    1.398   .     A
C804   C371    1.522   1_556 S
C805   O837    1.287   .     A
C805   C807    1.435   .     S
C805   O839    1.294   .     A
C806   O838    1.287   .     A
C806   C808    1.435   .     S
C806   O840    1.294   .     A
C808   C663    1.339   1_655 S
C808   H680    1.087   1_655 S
C809   C819    1.412   .     A
C809   C811    1.403   .     A
C809   C841    1.452   .     S
C810   C820    1.413   .     A
C810   C843    1.452   .     S
C810   C812    1.403   .     A
C811   C845    1.452   .     S
C811   C813    1.411   .     A
C812   C847    1.452   .     S
C812   C814    1.408   .     A
C813   C815    1.398   .     A
C814   C816    1.397   .     A
C815   H825    1.084   .     S
C815   C817    1.394   .     A
C816   C818    1.394   .     A
C816   H826    1.085   .     S
C817   C819    1.417   .     A
C817   C849    1.489   .     S
C818   C820    1.417   .     A
C818   C852    1.489   .     S
C820   C603    1.472   1_565 S
Cu821  O837    1.951   .     S
Cu821  Cu822   2.689   .     S
Cu821  N832    2.020   .     S
Cu821  O836    1.956   .     S
Cu821  O840    1.956   .     S
Cu821  O833    1.953   .     S
Cu822  O838    1.951   .     S
Cu822  O834    1.953   .     S
Cu822  O835    1.956   .     S
Cu822  O839    1.956   .     S
Cu822  N831    2.020   .     S
H823   C663    1.087   1_655 S
C841   N842    1.157   .     T
C843   N844    1.157   .     T
C845   N846    1.157   .     T
C847   N848    1.157   .     T
C849   H850    1.086   .     S
O851   C633    1.220   1_565 S
C852   H853    1.086   .     S
C852   O638    1.220   1_565 S
C855   N856    1.157   .     T
C857   N858    1.157   .     T
C859   H860    1.079   .     S
C859   O861    1.221   .     D
C862   H863    1.080   .     S
C862   O864    1.221   .     D
