data_str_m2_o1_o16_pcu_sym.59
_audit_creation_date              2020-01-03
_audit_creation_method            'Materials Studio'
_symmetry_space_group_name_H-M    'P1'
_symmetry_Int_Tables_number       1
_symmetry_cell_setting            triclinic
loop_
_symmetry_equiv_pos_as_xyz
  x,y,z
_cell_length_a                    28.7408
_cell_length_b                    32.3560
_cell_length_c                    26.9387
_cell_angle_alpha                 91.3886
_cell_angle_beta                  73.2540
_cell_angle_gamma                 90.6287
loop_
_atom_site_label
_atom_site_type_symbol
_atom_site_fract_x
_atom_site_fract_y
_atom_site_fract_z
_atom_site_U_iso_or_equiv
_atom_site_adp_type
_atom_site_occupancy
C1     C     0.16677   0.24585   0.25031   0.00000  Uiso   1.00
C2     C     0.12486   0.16055   0.40617   0.00000  Uiso   1.00
C3     C     0.20598   0.31186   0.21923   0.00000  Uiso   1.00
C4     C     0.14067   0.16593   0.34976   0.00000  Uiso   1.00
C5     C     0.20528   0.02116   0.21892   0.00000  Uiso   1.00
C6     C     0.16560   0.04276   0.25124   0.00000  Uiso   1.00
C7     C     0.12564   0.02188   0.28423   0.00000  Uiso   1.00
C8     C     0.12666   0.31166   0.28369   0.00000  Uiso   1.00
C9     C     0.16660   0.29048   0.25107   0.00000  Uiso   1.00
C10    C     0.30058   0.19399   0.28095   0.00000  Uiso   1.00
C11    C     0.01663   0.19288   0.28199   0.00000  Uiso   1.00
C12    C     0.14636   0.15861   0.48827   0.00000  Uiso   1.00
C13    C     0.03311   0.13969   0.21839   0.00000  Uiso   1.00
C14    C     0.31661   0.14054   0.21746   0.00000  Uiso   1.00
C15    C     0.16630   0.08747   0.25046   0.00000  Uiso   1.00
C16    C     0.19259   0.16761   0.15040   0.00000  Uiso   1.00
C17    C     0.24248   0.22250   0.02638   0.00000  Uiso   1.00
C18    C     0.20714   0.17567   0.09495   0.00000  Uiso   1.00
C19    C     0.08399   0.13621   0.42684   0.00000  Uiso   1.00
C20    C     0.07050   0.12675   0.47904   0.00000  Uiso   1.00
C21    C     0.10459   0.13194   0.00741   0.00000  Uiso   1.00
C22    C     0.31151   0.22634   0.09003   0.00000  Uiso   1.00
C23    C     0.15165   0.17658   0.43886   0.00000  Uiso   1.00
C24    C     0.04326   0.02847   0.33139   0.00000  Uiso   1.00
C25    C     0.28166   0.26231   0.29917   0.00000  Uiso   1.00
C26    C     0.05441   0.07170   0.20154   0.00000  Uiso   1.00
C27    C     0.32203   0.12065   0.13333   0.00000  Uiso   1.00
C28    C     0.20525   0.08623   0.06476   0.00000  Uiso   1.00
C29    C     0.09478   0.07105   0.05043   0.00000  Uiso   1.00
C30    C     0.32087   0.13217   0.49330   0.00000  Uiso   1.00
C31    C     0.14164   0.26684   0.40539   0.00000  Uiso   1.00
C32    C     0.18050   0.17154   0.01640   0.00000  Uiso   1.00
C33    C     0.21269   0.20562   0.49743   0.00000  Uiso   1.00
C34    C     0.21292   0.22451   0.45133   0.00000  Uiso   1.00
C35    C     0.18137   0.21174   0.42390   0.00000  Uiso   1.00
C36    C     0.18425   0.15370   0.06303   0.00000  Uiso   1.00
C37    C     0.23878   0.20839   0.07578   0.00000  Uiso   1.00
Cu38   Cu    0.11978   0.16666   0.25000   0.00000  Uiso   1.00
Cu39   Cu    0.21355   0.16667   0.25000   0.00000  Uiso   1.00
F40    F     0.24295   0.04141   0.18612   0.00000  Uiso   1.00
F41    F     0.09087   0.28959   0.31666   0.00000  Uiso   1.00
F42    F     0.03138   0.21750   0.31601   0.00000  Uiso   1.00
F43    F     0.24204   0.25756   0.43337   0.00000  Uiso   1.00
F44    F     0.27144   0.25578   0.00935   0.00000  Uiso   1.00
F45    F     0.05715   0.12092   0.39641   0.00000  Uiso   1.00
F46    F     0.24460   0.29141   0.18749   0.00000  Uiso   1.00
H47    H     0.32383   0.19577   0.07139   0.00000  Uiso   1.00
H48    H     0.08803   0.05295   0.18894   0.00000  Uiso   1.00
H49    H     0.02836   0.05798   0.18240   0.00000  Uiso   1.00
H50    H     0.03970   0.06899   0.24426   0.00000  Uiso   1.00
H51    H     0.01676   0.14561   0.12511   0.00000  Uiso   1.00
H52    H     0.29398   0.12886   0.11469   0.00000  Uiso   1.00
H53    H     0.00505   0.09145   0.11452   0.00000  Uiso   1.00
H54    H     0.23140   0.09197   0.08754   0.00000  Uiso   1.00
H55    H     0.22376   0.08619   0.02232   0.00000  Uiso   1.00
H56    H     0.19007   0.05480   0.07444   0.00000  Uiso   1.00
H57    H     0.06197   0.05781   0.04225   0.00000  Uiso   1.00
H58    H     0.32648   0.23005   0.12353   0.00000  Uiso   1.00
H59    H     0.09614   0.05801   0.08766   0.00000  Uiso   1.00
H60    H     0.12787   0.06026   0.01997   0.00000  Uiso   1.00
H61    H     0.30865   0.11720   0.46169   0.00000  Uiso   1.00
H62    H     0.33016   0.16526   0.48437   0.00000  Uiso   1.00
H63    H     0.28987   0.13226   0.02867   0.00000  Uiso   1.00
H64    H     0.14652   0.28229   0.44100   0.00000  Uiso   1.00
H65    H     0.10458   0.25322   0.41367   0.00000  Uiso   1.00
H66    H     0.14520   0.29135   0.37658   0.00000  Uiso   1.00
H67    H     0.32711   0.25144   0.06278   0.00000  Uiso   1.00
H68    H     0.03625   0.01134   0.29787   0.00000  Uiso   1.00
H69    H     0.01672   0.05416   0.34196   0.00000  Uiso   1.00
H70    H     0.03628   0.00851   0.36573   0.00000  Uiso   1.00
H71    H     0.29509   0.26619   0.25637   0.00000  Uiso   1.00
H72    H     0.30915   0.27378   0.31791   0.00000  Uiso   1.00
H73    H     0.24919   0.28224   0.31372   0.00000  Uiso   1.00
N74    N     0.04931   0.16666   0.24999   0.00000  Uiso   1.00
N75    N     0.28402   0.16669   0.25000   0.00000  Uiso   1.00
O76    O     0.12708   0.22678   0.25001   0.00000  Uiso   1.00
O77    O     0.09052   0.04549   0.32001   0.00000  Uiso   1.00
O78    O     0.26807   0.22111   0.31314   0.00000  Uiso   1.00
O79    O     0.06609   0.11286   0.18606   0.00000  Uiso   1.00
O80    O     0.29959   0.11334   0.18634   0.00000  Uiso   1.00
O81    O     0.16680   0.11486   0.07856   0.00000  Uiso   1.00
O82    O     0.09262   0.11487   0.05590   0.00000  Uiso   1.00
O83    O     0.02558   0.10902   0.00259   0.00000  Uiso   1.00
O84    O     0.17713   0.23644   0.38425   0.00000  Uiso   1.00
O85    O     0.20627   0.22679   0.25001   0.00000  Uiso   1.00
O86    O     0.10775   0.16665   0.32549   0.00000  Uiso   1.00
O87    O     0.18694   0.16666   0.32549   0.00000  Uiso   1.00
O88    O     0.12706   0.10654   0.25000   0.00000  Uiso   1.00
O89    O     0.20625   0.10655   0.25000   0.00000  Uiso   1.00
O90    O     0.14640   0.16667   0.17451   0.00000  Uiso   1.00
O91    O     0.22559   0.16668   0.17451   0.00000  Uiso   1.00
O92    O     0.26045   0.22992   0.10843   0.00000  Uiso   1.00
C93    C     0.50010   0.24585   0.25031   0.00000  Uiso   1.00
C94    C     0.45819   0.16055   0.40617   0.00000  Uiso   1.00
C95    C     0.53932   0.31186   0.21923   0.00000  Uiso   1.00
C96    C     0.47400   0.16593   0.34976   0.00000  Uiso   1.00
C97    C     0.53862   0.02116   0.21892   0.00000  Uiso   1.00
C98    C     0.49893   0.04276   0.25124   0.00000  Uiso   1.00
C99    C     0.45897   0.02188   0.28423   0.00000  Uiso   1.00
C100   C     0.46000   0.31166   0.28369   0.00000  Uiso   1.00
C101   C     0.49994   0.29048   0.25107   0.00000  Uiso   1.00
C102   C     0.63391   0.19399   0.28095   0.00000  Uiso   1.00
C103   C     0.34996   0.19288   0.28199   0.00000  Uiso   1.00
C104   C     0.47970   0.15861   0.48827   0.00000  Uiso   1.00
C105   C     0.36644   0.13969   0.21839   0.00000  Uiso   1.00
C106   C     0.64994   0.14054   0.21746   0.00000  Uiso   1.00
C107   C     0.49964   0.08747   0.25046   0.00000  Uiso   1.00
C108   C     0.52592   0.16761   0.15040   0.00000  Uiso   1.00
C109   C     0.57581   0.22250   0.02638   0.00000  Uiso   1.00
C110   C     0.54047   0.17567   0.09495   0.00000  Uiso   1.00
C111   C     0.41732   0.13621   0.42684   0.00000  Uiso   1.00
C112   C     0.40384   0.12675   0.47904   0.00000  Uiso   1.00
C113   C     0.43792   0.13194   0.00741   0.00000  Uiso   1.00
C114   C     0.64485   0.22634   0.09003   0.00000  Uiso   1.00
C115   C     0.48499   0.17658   0.43886   0.00000  Uiso   1.00
C116   C     0.37659   0.02847   0.33139   0.00000  Uiso   1.00
C117   C     0.61499   0.26231   0.29917   0.00000  Uiso   1.00
C118   C     0.38775   0.07170   0.20154   0.00000  Uiso   1.00
C119   C     0.65537   0.12065   0.13333   0.00000  Uiso   1.00
C120   C     0.53859   0.08623   0.06476   0.00000  Uiso   1.00
C121   C     0.42812   0.07105   0.05043   0.00000  Uiso   1.00
C122   C     0.65420   0.13217   0.49330   0.00000  Uiso   1.00
C123   C     0.47497   0.26684   0.40539   0.00000  Uiso   1.00
C124   C     0.51384   0.17154   0.01640   0.00000  Uiso   1.00
C125   C     0.54602   0.20562   0.49743   0.00000  Uiso   1.00
C126   C     0.54625   0.22451   0.45133   0.00000  Uiso   1.00
C127   C     0.51470   0.21174   0.42390   0.00000  Uiso   1.00
C128   C     0.51758   0.15370   0.06303   0.00000  Uiso   1.00
C129   C     0.57211   0.20839   0.07578   0.00000  Uiso   1.00
Cu130  Cu    0.45311   0.16666   0.25000   0.00000  Uiso   1.00
Cu131  Cu    0.54689   0.16667   0.25000   0.00000  Uiso   1.00
F132   F     0.57629   0.04141   0.18612   0.00000  Uiso   1.00
F133   F     0.42421   0.28959   0.31666   0.00000  Uiso   1.00
F134   F     0.36471   0.21750   0.31601   0.00000  Uiso   1.00
F135   F     0.57537   0.25756   0.43337   0.00000  Uiso   1.00
F136   F     0.60477   0.25578   0.00935   0.00000  Uiso   1.00
F137   F     0.39048   0.12092   0.39641   0.00000  Uiso   1.00
F138   F     0.57793   0.29141   0.18749   0.00000  Uiso   1.00
H139   H     0.65717   0.19577   0.07139   0.00000  Uiso   1.00
H140   H     0.42137   0.05295   0.18894   0.00000  Uiso   1.00
H141   H     0.36170   0.05798   0.18240   0.00000  Uiso   1.00
H142   H     0.37303   0.06899   0.24426   0.00000  Uiso   1.00
H143   H     0.35009   0.14561   0.12511   0.00000  Uiso   1.00
H144   H     0.62731   0.12886   0.11469   0.00000  Uiso   1.00
H145   H     0.33838   0.09145   0.11452   0.00000  Uiso   1.00
H146   H     0.56473   0.09197   0.08754   0.00000  Uiso   1.00
H147   H     0.55710   0.08619   0.02232   0.00000  Uiso   1.00
H148   H     0.52340   0.05480   0.07444   0.00000  Uiso   1.00
H149   H     0.39530   0.05781   0.04225   0.00000  Uiso   1.00
H150   H     0.65981   0.23005   0.12353   0.00000  Uiso   1.00
H151   H     0.42948   0.05801   0.08766   0.00000  Uiso   1.00
H152   H     0.46120   0.06026   0.01997   0.00000  Uiso   1.00
H153   H     0.64198   0.11720   0.46169   0.00000  Uiso   1.00
H154   H     0.66349   0.16526   0.48437   0.00000  Uiso   1.00
H155   H     0.62321   0.13226   0.02867   0.00000  Uiso   1.00
H156   H     0.47985   0.28229   0.44100   0.00000  Uiso   1.00
H157   H     0.43791   0.25322   0.41367   0.00000  Uiso   1.00
H158   H     0.47854   0.29135   0.37658   0.00000  Uiso   1.00
H159   H     0.66044   0.25144   0.06278   0.00000  Uiso   1.00
H160   H     0.36958   0.01134   0.29787   0.00000  Uiso   1.00
H161   H     0.35006   0.05416   0.34196   0.00000  Uiso   1.00
H162   H     0.36962   0.00851   0.36573   0.00000  Uiso   1.00
H163   H     0.62842   0.26619   0.25637   0.00000  Uiso   1.00
H164   H     0.64248   0.27378   0.31791   0.00000  Uiso   1.00
H165   H     0.58252   0.28224   0.31372   0.00000  Uiso   1.00
N166   N     0.38265   0.16666   0.24999   0.00000  Uiso   1.00
N167   N     0.61735   0.16669   0.25000   0.00000  Uiso   1.00
O168   O     0.46042   0.22678   0.25001   0.00000  Uiso   1.00
O169   O     0.42386   0.04549   0.32001   0.00000  Uiso   1.00
O170   O     0.60140   0.22111   0.31314   0.00000  Uiso   1.00
O171   O     0.39942   0.11286   0.18606   0.00000  Uiso   1.00
O172   O     0.63292   0.11334   0.18634   0.00000  Uiso   1.00
O173   O     0.50013   0.11486   0.07856   0.00000  Uiso   1.00
O174   O     0.42596   0.11487   0.05590   0.00000  Uiso   1.00
O175   O     0.35891   0.10902   0.00259   0.00000  Uiso   1.00
O176   O     0.51046   0.23644   0.38425   0.00000  Uiso   1.00
O177   O     0.53961   0.22679   0.25001   0.00000  Uiso   1.00
O178   O     0.44108   0.16665   0.32549   0.00000  Uiso   1.00
O179   O     0.52027   0.16666   0.32549   0.00000  Uiso   1.00
O180   O     0.46039   0.10654   0.25000   0.00000  Uiso   1.00
O181   O     0.53958   0.10655   0.25000   0.00000  Uiso   1.00
O182   O     0.47973   0.16667   0.17451   0.00000  Uiso   1.00
O183   O     0.55892   0.16668   0.17451   0.00000  Uiso   1.00
O184   O     0.59378   0.22992   0.10843   0.00000  Uiso   1.00
C185   C     0.83344   0.24585   0.25031   0.00000  Uiso   1.00
C186   C     0.79152   0.16055   0.40617   0.00000  Uiso   1.00
C187   C     0.87265   0.31186   0.21923   0.00000  Uiso   1.00
C188   C     0.80734   0.16593   0.34976   0.00000  Uiso   1.00
C189   C     0.87195   0.02116   0.21892   0.00000  Uiso   1.00
C190   C     0.83227   0.04276   0.25124   0.00000  Uiso   1.00
C191   C     0.79231   0.02188   0.28423   0.00000  Uiso   1.00
C192   C     0.79333   0.31166   0.28369   0.00000  Uiso   1.00
C193   C     0.83327   0.29048   0.25107   0.00000  Uiso   1.00
C194   C     0.96725   0.19399   0.28095   0.00000  Uiso   1.00
C195   C     0.68330   0.19288   0.28199   0.00000  Uiso   1.00
C196   C     0.81303   0.15861   0.48827   0.00000  Uiso   1.00
C197   C     0.69978   0.13969   0.21839   0.00000  Uiso   1.00
C198   C     0.98327   0.14054   0.21746   0.00000  Uiso   1.00
C199   C     0.83297   0.08747   0.25046   0.00000  Uiso   1.00
C200   C     0.85925   0.16761   0.15040   0.00000  Uiso   1.00
C201   C     0.90915   0.22250   0.02638   0.00000  Uiso   1.00
C202   C     0.87381   0.17567   0.09495   0.00000  Uiso   1.00
C203   C     0.75066   0.13621   0.42684   0.00000  Uiso   1.00
C204   C     0.73717   0.12675   0.47904   0.00000  Uiso   1.00
C205   C     0.77126   0.13194   0.00741   0.00000  Uiso   1.00
C206   C     0.97818   0.22634   0.09003   0.00000  Uiso   1.00
C207   C     0.81832   0.17658   0.43886   0.00000  Uiso   1.00
C208   C     0.70992   0.02847   0.33139   0.00000  Uiso   1.00
C209   C     0.94833   0.26231   0.29917   0.00000  Uiso   1.00
C210   C     0.72108   0.07170   0.20154   0.00000  Uiso   1.00
C211   C     0.98870   0.12065   0.13333   0.00000  Uiso   1.00
C212   C     0.87192   0.08623   0.06476   0.00000  Uiso   1.00
C213   C     0.76145   0.07105   0.05043   0.00000  Uiso   1.00
C214   C     0.98753   0.13217   0.49330   0.00000  Uiso   1.00
C215   C     0.80831   0.26684   0.40539   0.00000  Uiso   1.00
C216   C     0.84717   0.17154   0.01640   0.00000  Uiso   1.00
C217   C     0.87935   0.20562   0.49743   0.00000  Uiso   1.00
C218   C     0.87959   0.22451   0.45133   0.00000  Uiso   1.00
C219   C     0.84803   0.21174   0.42390   0.00000  Uiso   1.00
C220   C     0.85091   0.15370   0.06303   0.00000  Uiso   1.00
C221   C     0.90545   0.20839   0.07578   0.00000  Uiso   1.00
Cu222  Cu    0.78645   0.16666   0.25000   0.00000  Uiso   1.00
Cu223  Cu    0.88022   0.16667   0.25000   0.00000  Uiso   1.00
F224   F     0.90962   0.04141   0.18612   0.00000  Uiso   1.00
F225   F     0.75754   0.28959   0.31666   0.00000  Uiso   1.00
F226   F     0.69805   0.21750   0.31601   0.00000  Uiso   1.00
F227   F     0.90870   0.25756   0.43337   0.00000  Uiso   1.00
F228   F     0.93811   0.25578   0.00935   0.00000  Uiso   1.00
F229   F     0.72381   0.12092   0.39641   0.00000  Uiso   1.00
F230   F     0.91126   0.29141   0.18749   0.00000  Uiso   1.00
H231   H     0.99050   0.19577   0.07139   0.00000  Uiso   1.00
H232   H     0.75470   0.05295   0.18894   0.00000  Uiso   1.00
H233   H     0.69503   0.05798   0.18240   0.00000  Uiso   1.00
H234   H     0.70636   0.06899   0.24426   0.00000  Uiso   1.00
H235   H     0.68342   0.14561   0.12511   0.00000  Uiso   1.00
H236   H     0.96064   0.12886   0.11469   0.00000  Uiso   1.00
H237   H     0.67172   0.09145   0.11452   0.00000  Uiso   1.00
H238   H     0.89807   0.09197   0.08754   0.00000  Uiso   1.00
H239   H     0.89043   0.08619   0.02232   0.00000  Uiso   1.00
H240   H     0.85674   0.05480   0.07444   0.00000  Uiso   1.00
H241   H     0.72863   0.05781   0.04225   0.00000  Uiso   1.00
H242   H     0.99314   0.23005   0.12353   0.00000  Uiso   1.00
H243   H     0.76281   0.05801   0.08766   0.00000  Uiso   1.00
H244   H     0.79454   0.06026   0.01997   0.00000  Uiso   1.00
H245   H     0.97532   0.11720   0.46169   0.00000  Uiso   1.00
H246   H     0.99682   0.16526   0.48437   0.00000  Uiso   1.00
H247   H     0.95654   0.13226   0.02867   0.00000  Uiso   1.00
H248   H     0.81319   0.28229   0.44100   0.00000  Uiso   1.00
H249   H     0.77124   0.25322   0.41367   0.00000  Uiso   1.00
H250   H     0.81187   0.29135   0.37658   0.00000  Uiso   1.00
H251   H     0.99378   0.25144   0.06278   0.00000  Uiso   1.00
H252   H     0.70291   0.01134   0.29787   0.00000  Uiso   1.00
H253   H     0.68339   0.05416   0.34196   0.00000  Uiso   1.00
H254   H     0.70295   0.00851   0.36573   0.00000  Uiso   1.00
H255   H     0.96176   0.26619   0.25637   0.00000  Uiso   1.00
H256   H     0.97582   0.27378   0.31791   0.00000  Uiso   1.00
H257   H     0.91586   0.28224   0.31372   0.00000  Uiso   1.00
N258   N     0.71598   0.16666   0.24999   0.00000  Uiso   1.00
N259   N     0.95069   0.16669   0.25000   0.00000  Uiso   1.00
O260   O     0.79375   0.22678   0.25001   0.00000  Uiso   1.00
O261   O     0.75719   0.04549   0.32001   0.00000  Uiso   1.00
O262   O     0.93473   0.22111   0.31314   0.00000  Uiso   1.00
O263   O     0.73276   0.11286   0.18606   0.00000  Uiso   1.00
O264   O     0.96625   0.11334   0.18634   0.00000  Uiso   1.00
O265   O     0.83347   0.11486   0.07856   0.00000  Uiso   1.00
O266   O     0.75929   0.11487   0.05590   0.00000  Uiso   1.00
O267   O     0.69224   0.10902   0.00259   0.00000  Uiso   1.00
O268   O     0.84379   0.23644   0.38425   0.00000  Uiso   1.00
O269   O     0.87294   0.22679   0.25001   0.00000  Uiso   1.00
O270   O     0.77441   0.16665   0.32549   0.00000  Uiso   1.00
O271   O     0.85360   0.16666   0.32549   0.00000  Uiso   1.00
O272   O     0.79373   0.10654   0.25000   0.00000  Uiso   1.00
O273   O     0.87292   0.10655   0.25000   0.00000  Uiso   1.00
O274   O     0.81306   0.16667   0.17451   0.00000  Uiso   1.00
O275   O     0.89225   0.16668   0.17451   0.00000  Uiso   1.00
O276   O     0.92711   0.22992   0.10843   0.00000  Uiso   1.00
C277   C     0.16677   0.57918   0.25031   0.00000  Uiso   1.00
C278   C     0.12486   0.49388   0.40617   0.00000  Uiso   1.00
C279   C     0.20598   0.64519   0.21923   0.00000  Uiso   1.00
C280   C     0.14067   0.49927   0.34976   0.00000  Uiso   1.00
C281   C     0.20528   0.35449   0.21892   0.00000  Uiso   1.00
C282   C     0.16560   0.37609   0.25124   0.00000  Uiso   1.00
C283   C     0.12564   0.35521   0.28423   0.00000  Uiso   1.00
C284   C     0.12666   0.64499   0.28369   0.00000  Uiso   1.00
C285   C     0.16660   0.62382   0.25107   0.00000  Uiso   1.00
C286   C     0.30058   0.52733   0.28095   0.00000  Uiso   1.00
C287   C     0.01663   0.52621   0.28199   0.00000  Uiso   1.00
C288   C     0.14636   0.49195   0.48827   0.00000  Uiso   1.00
C289   C     0.03311   0.47303   0.21839   0.00000  Uiso   1.00
C290   C     0.31661   0.47387   0.21746   0.00000  Uiso   1.00
C291   C     0.16630   0.42080   0.25046   0.00000  Uiso   1.00
C292   C     0.19259   0.50095   0.15040   0.00000  Uiso   1.00
C293   C     0.24248   0.55584   0.02638   0.00000  Uiso   1.00
C294   C     0.20714   0.50901   0.09495   0.00000  Uiso   1.00
C295   C     0.08399   0.46954   0.42684   0.00000  Uiso   1.00
C296   C     0.07050   0.46009   0.47904   0.00000  Uiso   1.00
C297   C     0.10459   0.46527   0.00741   0.00000  Uiso   1.00
C298   C     0.31151   0.55968   0.09003   0.00000  Uiso   1.00
C299   C     0.15165   0.50992   0.43886   0.00000  Uiso   1.00
C300   C     0.04326   0.36181   0.33139   0.00000  Uiso   1.00
C301   C     0.28166   0.59564   0.29917   0.00000  Uiso   1.00
C302   C     0.05441   0.40503   0.20154   0.00000  Uiso   1.00
C303   C     0.32203   0.45399   0.13333   0.00000  Uiso   1.00
C304   C     0.20525   0.41956   0.06476   0.00000  Uiso   1.00
C305   C     0.09478   0.40438   0.05043   0.00000  Uiso   1.00
C306   C     0.32087   0.46550   0.49330   0.00000  Uiso   1.00
C307   C     0.14164   0.60017   0.40539   0.00000  Uiso   1.00
C308   C     0.18050   0.50487   0.01640   0.00000  Uiso   1.00
C309   C     0.21269   0.53895   0.49743   0.00000  Uiso   1.00
C310   C     0.21292   0.55784   0.45133   0.00000  Uiso   1.00
C311   C     0.18137   0.54507   0.42390   0.00000  Uiso   1.00
C312   C     0.18425   0.48703   0.06303   0.00000  Uiso   1.00
C313   C     0.23878   0.54172   0.07578   0.00000  Uiso   1.00
Cu314  Cu    0.11978   0.49999   0.25000   0.00000  Uiso   1.00
Cu315  Cu    0.21355   0.50001   0.25000   0.00000  Uiso   1.00
F316   F     0.24295   0.37474   0.18612   0.00000  Uiso   1.00
F317   F     0.09087   0.62292   0.31666   0.00000  Uiso   1.00
F318   F     0.03138   0.55083   0.31601   0.00000  Uiso   1.00
F319   F     0.24204   0.59089   0.43337   0.00000  Uiso   1.00
F320   F     0.27144   0.58911   0.00935   0.00000  Uiso   1.00
F321   F     0.05715   0.45425   0.39641   0.00000  Uiso   1.00
F322   F     0.24460   0.62475   0.18749   0.00000  Uiso   1.00
H323   H     0.32383   0.52910   0.07139   0.00000  Uiso   1.00
H324   H     0.08803   0.38629   0.18894   0.00000  Uiso   1.00
H325   H     0.02836   0.39131   0.18240   0.00000  Uiso   1.00
H326   H     0.03970   0.40232   0.24426   0.00000  Uiso   1.00
H327   H     0.01676   0.47895   0.12511   0.00000  Uiso   1.00
H328   H     0.29398   0.46219   0.11469   0.00000  Uiso   1.00
H329   H     0.00505   0.42478   0.11452   0.00000  Uiso   1.00
H330   H     0.23140   0.42530   0.08754   0.00000  Uiso   1.00
H331   H     0.22376   0.41953   0.02232   0.00000  Uiso   1.00
H332   H     0.19007   0.38814   0.07444   0.00000  Uiso   1.00
H333   H     0.06197   0.39115   0.04225   0.00000  Uiso   1.00
H334   H     0.32648   0.56338   0.12353   0.00000  Uiso   1.00
H335   H     0.09614   0.39135   0.08766   0.00000  Uiso   1.00
H336   H     0.12787   0.39360   0.01997   0.00000  Uiso   1.00
H337   H     0.30865   0.45053   0.46169   0.00000  Uiso   1.00
H338   H     0.33016   0.49859   0.48437   0.00000  Uiso   1.00
H339   H     0.28987   0.46559   0.02867   0.00000  Uiso   1.00
H340   H     0.14652   0.61562   0.44100   0.00000  Uiso   1.00
H341   H     0.10458   0.58655   0.41367   0.00000  Uiso   1.00
H342   H     0.14520   0.62468   0.37658   0.00000  Uiso   1.00
H343   H     0.32711   0.58478   0.06278   0.00000  Uiso   1.00
H344   H     0.03625   0.34468   0.29787   0.00000  Uiso   1.00
H345   H     0.01672   0.38750   0.34196   0.00000  Uiso   1.00
H346   H     0.03628   0.34185   0.36573   0.00000  Uiso   1.00
H347   H     0.29509   0.59952   0.25637   0.00000  Uiso   1.00
H348   H     0.30915   0.60711   0.31791   0.00000  Uiso   1.00
H349   H     0.24919   0.61558   0.31372   0.00000  Uiso   1.00
N350   N     0.04931   0.49999   0.24999   0.00000  Uiso   1.00
N351   N     0.28402   0.50002   0.25000   0.00000  Uiso   1.00
O352   O     0.12708   0.56011   0.25001   0.00000  Uiso   1.00
O353   O     0.09052   0.37882   0.32001   0.00000  Uiso   1.00
O354   O     0.26807   0.55445   0.31314   0.00000  Uiso   1.00
O355   O     0.06609   0.44619   0.18606   0.00000  Uiso   1.00
O356   O     0.29959   0.44667   0.18634   0.00000  Uiso   1.00
O357   O     0.16680   0.44820   0.07856   0.00000  Uiso   1.00
O358   O     0.09262   0.44820   0.05590   0.00000  Uiso   1.00
O359   O     0.02558   0.44236   0.00259   0.00000  Uiso   1.00
O360   O     0.17713   0.56977   0.38425   0.00000  Uiso   1.00
O361   O     0.20627   0.56012   0.25001   0.00000  Uiso   1.00
O362   O     0.10775   0.49998   0.32549   0.00000  Uiso   1.00
O363   O     0.18694   0.49999   0.32549   0.00000  Uiso   1.00
O364   O     0.12706   0.43988   0.25000   0.00000  Uiso   1.00
O365   O     0.20625   0.43989   0.25000   0.00000  Uiso   1.00
O366   O     0.14640   0.50001   0.17451   0.00000  Uiso   1.00
O367   O     0.22559   0.50002   0.17451   0.00000  Uiso   1.00
O368   O     0.26045   0.56325   0.10843   0.00000  Uiso   1.00
C369   C     0.50010   0.57918   0.25031   0.00000  Uiso   1.00
C370   C     0.45819   0.49388   0.40617   0.00000  Uiso   1.00
C371   C     0.53932   0.64519   0.21923   0.00000  Uiso   1.00
C372   C     0.47400   0.49927   0.34976   0.00000  Uiso   1.00
C373   C     0.53862   0.35449   0.21892   0.00000  Uiso   1.00
C374   C     0.49893   0.37609   0.25124   0.00000  Uiso   1.00
C375   C     0.45897   0.35521   0.28423   0.00000  Uiso   1.00
C376   C     0.46000   0.64499   0.28369   0.00000  Uiso   1.00
C377   C     0.49994   0.62382   0.25107   0.00000  Uiso   1.00
C378   C     0.63391   0.52733   0.28095   0.00000  Uiso   1.00
C379   C     0.34996   0.52621   0.28199   0.00000  Uiso   1.00
C380   C     0.47970   0.49195   0.48827   0.00000  Uiso   1.00
C381   C     0.36644   0.47303   0.21839   0.00000  Uiso   1.00
C382   C     0.64994   0.47387   0.21746   0.00000  Uiso   1.00
C383   C     0.49964   0.42080   0.25046   0.00000  Uiso   1.00
C384   C     0.52592   0.50095   0.15040   0.00000  Uiso   1.00
C385   C     0.57581   0.55584   0.02638   0.00000  Uiso   1.00
C386   C     0.54047   0.50901   0.09495   0.00000  Uiso   1.00
C387   C     0.41732   0.46954   0.42684   0.00000  Uiso   1.00
C388   C     0.40384   0.46009   0.47904   0.00000  Uiso   1.00
C389   C     0.43792   0.46527   0.00741   0.00000  Uiso   1.00
C390   C     0.64485   0.55968   0.09003   0.00000  Uiso   1.00
C391   C     0.48499   0.50992   0.43886   0.00000  Uiso   1.00
C392   C     0.37659   0.36181   0.33139   0.00000  Uiso   1.00
C393   C     0.61499   0.59564   0.29917   0.00000  Uiso   1.00
C394   C     0.38775   0.40503   0.20154   0.00000  Uiso   1.00
C395   C     0.65537   0.45399   0.13333   0.00000  Uiso   1.00
C396   C     0.53859   0.41956   0.06476   0.00000  Uiso   1.00
C397   C     0.42812   0.40438   0.05043   0.00000  Uiso   1.00
C398   C     0.65420   0.46550   0.49330   0.00000  Uiso   1.00
C399   C     0.47497   0.60017   0.40539   0.00000  Uiso   1.00
C400   C     0.51384   0.50487   0.01640   0.00000  Uiso   1.00
C401   C     0.54602   0.53895   0.49743   0.00000  Uiso   1.00
C402   C     0.54625   0.55784   0.45133   0.00000  Uiso   1.00
C403   C     0.51470   0.54507   0.42390   0.00000  Uiso   1.00
C404   C     0.51758   0.48703   0.06303   0.00000  Uiso   1.00
C405   C     0.57211   0.54172   0.07578   0.00000  Uiso   1.00
Cu406  Cu    0.45311   0.49999   0.25000   0.00000  Uiso   1.00
Cu407  Cu    0.54689   0.50001   0.25000   0.00000  Uiso   1.00
F408   F     0.57629   0.37474   0.18612   0.00000  Uiso   1.00
F409   F     0.42421   0.62292   0.31666   0.00000  Uiso   1.00
F410   F     0.36471   0.55083   0.31601   0.00000  Uiso   1.00
F411   F     0.57537   0.59089   0.43337   0.00000  Uiso   1.00
F412   F     0.60477   0.58911   0.00935   0.00000  Uiso   1.00
F413   F     0.39048   0.45425   0.39641   0.00000  Uiso   1.00
F414   F     0.57793   0.62475   0.18749   0.00000  Uiso   1.00
H415   H     0.65717   0.52910   0.07139   0.00000  Uiso   1.00
H416   H     0.42137   0.38629   0.18894   0.00000  Uiso   1.00
H417   H     0.36170   0.39131   0.18240   0.00000  Uiso   1.00
H418   H     0.37303   0.40232   0.24426   0.00000  Uiso   1.00
H419   H     0.35009   0.47895   0.12511   0.00000  Uiso   1.00
H420   H     0.62731   0.46219   0.11469   0.00000  Uiso   1.00
H421   H     0.33838   0.42478   0.11452   0.00000  Uiso   1.00
H422   H     0.56473   0.42530   0.08754   0.00000  Uiso   1.00
H423   H     0.55710   0.41953   0.02232   0.00000  Uiso   1.00
H424   H     0.52340   0.38814   0.07444   0.00000  Uiso   1.00
H425   H     0.39530   0.39115   0.04225   0.00000  Uiso   1.00
H426   H     0.65981   0.56338   0.12353   0.00000  Uiso   1.00
H427   H     0.42948   0.39135   0.08766   0.00000  Uiso   1.00
H428   H     0.46120   0.39360   0.01997   0.00000  Uiso   1.00
H429   H     0.64198   0.45053   0.46169   0.00000  Uiso   1.00
H430   H     0.66349   0.49859   0.48437   0.00000  Uiso   1.00
H431   H     0.62321   0.46559   0.02867   0.00000  Uiso   1.00
H432   H     0.47985   0.61562   0.44100   0.00000  Uiso   1.00
H433   H     0.43791   0.58655   0.41367   0.00000  Uiso   1.00
H434   H     0.47854   0.62468   0.37658   0.00000  Uiso   1.00
H435   H     0.66044   0.58478   0.06278   0.00000  Uiso   1.00
H436   H     0.36958   0.34468   0.29787   0.00000  Uiso   1.00
H437   H     0.35006   0.38750   0.34196   0.00000  Uiso   1.00
H438   H     0.36962   0.34185   0.36573   0.00000  Uiso   1.00
H439   H     0.62842   0.59952   0.25637   0.00000  Uiso   1.00
H440   H     0.64248   0.60711   0.31791   0.00000  Uiso   1.00
H441   H     0.58252   0.61558   0.31372   0.00000  Uiso   1.00
N442   N     0.38265   0.49999   0.24999   0.00000  Uiso   1.00
N443   N     0.61735   0.50002   0.25000   0.00000  Uiso   1.00
O444   O     0.46042   0.56011   0.25001   0.00000  Uiso   1.00
O445   O     0.42386   0.37882   0.32001   0.00000  Uiso   1.00
O446   O     0.60140   0.55445   0.31314   0.00000  Uiso   1.00
O447   O     0.39942   0.44619   0.18606   0.00000  Uiso   1.00
O448   O     0.63292   0.44667   0.18634   0.00000  Uiso   1.00
O449   O     0.50013   0.44820   0.07856   0.00000  Uiso   1.00
O450   O     0.42596   0.44820   0.05590   0.00000  Uiso   1.00
O451   O     0.35891   0.44236   0.00259   0.00000  Uiso   1.00
O452   O     0.51046   0.56977   0.38425   0.00000  Uiso   1.00
O453   O     0.53961   0.56012   0.25001   0.00000  Uiso   1.00
O454   O     0.44108   0.49998   0.32549   0.00000  Uiso   1.00
O455   O     0.52027   0.49999   0.32549   0.00000  Uiso   1.00
O456   O     0.46039   0.43988   0.25000   0.00000  Uiso   1.00
O457   O     0.53958   0.43989   0.25000   0.00000  Uiso   1.00
O458   O     0.47973   0.50001   0.17451   0.00000  Uiso   1.00
O459   O     0.55892   0.50002   0.17451   0.00000  Uiso   1.00
O460   O     0.59378   0.56325   0.10843   0.00000  Uiso   1.00
C461   C     0.83344   0.57918   0.25031   0.00000  Uiso   1.00
C462   C     0.79152   0.49388   0.40617   0.00000  Uiso   1.00
C463   C     0.87265   0.64519   0.21923   0.00000  Uiso   1.00
C464   C     0.80734   0.49927   0.34976   0.00000  Uiso   1.00
C465   C     0.87195   0.35449   0.21892   0.00000  Uiso   1.00
C466   C     0.83227   0.37609   0.25124   0.00000  Uiso   1.00
C467   C     0.79231   0.35521   0.28423   0.00000  Uiso   1.00
C468   C     0.79333   0.64499   0.28369   0.00000  Uiso   1.00
C469   C     0.83327   0.62382   0.25107   0.00000  Uiso   1.00
C470   C     0.96725   0.52733   0.28095   0.00000  Uiso   1.00
C471   C     0.68330   0.52621   0.28199   0.00000  Uiso   1.00
C472   C     0.81303   0.49195   0.48827   0.00000  Uiso   1.00
C473   C     0.69978   0.47303   0.21839   0.00000  Uiso   1.00
C474   C     0.98327   0.47387   0.21746   0.00000  Uiso   1.00
C475   C     0.83297   0.42080   0.25046   0.00000  Uiso   1.00
C476   C     0.85925   0.50095   0.15040   0.00000  Uiso   1.00
C477   C     0.90915   0.55584   0.02638   0.00000  Uiso   1.00
C478   C     0.87381   0.50901   0.09495   0.00000  Uiso   1.00
C479   C     0.75066   0.46954   0.42684   0.00000  Uiso   1.00
C480   C     0.73717   0.46009   0.47904   0.00000  Uiso   1.00
C481   C     0.77126   0.46527   0.00741   0.00000  Uiso   1.00
C482   C     0.97818   0.55968   0.09003   0.00000  Uiso   1.00
C483   C     0.81832   0.50992   0.43886   0.00000  Uiso   1.00
C484   C     0.70992   0.36181   0.33139   0.00000  Uiso   1.00
C485   C     0.94833   0.59564   0.29917   0.00000  Uiso   1.00
C486   C     0.72108   0.40503   0.20154   0.00000  Uiso   1.00
C487   C     0.98870   0.45399   0.13333   0.00000  Uiso   1.00
C488   C     0.87192   0.41956   0.06476   0.00000  Uiso   1.00
C489   C     0.76145   0.40438   0.05043   0.00000  Uiso   1.00
C490   C     0.98753   0.46550   0.49330   0.00000  Uiso   1.00
C491   C     0.80831   0.60017   0.40539   0.00000  Uiso   1.00
C492   C     0.84717   0.50487   0.01640   0.00000  Uiso   1.00
C493   C     0.87935   0.53895   0.49743   0.00000  Uiso   1.00
C494   C     0.87959   0.55784   0.45133   0.00000  Uiso   1.00
C495   C     0.84803   0.54507   0.42390   0.00000  Uiso   1.00
C496   C     0.85091   0.48703   0.06303   0.00000  Uiso   1.00
C497   C     0.90545   0.54172   0.07578   0.00000  Uiso   1.00
Cu498  Cu    0.78645   0.49999   0.25000   0.00000  Uiso   1.00
Cu499  Cu    0.88022   0.50001   0.25000   0.00000  Uiso   1.00
F500   F     0.90962   0.37474   0.18612   0.00000  Uiso   1.00
F501   F     0.75754   0.62292   0.31666   0.00000  Uiso   1.00
F502   F     0.69805   0.55083   0.31601   0.00000  Uiso   1.00
F503   F     0.90870   0.59089   0.43337   0.00000  Uiso   1.00
F504   F     0.93811   0.58911   0.00935   0.00000  Uiso   1.00
F505   F     0.72381   0.45425   0.39641   0.00000  Uiso   1.00
F506   F     0.91126   0.62475   0.18749   0.00000  Uiso   1.00
H507   H     0.99050   0.52910   0.07139   0.00000  Uiso   1.00
H508   H     0.75470   0.38629   0.18894   0.00000  Uiso   1.00
H509   H     0.69503   0.39131   0.18240   0.00000  Uiso   1.00
H510   H     0.70636   0.40232   0.24426   0.00000  Uiso   1.00
H511   H     0.68342   0.47895   0.12511   0.00000  Uiso   1.00
H512   H     0.96064   0.46219   0.11469   0.00000  Uiso   1.00
H513   H     0.67172   0.42478   0.11452   0.00000  Uiso   1.00
H514   H     0.89807   0.42530   0.08754   0.00000  Uiso   1.00
H515   H     0.89043   0.41953   0.02232   0.00000  Uiso   1.00
H516   H     0.85674   0.38814   0.07444   0.00000  Uiso   1.00
H517   H     0.72863   0.39115   0.04225   0.00000  Uiso   1.00
H518   H     0.99314   0.56338   0.12353   0.00000  Uiso   1.00
H519   H     0.76281   0.39135   0.08766   0.00000  Uiso   1.00
H520   H     0.79454   0.39360   0.01997   0.00000  Uiso   1.00
H521   H     0.97532   0.45053   0.46169   0.00000  Uiso   1.00
H522   H     0.99682   0.49859   0.48437   0.00000  Uiso   1.00
H523   H     0.95654   0.46559   0.02867   0.00000  Uiso   1.00
H524   H     0.81319   0.61562   0.44100   0.00000  Uiso   1.00
H525   H     0.77124   0.58655   0.41367   0.00000  Uiso   1.00
H526   H     0.81187   0.62468   0.37658   0.00000  Uiso   1.00
H527   H     0.99378   0.58478   0.06278   0.00000  Uiso   1.00
H528   H     0.70291   0.34468   0.29787   0.00000  Uiso   1.00
H529   H     0.68339   0.38750   0.34196   0.00000  Uiso   1.00
H530   H     0.70295   0.34185   0.36573   0.00000  Uiso   1.00
H531   H     0.96176   0.59952   0.25637   0.00000  Uiso   1.00
H532   H     0.97582   0.60711   0.31791   0.00000  Uiso   1.00
H533   H     0.91586   0.61558   0.31372   0.00000  Uiso   1.00
N534   N     0.71598   0.49999   0.24999   0.00000  Uiso   1.00
N535   N     0.95069   0.50002   0.25000   0.00000  Uiso   1.00
O536   O     0.79375   0.56011   0.25001   0.00000  Uiso   1.00
O537   O     0.75719   0.37882   0.32001   0.00000  Uiso   1.00
O538   O     0.93473   0.55445   0.31314   0.00000  Uiso   1.00
O539   O     0.73276   0.44619   0.18606   0.00000  Uiso   1.00
O540   O     0.96625   0.44667   0.18634   0.00000  Uiso   1.00
O541   O     0.83347   0.44820   0.07856   0.00000  Uiso   1.00
O542   O     0.75929   0.44820   0.05590   0.00000  Uiso   1.00
O543   O     0.69224   0.44236   0.00259   0.00000  Uiso   1.00
O544   O     0.84379   0.56977   0.38425   0.00000  Uiso   1.00
O545   O     0.87294   0.56012   0.25001   0.00000  Uiso   1.00
O546   O     0.77441   0.49998   0.32549   0.00000  Uiso   1.00
O547   O     0.85360   0.49999   0.32549   0.00000  Uiso   1.00
O548   O     0.79373   0.43988   0.25000   0.00000  Uiso   1.00
O549   O     0.87292   0.43989   0.25000   0.00000  Uiso   1.00
O550   O     0.81306   0.50001   0.17451   0.00000  Uiso   1.00
O551   O     0.89225   0.50002   0.17451   0.00000  Uiso   1.00
O552   O     0.92711   0.56325   0.10843   0.00000  Uiso   1.00
C553   C     0.16677   0.91251   0.25031   0.00000  Uiso   1.00
C554   C     0.12486   0.82722   0.40617   0.00000  Uiso   1.00
C555   C     0.20598   0.97852   0.21923   0.00000  Uiso   1.00
C556   C     0.14067   0.83260   0.34976   0.00000  Uiso   1.00
C557   C     0.20528   0.68783   0.21892   0.00000  Uiso   1.00
C558   C     0.16560   0.70942   0.25124   0.00000  Uiso   1.00
C559   C     0.12564   0.68854   0.28423   0.00000  Uiso   1.00
C560   C     0.12666   0.97833   0.28369   0.00000  Uiso   1.00
C561   C     0.16660   0.95715   0.25107   0.00000  Uiso   1.00
C562   C     0.30058   0.86066   0.28095   0.00000  Uiso   1.00
C563   C     0.01663   0.85955   0.28199   0.00000  Uiso   1.00
C564   C     0.14636   0.82528   0.48827   0.00000  Uiso   1.00
C565   C     0.03311   0.80636   0.21839   0.00000  Uiso   1.00
C566   C     0.31661   0.80720   0.21746   0.00000  Uiso   1.00
C567   C     0.16630   0.75413   0.25046   0.00000  Uiso   1.00
C568   C     0.19259   0.83428   0.15040   0.00000  Uiso   1.00
C569   C     0.24248   0.88917   0.02638   0.00000  Uiso   1.00
C570   C     0.20714   0.84234   0.09495   0.00000  Uiso   1.00
C571   C     0.08399   0.80288   0.42684   0.00000  Uiso   1.00
C572   C     0.07050   0.79342   0.47904   0.00000  Uiso   1.00
C573   C     0.10459   0.79861   0.00741   0.00000  Uiso   1.00
C574   C     0.31151   0.89301   0.09003   0.00000  Uiso   1.00
C575   C     0.15165   0.84325   0.43886   0.00000  Uiso   1.00
C576   C     0.04326   0.69514   0.33139   0.00000  Uiso   1.00
C577   C     0.28166   0.92898   0.29917   0.00000  Uiso   1.00
C578   C     0.05441   0.73836   0.20154   0.00000  Uiso   1.00
C579   C     0.32203   0.78732   0.13333   0.00000  Uiso   1.00
C580   C     0.20525   0.75289   0.06476   0.00000  Uiso   1.00
C581   C     0.09478   0.73771   0.05043   0.00000  Uiso   1.00
C582   C     0.32087   0.79884   0.49330   0.00000  Uiso   1.00
C583   C     0.14164   0.93350   0.40539   0.00000  Uiso   1.00
C584   C     0.18050   0.83821   0.01640   0.00000  Uiso   1.00
C585   C     0.21269   0.87229   0.49743   0.00000  Uiso   1.00
C586   C     0.21292   0.89118   0.45133   0.00000  Uiso   1.00
C587   C     0.18137   0.87840   0.42390   0.00000  Uiso   1.00
C588   C     0.18425   0.82037   0.06303   0.00000  Uiso   1.00
C589   C     0.23878   0.87505   0.07578   0.00000  Uiso   1.00
Cu590  Cu    0.11978   0.83333   0.25000   0.00000  Uiso   1.00
Cu591  Cu    0.21355   0.83334   0.25000   0.00000  Uiso   1.00
F592   F     0.24295   0.70808   0.18612   0.00000  Uiso   1.00
F593   F     0.09087   0.95626   0.31666   0.00000  Uiso   1.00
F594   F     0.03138   0.88416   0.31601   0.00000  Uiso   1.00
F595   F     0.24204   0.92422   0.43337   0.00000  Uiso   1.00
F596   F     0.27144   0.92244   0.00935   0.00000  Uiso   1.00
F597   F     0.05715   0.78758   0.39641   0.00000  Uiso   1.00
F598   F     0.24460   0.95808   0.18749   0.00000  Uiso   1.00
H599   H     0.32383   0.86243   0.07139   0.00000  Uiso   1.00
H600   H     0.08803   0.71962   0.18894   0.00000  Uiso   1.00
H601   H     0.02836   0.72464   0.18240   0.00000  Uiso   1.00
H602   H     0.03970   0.73565   0.24426   0.00000  Uiso   1.00
H603   H     0.01676   0.81228   0.12511   0.00000  Uiso   1.00
H604   H     0.29398   0.79552   0.11469   0.00000  Uiso   1.00
H605   H     0.00505   0.75812   0.11452   0.00000  Uiso   1.00
H606   H     0.23140   0.75864   0.08754   0.00000  Uiso   1.00
H607   H     0.22376   0.75286   0.02232   0.00000  Uiso   1.00
H608   H     0.19007   0.72147   0.07444   0.00000  Uiso   1.00
H609   H     0.06197   0.72448   0.04225   0.00000  Uiso   1.00
H610   H     0.32648   0.89671   0.12353   0.00000  Uiso   1.00
H611   H     0.09614   0.72468   0.08766   0.00000  Uiso   1.00
H612   H     0.12787   0.72693   0.01997   0.00000  Uiso   1.00
H613   H     0.30865   0.78386   0.46169   0.00000  Uiso   1.00
H614   H     0.33016   0.83193   0.48437   0.00000  Uiso   1.00
H615   H     0.28987   0.79893   0.02867   0.00000  Uiso   1.00
H616   H     0.14652   0.94896   0.44100   0.00000  Uiso   1.00
H617   H     0.10458   0.91989   0.41367   0.00000  Uiso   1.00
H618   H     0.14520   0.95801   0.37658   0.00000  Uiso   1.00
H619   H     0.32711   0.91811   0.06278   0.00000  Uiso   1.00
H620   H     0.03625   0.67801   0.29787   0.00000  Uiso   1.00
H621   H     0.01672   0.72083   0.34196   0.00000  Uiso   1.00
H622   H     0.03628   0.67518   0.36573   0.00000  Uiso   1.00
H623   H     0.29509   0.93285   0.25637   0.00000  Uiso   1.00
H624   H     0.30915   0.94044   0.31791   0.00000  Uiso   1.00
H625   H     0.24919   0.94891   0.31372   0.00000  Uiso   1.00
N626   N     0.04931   0.83332   0.24999   0.00000  Uiso   1.00
N627   N     0.28402   0.83335   0.25000   0.00000  Uiso   1.00
O628   O     0.12708   0.89345   0.25001   0.00000  Uiso   1.00
O629   O     0.09052   0.71215   0.32001   0.00000  Uiso   1.00
O630   O     0.26807   0.88778   0.31314   0.00000  Uiso   1.00
O631   O     0.06609   0.77952   0.18606   0.00000  Uiso   1.00
O632   O     0.29959   0.78000   0.18634   0.00000  Uiso   1.00
O633   O     0.16680   0.78153   0.07856   0.00000  Uiso   1.00
O634   O     0.09262   0.78154   0.05590   0.00000  Uiso   1.00
O635   O     0.02558   0.77569   0.00259   0.00000  Uiso   1.00
O636   O     0.17713   0.90310   0.38425   0.00000  Uiso   1.00
O637   O     0.20627   0.89346   0.25001   0.00000  Uiso   1.00
O638   O     0.10775   0.83332   0.32549   0.00000  Uiso   1.00
O639   O     0.18694   0.83333   0.32549   0.00000  Uiso   1.00
O640   O     0.12706   0.77321   0.25000   0.00000  Uiso   1.00
O641   O     0.20625   0.77322   0.25000   0.00000  Uiso   1.00
O642   O     0.14640   0.83334   0.17451   0.00000  Uiso   1.00
O643   O     0.22559   0.83335   0.17451   0.00000  Uiso   1.00
O644   O     0.26045   0.89658   0.10843   0.00000  Uiso   1.00
C645   C     0.50010   0.91251   0.25031   0.00000  Uiso   1.00
C646   C     0.45819   0.82722   0.40617   0.00000  Uiso   1.00
C647   C     0.53932   0.97852   0.21923   0.00000  Uiso   1.00
C648   C     0.47400   0.83260   0.34976   0.00000  Uiso   1.00
C649   C     0.53862   0.68783   0.21892   0.00000  Uiso   1.00
C650   C     0.49893   0.70942   0.25124   0.00000  Uiso   1.00
C651   C     0.45897   0.68854   0.28423   0.00000  Uiso   1.00
C652   C     0.46000   0.97833   0.28369   0.00000  Uiso   1.00
C653   C     0.49994   0.95715   0.25107   0.00000  Uiso   1.00
C654   C     0.63391   0.86066   0.28095   0.00000  Uiso   1.00
C655   C     0.34996   0.85955   0.28199   0.00000  Uiso   1.00
C656   C     0.47970   0.82528   0.48827   0.00000  Uiso   1.00
C657   C     0.36644   0.80636   0.21839   0.00000  Uiso   1.00
C658   C     0.64994   0.80720   0.21746   0.00000  Uiso   1.00
C659   C     0.49964   0.75413   0.25046   0.00000  Uiso   1.00
C660   C     0.52592   0.83428   0.15040   0.00000  Uiso   1.00
C661   C     0.57581   0.88917   0.02638   0.00000  Uiso   1.00
C662   C     0.54047   0.84234   0.09495   0.00000  Uiso   1.00
C663   C     0.41732   0.80288   0.42684   0.00000  Uiso   1.00
C664   C     0.40384   0.79342   0.47904   0.00000  Uiso   1.00
C665   C     0.43792   0.79861   0.00741   0.00000  Uiso   1.00
C666   C     0.64485   0.89301   0.09003   0.00000  Uiso   1.00
C667   C     0.48499   0.84325   0.43886   0.00000  Uiso   1.00
C668   C     0.37659   0.69514   0.33139   0.00000  Uiso   1.00
C669   C     0.61499   0.92898   0.29917   0.00000  Uiso   1.00
C670   C     0.38775   0.73836   0.20154   0.00000  Uiso   1.00
C671   C     0.65537   0.78732   0.13333   0.00000  Uiso   1.00
C672   C     0.53859   0.75289   0.06476   0.00000  Uiso   1.00
C673   C     0.42812   0.73771   0.05043   0.00000  Uiso   1.00
C674   C     0.65420   0.79884   0.49330   0.00000  Uiso   1.00
C675   C     0.47497   0.93350   0.40539   0.00000  Uiso   1.00
C676   C     0.51384   0.83821   0.01640   0.00000  Uiso   1.00
C677   C     0.54602   0.87229   0.49743   0.00000  Uiso   1.00
C678   C     0.54625   0.89118   0.45133   0.00000  Uiso   1.00
C679   C     0.51470   0.87840   0.42390   0.00000  Uiso   1.00
C680   C     0.51758   0.82037   0.06303   0.00000  Uiso   1.00
C681   C     0.57211   0.87505   0.07578   0.00000  Uiso   1.00
Cu682  Cu    0.45311   0.83333   0.25000   0.00000  Uiso   1.00
Cu683  Cu    0.54689   0.83334   0.25000   0.00000  Uiso   1.00
F684   F     0.57629   0.70808   0.18612   0.00000  Uiso   1.00
F685   F     0.42421   0.95626   0.31666   0.00000  Uiso   1.00
F686   F     0.36471   0.88416   0.31601   0.00000  Uiso   1.00
F687   F     0.57537   0.92422   0.43337   0.00000  Uiso   1.00
F688   F     0.60477   0.92244   0.00935   0.00000  Uiso   1.00
F689   F     0.39048   0.78758   0.39641   0.00000  Uiso   1.00
F690   F     0.57793   0.95808   0.18749   0.00000  Uiso   1.00
H691   H     0.65717   0.86243   0.07139   0.00000  Uiso   1.00
H692   H     0.42137   0.71962   0.18894   0.00000  Uiso   1.00
H693   H     0.36170   0.72464   0.18240   0.00000  Uiso   1.00
H694   H     0.37303   0.73565   0.24426   0.00000  Uiso   1.00
H695   H     0.35009   0.81228   0.12511   0.00000  Uiso   1.00
H696   H     0.62731   0.79552   0.11469   0.00000  Uiso   1.00
H697   H     0.33838   0.75812   0.11452   0.00000  Uiso   1.00
H698   H     0.56473   0.75864   0.08754   0.00000  Uiso   1.00
H699   H     0.55710   0.75286   0.02232   0.00000  Uiso   1.00
H700   H     0.52340   0.72147   0.07444   0.00000  Uiso   1.00
H701   H     0.39530   0.72448   0.04225   0.00000  Uiso   1.00
H702   H     0.65981   0.89671   0.12353   0.00000  Uiso   1.00
H703   H     0.42948   0.72468   0.08766   0.00000  Uiso   1.00
H704   H     0.46120   0.72693   0.01997   0.00000  Uiso   1.00
H705   H     0.64198   0.78386   0.46169   0.00000  Uiso   1.00
H706   H     0.66349   0.83193   0.48437   0.00000  Uiso   1.00
H707   H     0.62321   0.79893   0.02867   0.00000  Uiso   1.00
H708   H     0.47985   0.94896   0.44100   0.00000  Uiso   1.00
H709   H     0.43791   0.91989   0.41367   0.00000  Uiso   1.00
H710   H     0.47854   0.95801   0.37658   0.00000  Uiso   1.00
H711   H     0.66044   0.91811   0.06278   0.00000  Uiso   1.00
H712   H     0.36958   0.67801   0.29787   0.00000  Uiso   1.00
H713   H     0.35006   0.72083   0.34196   0.00000  Uiso   1.00
H714   H     0.36962   0.67518   0.36573   0.00000  Uiso   1.00
H715   H     0.62842   0.93285   0.25637   0.00000  Uiso   1.00
H716   H     0.64248   0.94044   0.31791   0.00000  Uiso   1.00
H717   H     0.58252   0.94891   0.31372   0.00000  Uiso   1.00
N718   N     0.38265   0.83332   0.24999   0.00000  Uiso   1.00
N719   N     0.61735   0.83335   0.25000   0.00000  Uiso   1.00
O720   O     0.46042   0.89345   0.25001   0.00000  Uiso   1.00
O721   O     0.42386   0.71215   0.32001   0.00000  Uiso   1.00
O722   O     0.60140   0.88778   0.31314   0.00000  Uiso   1.00
O723   O     0.39942   0.77952   0.18606   0.00000  Uiso   1.00
O724   O     0.63292   0.78000   0.18634   0.00000  Uiso   1.00
O725   O     0.50013   0.78153   0.07856   0.00000  Uiso   1.00
O726   O     0.42596   0.78154   0.05590   0.00000  Uiso   1.00
O727   O     0.35891   0.77569   0.00259   0.00000  Uiso   1.00
O728   O     0.51046   0.90310   0.38425   0.00000  Uiso   1.00
O729   O     0.53961   0.89346   0.25001   0.00000  Uiso   1.00
O730   O     0.44108   0.83332   0.32549   0.00000  Uiso   1.00
O731   O     0.52027   0.83333   0.32549   0.00000  Uiso   1.00
O732   O     0.46039   0.77321   0.25000   0.00000  Uiso   1.00
O733   O     0.53958   0.77322   0.25000   0.00000  Uiso   1.00
O734   O     0.47973   0.83334   0.17451   0.00000  Uiso   1.00
O735   O     0.55892   0.83335   0.17451   0.00000  Uiso   1.00
O736   O     0.59378   0.89658   0.10843   0.00000  Uiso   1.00
C737   C     0.83344   0.91251   0.25031   0.00000  Uiso   1.00
C738   C     0.79152   0.82722   0.40617   0.00000  Uiso   1.00
C739   C     0.87265   0.97852   0.21923   0.00000  Uiso   1.00
C740   C     0.80734   0.83260   0.34976   0.00000  Uiso   1.00
C741   C     0.87195   0.68783   0.21892   0.00000  Uiso   1.00
C742   C     0.83227   0.70942   0.25124   0.00000  Uiso   1.00
C743   C     0.79231   0.68854   0.28423   0.00000  Uiso   1.00
C744   C     0.79333   0.97833   0.28369   0.00000  Uiso   1.00
C745   C     0.83327   0.95715   0.25107   0.00000  Uiso   1.00
C746   C     0.96725   0.86066   0.28095   0.00000  Uiso   1.00
C747   C     0.68330   0.85955   0.28199   0.00000  Uiso   1.00
C748   C     0.81303   0.82528   0.48827   0.00000  Uiso   1.00
C749   C     0.69978   0.80636   0.21839   0.00000  Uiso   1.00
C750   C     0.98327   0.80720   0.21746   0.00000  Uiso   1.00
C751   C     0.83297   0.75413   0.25046   0.00000  Uiso   1.00
C752   C     0.85925   0.83428   0.15040   0.00000  Uiso   1.00
C753   C     0.90915   0.88917   0.02638   0.00000  Uiso   1.00
C754   C     0.87381   0.84234   0.09495   0.00000  Uiso   1.00
C755   C     0.75066   0.80288   0.42684   0.00000  Uiso   1.00
C756   C     0.73717   0.79342   0.47904   0.00000  Uiso   1.00
C757   C     0.77126   0.79861   0.00741   0.00000  Uiso   1.00
C758   C     0.97818   0.89301   0.09003   0.00000  Uiso   1.00
C759   C     0.81832   0.84325   0.43886   0.00000  Uiso   1.00
C760   C     0.70992   0.69514   0.33139   0.00000  Uiso   1.00
C761   C     0.94833   0.92898   0.29917   0.00000  Uiso   1.00
C762   C     0.72108   0.73836   0.20154   0.00000  Uiso   1.00
C763   C     0.98870   0.78732   0.13333   0.00000  Uiso   1.00
C764   C     0.87192   0.75289   0.06476   0.00000  Uiso   1.00
C765   C     0.76145   0.73771   0.05043   0.00000  Uiso   1.00
C766   C     0.98753   0.79884   0.49330   0.00000  Uiso   1.00
C767   C     0.80831   0.93350   0.40539   0.00000  Uiso   1.00
C768   C     0.84717   0.83821   0.01640   0.00000  Uiso   1.00
C769   C     0.87935   0.87229   0.49743   0.00000  Uiso   1.00
C770   C     0.87959   0.89118   0.45133   0.00000  Uiso   1.00
C771   C     0.84803   0.87840   0.42390   0.00000  Uiso   1.00
C772   C     0.85091   0.82037   0.06303   0.00000  Uiso   1.00
C773   C     0.90545   0.87505   0.07578   0.00000  Uiso   1.00
Cu774  Cu    0.78645   0.83333   0.25000   0.00000  Uiso   1.00
Cu775  Cu    0.88022   0.83334   0.25000   0.00000  Uiso   1.00
F776   F     0.90962   0.70808   0.18612   0.00000  Uiso   1.00
F777   F     0.75754   0.95626   0.31666   0.00000  Uiso   1.00
F778   F     0.69805   0.88416   0.31601   0.00000  Uiso   1.00
F779   F     0.90870   0.92422   0.43337   0.00000  Uiso   1.00
F780   F     0.93811   0.92244   0.00935   0.00000  Uiso   1.00
F781   F     0.72381   0.78758   0.39641   0.00000  Uiso   1.00
F782   F     0.91126   0.95808   0.18749   0.00000  Uiso   1.00
H783   H     0.99050   0.86243   0.07139   0.00000  Uiso   1.00
H784   H     0.75470   0.71962   0.18894   0.00000  Uiso   1.00
H785   H     0.69503   0.72464   0.18240   0.00000  Uiso   1.00
H786   H     0.70636   0.73565   0.24426   0.00000  Uiso   1.00
H787   H     0.68342   0.81228   0.12511   0.00000  Uiso   1.00
H788   H     0.96064   0.79552   0.11469   0.00000  Uiso   1.00
H789   H     0.67172   0.75812   0.11452   0.00000  Uiso   1.00
H790   H     0.89807   0.75864   0.08754   0.00000  Uiso   1.00
H791   H     0.89043   0.75286   0.02232   0.00000  Uiso   1.00
H792   H     0.85674   0.72147   0.07444   0.00000  Uiso   1.00
H793   H     0.72863   0.72448   0.04225   0.00000  Uiso   1.00
H794   H     0.99314   0.89671   0.12353   0.00000  Uiso   1.00
H795   H     0.76281   0.72468   0.08766   0.00000  Uiso   1.00
H796   H     0.79454   0.72693   0.01997   0.00000  Uiso   1.00
H797   H     0.97532   0.78386   0.46169   0.00000  Uiso   1.00
H798   H     0.99682   0.83193   0.48437   0.00000  Uiso   1.00
H799   H     0.95654   0.79893   0.02867   0.00000  Uiso   1.00
H800   H     0.81319   0.94896   0.44100   0.00000  Uiso   1.00
H801   H     0.77124   0.91989   0.41367   0.00000  Uiso   1.00
H802   H     0.81187   0.95801   0.37658   0.00000  Uiso   1.00
H803   H     0.99378   0.91811   0.06278   0.00000  Uiso   1.00
H804   H     0.70291   0.67801   0.29787   0.00000  Uiso   1.00
H805   H     0.68339   0.72083   0.34196   0.00000  Uiso   1.00
H806   H     0.70295   0.67518   0.36573   0.00000  Uiso   1.00
H807   H     0.96176   0.93285   0.25637   0.00000  Uiso   1.00
H808   H     0.97582   0.94044   0.31791   0.00000  Uiso   1.00
H809   H     0.91586   0.94891   0.31372   0.00000  Uiso   1.00
N810   N     0.71598   0.83332   0.24999   0.00000  Uiso   1.00
N811   N     0.95069   0.83335   0.25000   0.00000  Uiso   1.00
O812   O     0.79375   0.89345   0.25001   0.00000  Uiso   1.00
O813   O     0.75719   0.71215   0.32001   0.00000  Uiso   1.00
O814   O     0.93473   0.88778   0.31314   0.00000  Uiso   1.00
O815   O     0.73276   0.77952   0.18606   0.00000  Uiso   1.00
O816   O     0.96625   0.78000   0.18634   0.00000  Uiso   1.00
O817   O     0.83347   0.78153   0.07856   0.00000  Uiso   1.00
O818   O     0.75929   0.78154   0.05590   0.00000  Uiso   1.00
O819   O     0.69224   0.77569   0.00259   0.00000  Uiso   1.00
O820   O     0.84379   0.90310   0.38425   0.00000  Uiso   1.00
O821   O     0.87294   0.89346   0.25001   0.00000  Uiso   1.00
O822   O     0.77441   0.83332   0.32549   0.00000  Uiso   1.00
O823   O     0.85360   0.83333   0.32549   0.00000  Uiso   1.00
O824   O     0.79373   0.77321   0.25000   0.00000  Uiso   1.00
O825   O     0.87292   0.77322   0.25000   0.00000  Uiso   1.00
O826   O     0.81306   0.83334   0.17451   0.00000  Uiso   1.00
O827   O     0.89225   0.83335   0.17451   0.00000  Uiso   1.00
O828   O     0.92711   0.89658   0.10843   0.00000  Uiso   1.00
C829   C     0.16677   0.24585   0.75031   0.00000  Uiso   1.00
C830   C     0.12486   0.16055   0.90617   0.00000  Uiso   1.00
C831   C     0.20598   0.31186   0.71923   0.00000  Uiso   1.00
C832   C     0.14067   0.16593   0.84976   0.00000  Uiso   1.00
C833   C     0.20528   0.02116   0.71892   0.00000  Uiso   1.00
C834   C     0.16560   0.04276   0.75124   0.00000  Uiso   1.00
C835   C     0.12564   0.02188   0.78423   0.00000  Uiso   1.00
C836   C     0.12666   0.31166   0.78369   0.00000  Uiso   1.00
C837   C     0.16660   0.29048   0.75107   0.00000  Uiso   1.00
C838   C     0.30058   0.19399   0.78095   0.00000  Uiso   1.00
C839   C     0.01663   0.19288   0.78199   0.00000  Uiso   1.00
C840   C     0.14636   0.15861   0.98827   0.00000  Uiso   1.00
C841   C     0.03311   0.13969   0.71839   0.00000  Uiso   1.00
C842   C     0.31661   0.14054   0.71746   0.00000  Uiso   1.00
C843   C     0.16630   0.08747   0.75046   0.00000  Uiso   1.00
C844   C     0.19259   0.16761   0.65040   0.00000  Uiso   1.00
C845   C     0.24248   0.22250   0.52638   0.00000  Uiso   1.00
C846   C     0.20714   0.17567   0.59495   0.00000  Uiso   1.00
C847   C     0.08399   0.13621   0.92684   0.00000  Uiso   1.00
C848   C     0.07050   0.12675   0.97904   0.00000  Uiso   1.00
C849   C     0.10459   0.13194   0.50741   0.00000  Uiso   1.00
C850   C     0.31151   0.22634   0.59003   0.00000  Uiso   1.00
C851   C     0.15165   0.17658   0.93886   0.00000  Uiso   1.00
C852   C     0.04326   0.02847   0.83139   0.00000  Uiso   1.00
C853   C     0.28166   0.26231   0.79917   0.00000  Uiso   1.00
C854   C     0.05441   0.07170   0.70154   0.00000  Uiso   1.00
C855   C     0.32203   0.12065   0.63333   0.00000  Uiso   1.00
C856   C     0.20525   0.08623   0.56476   0.00000  Uiso   1.00
C857   C     0.09478   0.07105   0.55043   0.00000  Uiso   1.00
C858   C     0.32087   0.13217   0.99330   0.00000  Uiso   1.00
C859   C     0.14164   0.26684   0.90539   0.00000  Uiso   1.00
C860   C     0.18050   0.17154   0.51640   0.00000  Uiso   1.00
C861   C     0.21269   0.20562   0.99743   0.00000  Uiso   1.00
C862   C     0.21292   0.22451   0.95133   0.00000  Uiso   1.00
C863   C     0.18137   0.21174   0.92390   0.00000  Uiso   1.00
C864   C     0.18425   0.15370   0.56303   0.00000  Uiso   1.00
C865   C     0.23878   0.20839   0.57578   0.00000  Uiso   1.00
Cu866  Cu    0.11978   0.16666   0.75000   0.00000  Uiso   1.00
Cu867  Cu    0.21355   0.16667   0.75000   0.00000  Uiso   1.00
F868   F     0.24295   0.04141   0.68612   0.00000  Uiso   1.00
F869   F     0.09087   0.28959   0.81666   0.00000  Uiso   1.00
F870   F     0.03138   0.21750   0.81601   0.00000  Uiso   1.00
F871   F     0.24204   0.25756   0.93337   0.00000  Uiso   1.00
F872   F     0.27144   0.25578   0.50935   0.00000  Uiso   1.00
F873   F     0.05715   0.12092   0.89641   0.00000  Uiso   1.00
F874   F     0.24460   0.29141   0.68749   0.00000  Uiso   1.00
H875   H     0.32383   0.19577   0.57139   0.00000  Uiso   1.00
H876   H     0.08803   0.05295   0.68894   0.00000  Uiso   1.00
H877   H     0.02836   0.05798   0.68240   0.00000  Uiso   1.00
H878   H     0.03970   0.06899   0.74426   0.00000  Uiso   1.00
H879   H     0.01676   0.14561   0.62511   0.00000  Uiso   1.00
H880   H     0.29398   0.12886   0.61469   0.00000  Uiso   1.00
H881   H     0.00505   0.09145   0.61452   0.00000  Uiso   1.00
H882   H     0.23140   0.09197   0.58754   0.00000  Uiso   1.00
H883   H     0.22376   0.08619   0.52232   0.00000  Uiso   1.00
H884   H     0.19007   0.05480   0.57444   0.00000  Uiso   1.00
H885   H     0.06197   0.05781   0.54225   0.00000  Uiso   1.00
H886   H     0.32648   0.23005   0.62353   0.00000  Uiso   1.00
H887   H     0.09614   0.05801   0.58766   0.00000  Uiso   1.00
H888   H     0.12787   0.06026   0.51997   0.00000  Uiso   1.00
H889   H     0.30865   0.11720   0.96169   0.00000  Uiso   1.00
H890   H     0.33016   0.16526   0.98437   0.00000  Uiso   1.00
H891   H     0.28987   0.13226   0.52867   0.00000  Uiso   1.00
H892   H     0.14652   0.28229   0.94100   0.00000  Uiso   1.00
H893   H     0.10458   0.25322   0.91367   0.00000  Uiso   1.00
H894   H     0.14520   0.29135   0.87658   0.00000  Uiso   1.00
H895   H     0.32711   0.25144   0.56278   0.00000  Uiso   1.00
H896   H     0.03625   0.01134   0.79787   0.00000  Uiso   1.00
H897   H     0.01672   0.05416   0.84196   0.00000  Uiso   1.00
H898   H     0.03628   0.00851   0.86573   0.00000  Uiso   1.00
H899   H     0.29509   0.26619   0.75637   0.00000  Uiso   1.00
H900   H     0.30915   0.27378   0.81791   0.00000  Uiso   1.00
H901   H     0.24919   0.28224   0.81372   0.00000  Uiso   1.00
N902   N     0.04931   0.16666   0.74999   0.00000  Uiso   1.00
N903   N     0.28402   0.16669   0.75000   0.00000  Uiso   1.00
O904   O     0.12708   0.22678   0.75001   0.00000  Uiso   1.00
O905   O     0.09052   0.04549   0.82001   0.00000  Uiso   1.00
O906   O     0.26807   0.22111   0.81314   0.00000  Uiso   1.00
O907   O     0.06609   0.11286   0.68606   0.00000  Uiso   1.00
O908   O     0.29959   0.11334   0.68634   0.00000  Uiso   1.00
O909   O     0.16680   0.11486   0.57856   0.00000  Uiso   1.00
O910   O     0.09262   0.11487   0.55590   0.00000  Uiso   1.00
O911   O     0.02558   0.10902   0.50259   0.00000  Uiso   1.00
O912   O     0.17713   0.23644   0.88425   0.00000  Uiso   1.00
O913   O     0.20627   0.22679   0.75001   0.00000  Uiso   1.00
O914   O     0.10775   0.16665   0.82549   0.00000  Uiso   1.00
O915   O     0.18694   0.16666   0.82549   0.00000  Uiso   1.00
O916   O     0.12706   0.10654   0.75000   0.00000  Uiso   1.00
O917   O     0.20625   0.10655   0.75000   0.00000  Uiso   1.00
O918   O     0.14640   0.16667   0.67451   0.00000  Uiso   1.00
O919   O     0.22559   0.16668   0.67451   0.00000  Uiso   1.00
O920   O     0.26045   0.22992   0.60843   0.00000  Uiso   1.00
C921   C     0.50010   0.24585   0.75031   0.00000  Uiso   1.00
C922   C     0.45819   0.16055   0.90617   0.00000  Uiso   1.00
C923   C     0.53932   0.31186   0.71923   0.00000  Uiso   1.00
C924   C     0.47400   0.16593   0.84976   0.00000  Uiso   1.00
C925   C     0.53862   0.02116   0.71892   0.00000  Uiso   1.00
C926   C     0.49893   0.04276   0.75124   0.00000  Uiso   1.00
C927   C     0.45897   0.02188   0.78423   0.00000  Uiso   1.00
C928   C     0.46000   0.31166   0.78369   0.00000  Uiso   1.00
C929   C     0.49994   0.29048   0.75107   0.00000  Uiso   1.00
C930   C     0.63391   0.19399   0.78095   0.00000  Uiso   1.00
C931   C     0.34996   0.19288   0.78199   0.00000  Uiso   1.00
C932   C     0.47970   0.15861   0.98827   0.00000  Uiso   1.00
C933   C     0.36644   0.13969   0.71839   0.00000  Uiso   1.00
C934   C     0.64994   0.14054   0.71746   0.00000  Uiso   1.00
C935   C     0.49964   0.08747   0.75046   0.00000  Uiso   1.00
C936   C     0.52592   0.16761   0.65040   0.00000  Uiso   1.00
C937   C     0.57581   0.22250   0.52638   0.00000  Uiso   1.00
C938   C     0.54047   0.17567   0.59495   0.00000  Uiso   1.00
C939   C     0.41732   0.13621   0.92684   0.00000  Uiso   1.00
C940   C     0.40384   0.12675   0.97904   0.00000  Uiso   1.00
C941   C     0.43792   0.13194   0.50741   0.00000  Uiso   1.00
C942   C     0.64485   0.22634   0.59003   0.00000  Uiso   1.00
C943   C     0.48499   0.17658   0.93886   0.00000  Uiso   1.00
C944   C     0.37659   0.02847   0.83139   0.00000  Uiso   1.00
C945   C     0.61499   0.26231   0.79917   0.00000  Uiso   1.00
C946   C     0.38775   0.07170   0.70154   0.00000  Uiso   1.00
C947   C     0.65537   0.12065   0.63333   0.00000  Uiso   1.00
C948   C     0.53859   0.08623   0.56476   0.00000  Uiso   1.00
C949   C     0.42812   0.07105   0.55043   0.00000  Uiso   1.00
C950   C     0.65420   0.13217   0.99330   0.00000  Uiso   1.00
C951   C     0.47497   0.26684   0.90539   0.00000  Uiso   1.00
C952   C     0.51384   0.17154   0.51640   0.00000  Uiso   1.00
C953   C     0.54602   0.20562   0.99743   0.00000  Uiso   1.00
C954   C     0.54625   0.22451   0.95133   0.00000  Uiso   1.00
C955   C     0.51470   0.21174   0.92390   0.00000  Uiso   1.00
C956   C     0.51758   0.15370   0.56303   0.00000  Uiso   1.00
C957   C     0.57211   0.20839   0.57578   0.00000  Uiso   1.00
Cu958  Cu    0.45311   0.16666   0.75000   0.00000  Uiso   1.00
Cu959  Cu    0.54689   0.16667   0.75000   0.00000  Uiso   1.00
F960   F     0.57629   0.04141   0.68612   0.00000  Uiso   1.00
F961   F     0.42421   0.28959   0.81666   0.00000  Uiso   1.00
F962   F     0.36471   0.21750   0.81601   0.00000  Uiso   1.00
F963   F     0.57537   0.25756   0.93337   0.00000  Uiso   1.00
F964   F     0.60477   0.25578   0.50935   0.00000  Uiso   1.00
F965   F     0.39048   0.12092   0.89641   0.00000  Uiso   1.00
F966   F     0.57793   0.29141   0.68749   0.00000  Uiso   1.00
H967   H     0.65717   0.19577   0.57139   0.00000  Uiso   1.00
H968   H     0.42137   0.05295   0.68894   0.00000  Uiso   1.00
H969   H     0.36170   0.05798   0.68240   0.00000  Uiso   1.00
H970   H     0.37303   0.06899   0.74426   0.00000  Uiso   1.00
H971   H     0.35009   0.14561   0.62511   0.00000  Uiso   1.00
H972   H     0.62731   0.12886   0.61469   0.00000  Uiso   1.00
H973   H     0.33838   0.09145   0.61452   0.00000  Uiso   1.00
H974   H     0.56473   0.09197   0.58754   0.00000  Uiso   1.00
H975   H     0.55710   0.08619   0.52232   0.00000  Uiso   1.00
H976   H     0.52340   0.05480   0.57444   0.00000  Uiso   1.00
H977   H     0.39530   0.05781   0.54225   0.00000  Uiso   1.00
H978   H     0.65981   0.23005   0.62353   0.00000  Uiso   1.00
H979   H     0.42948   0.05801   0.58766   0.00000  Uiso   1.00
H980   H     0.46120   0.06026   0.51997   0.00000  Uiso   1.00
H981   H     0.64198   0.11720   0.96169   0.00000  Uiso   1.00
H982   H     0.66349   0.16526   0.98437   0.00000  Uiso   1.00
H983   H     0.62321   0.13226   0.52867   0.00000  Uiso   1.00
H984   H     0.47985   0.28229   0.94100   0.00000  Uiso   1.00
H985   H     0.43791   0.25322   0.91367   0.00000  Uiso   1.00
H986   H     0.47854   0.29135   0.87658   0.00000  Uiso   1.00
H987   H     0.66044   0.25144   0.56278   0.00000  Uiso   1.00
H988   H     0.36958   0.01134   0.79787   0.00000  Uiso   1.00
H989   H     0.35006   0.05416   0.84196   0.00000  Uiso   1.00
H990   H     0.36962   0.00851   0.86573   0.00000  Uiso   1.00
H991   H     0.62842   0.26619   0.75637   0.00000  Uiso   1.00
H992   H     0.64248   0.27378   0.81791   0.00000  Uiso   1.00
H993   H     0.58252   0.28224   0.81372   0.00000  Uiso   1.00
N994   N     0.38265   0.16666   0.74999   0.00000  Uiso   1.00
N995   N     0.61735   0.16669   0.75000   0.00000  Uiso   1.00
O996   O     0.46042   0.22678   0.75001   0.00000  Uiso   1.00
O997   O     0.42386   0.04549   0.82001   0.00000  Uiso   1.00
O998   O     0.60140   0.22111   0.81314   0.00000  Uiso   1.00
O999   O     0.39942   0.11286   0.68606   0.00000  Uiso   1.00
O1000  O     0.63292   0.11334   0.68634   0.00000  Uiso   1.00
O1001  O     0.50013   0.11486   0.57856   0.00000  Uiso   1.00
O1002  O     0.42596   0.11487   0.55590   0.00000  Uiso   1.00
O1003  O     0.35891   0.10902   0.50259   0.00000  Uiso   1.00
O1004  O     0.51046   0.23644   0.88425   0.00000  Uiso   1.00
O1005  O     0.53961   0.22679   0.75001   0.00000  Uiso   1.00
O1006  O     0.44108   0.16665   0.82549   0.00000  Uiso   1.00
O1007  O     0.52027   0.16666   0.82549   0.00000  Uiso   1.00
O1008  O     0.46039   0.10654   0.75000   0.00000  Uiso   1.00
O1009  O     0.53958   0.10655   0.75000   0.00000  Uiso   1.00
O1010  O     0.47973   0.16667   0.67451   0.00000  Uiso   1.00
O1011  O     0.55892   0.16668   0.67451   0.00000  Uiso   1.00
O1012  O     0.59378   0.22992   0.60843   0.00000  Uiso   1.00
C1013  C     0.83344   0.24585   0.75031   0.00000  Uiso   1.00
C1014  C     0.79152   0.16055   0.90617   0.00000  Uiso   1.00
C1015  C     0.87265   0.31186   0.71923   0.00000  Uiso   1.00
C1016  C     0.80734   0.16593   0.84976   0.00000  Uiso   1.00
C1017  C     0.87195   0.02116   0.71892   0.00000  Uiso   1.00
C1018  C     0.83227   0.04276   0.75124   0.00000  Uiso   1.00
C1019  C     0.79231   0.02188   0.78423   0.00000  Uiso   1.00
C1020  C     0.79333   0.31166   0.78369   0.00000  Uiso   1.00
C1021  C     0.83327   0.29048   0.75107   0.00000  Uiso   1.00
C1022  C     0.96725   0.19399   0.78095   0.00000  Uiso   1.00
C1023  C     0.68330   0.19288   0.78199   0.00000  Uiso   1.00
C1024  C     0.81303   0.15861   0.98827   0.00000  Uiso   1.00
C1025  C     0.69978   0.13969   0.71839   0.00000  Uiso   1.00
C1026  C     0.98327   0.14054   0.71746   0.00000  Uiso   1.00
C1027  C     0.83297   0.08747   0.75046   0.00000  Uiso   1.00
C1028  C     0.85925   0.16761   0.65040   0.00000  Uiso   1.00
C1029  C     0.90915   0.22250   0.52638   0.00000  Uiso   1.00
C1030  C     0.87381   0.17567   0.59495   0.00000  Uiso   1.00
C1031  C     0.75066   0.13621   0.92684   0.00000  Uiso   1.00
C1032  C     0.73717   0.12675   0.97904   0.00000  Uiso   1.00
C1033  C     0.77126   0.13194   0.50741   0.00000  Uiso   1.00
C1034  C     0.97818   0.22634   0.59003   0.00000  Uiso   1.00
C1035  C     0.81832   0.17658   0.93886   0.00000  Uiso   1.00
C1036  C     0.70992   0.02847   0.83139   0.00000  Uiso   1.00
C1037  C     0.94833   0.26231   0.79917   0.00000  Uiso   1.00
C1038  C     0.72108   0.07170   0.70154   0.00000  Uiso   1.00
C1039  C     0.98870   0.12065   0.63333   0.00000  Uiso   1.00
C1040  C     0.87192   0.08623   0.56476   0.00000  Uiso   1.00
C1041  C     0.76145   0.07105   0.55043   0.00000  Uiso   1.00
C1042  C     0.98753   0.13217   0.99330   0.00000  Uiso   1.00
C1043  C     0.80831   0.26684   0.90539   0.00000  Uiso   1.00
C1044  C     0.84717   0.17154   0.51640   0.00000  Uiso   1.00
C1045  C     0.87935   0.20562   0.99743   0.00000  Uiso   1.00
C1046  C     0.87959   0.22451   0.95133   0.00000  Uiso   1.00
C1047  C     0.84803   0.21174   0.92390   0.00000  Uiso   1.00
C1048  C     0.85091   0.15370   0.56303   0.00000  Uiso   1.00
C1049  C     0.90545   0.20839   0.57578   0.00000  Uiso   1.00
Cu1050 Cu    0.78645   0.16666   0.75000   0.00000  Uiso   1.00
Cu1051 Cu    0.88022   0.16667   0.75000   0.00000  Uiso   1.00
F1052  F     0.90962   0.04141   0.68612   0.00000  Uiso   1.00
F1053  F     0.75754   0.28959   0.81666   0.00000  Uiso   1.00
F1054  F     0.69805   0.21750   0.81601   0.00000  Uiso   1.00
F1055  F     0.90870   0.25756   0.93337   0.00000  Uiso   1.00
F1056  F     0.93811   0.25578   0.50935   0.00000  Uiso   1.00
F1057  F     0.72381   0.12092   0.89641   0.00000  Uiso   1.00
F1058  F     0.91126   0.29141   0.68749   0.00000  Uiso   1.00
H1059  H     0.99050   0.19577   0.57139   0.00000  Uiso   1.00
H1060  H     0.75470   0.05295   0.68894   0.00000  Uiso   1.00
H1061  H     0.69503   0.05798   0.68240   0.00000  Uiso   1.00
H1062  H     0.70636   0.06899   0.74426   0.00000  Uiso   1.00
H1063  H     0.68342   0.14561   0.62511   0.00000  Uiso   1.00
H1064  H     0.96064   0.12886   0.61469   0.00000  Uiso   1.00
H1065  H     0.67172   0.09145   0.61452   0.00000  Uiso   1.00
H1066  H     0.89807   0.09197   0.58754   0.00000  Uiso   1.00
H1067  H     0.89043   0.08619   0.52232   0.00000  Uiso   1.00
H1068  H     0.85674   0.05480   0.57444   0.00000  Uiso   1.00
H1069  H     0.72863   0.05781   0.54225   0.00000  Uiso   1.00
H1070  H     0.99314   0.23005   0.62353   0.00000  Uiso   1.00
H1071  H     0.76281   0.05801   0.58766   0.00000  Uiso   1.00
H1072  H     0.79454   0.06026   0.51997   0.00000  Uiso   1.00
H1073  H     0.97532   0.11720   0.96169   0.00000  Uiso   1.00
H1074  H     0.99682   0.16526   0.98437   0.00000  Uiso   1.00
H1075  H     0.95654   0.13226   0.52867   0.00000  Uiso   1.00
H1076  H     0.81319   0.28229   0.94100   0.00000  Uiso   1.00
H1077  H     0.77124   0.25322   0.91367   0.00000  Uiso   1.00
H1078  H     0.81187   0.29135   0.87658   0.00000  Uiso   1.00
H1079  H     0.99378   0.25144   0.56278   0.00000  Uiso   1.00
H1080  H     0.70291   0.01134   0.79787   0.00000  Uiso   1.00
H1081  H     0.68339   0.05416   0.84196   0.00000  Uiso   1.00
H1082  H     0.70295   0.00851   0.86573   0.00000  Uiso   1.00
H1083  H     0.96176   0.26619   0.75637   0.00000  Uiso   1.00
H1084  H     0.97582   0.27378   0.81791   0.00000  Uiso   1.00
H1085  H     0.91586   0.28224   0.81372   0.00000  Uiso   1.00
N1086  N     0.71598   0.16666   0.74999   0.00000  Uiso   1.00
N1087  N     0.95069   0.16669   0.75000   0.00000  Uiso   1.00
O1088  O     0.79375   0.22678   0.75001   0.00000  Uiso   1.00
O1089  O     0.75719   0.04549   0.82001   0.00000  Uiso   1.00
O1090  O     0.93473   0.22111   0.81314   0.00000  Uiso   1.00
O1091  O     0.73276   0.11286   0.68606   0.00000  Uiso   1.00
O1092  O     0.96625   0.11334   0.68634   0.00000  Uiso   1.00
O1093  O     0.83347   0.11486   0.57856   0.00000  Uiso   1.00
O1094  O     0.75929   0.11487   0.55590   0.00000  Uiso   1.00
O1095  O     0.69224   0.10902   0.50259   0.00000  Uiso   1.00
O1096  O     0.84379   0.23644   0.88425   0.00000  Uiso   1.00
O1097  O     0.87294   0.22679   0.75001   0.00000  Uiso   1.00
O1098  O     0.77441   0.16665   0.82549   0.00000  Uiso   1.00
O1099  O     0.85360   0.16666   0.82549   0.00000  Uiso   1.00
O1100  O     0.79373   0.10654   0.75000   0.00000  Uiso   1.00
O1101  O     0.87292   0.10655   0.75000   0.00000  Uiso   1.00
O1102  O     0.81306   0.16667   0.67451   0.00000  Uiso   1.00
O1103  O     0.89225   0.16668   0.67451   0.00000  Uiso   1.00
O1104  O     0.92711   0.22992   0.60843   0.00000  Uiso   1.00
C1105  C     0.16677   0.57918   0.75031   0.00000  Uiso   1.00
C1106  C     0.12486   0.49388   0.90617   0.00000  Uiso   1.00
C1107  C     0.20598   0.64519   0.71923   0.00000  Uiso   1.00
C1108  C     0.14067   0.49927   0.84976   0.00000  Uiso   1.00
C1109  C     0.20528   0.35449   0.71892   0.00000  Uiso   1.00
C1110  C     0.16560   0.37609   0.75124   0.00000  Uiso   1.00
C1111  C     0.12564   0.35521   0.78423   0.00000  Uiso   1.00
C1112  C     0.12666   0.64499   0.78369   0.00000  Uiso   1.00
C1113  C     0.16660   0.62382   0.75107   0.00000  Uiso   1.00
C1114  C     0.30058   0.52733   0.78095   0.00000  Uiso   1.00
C1115  C     0.01663   0.52621   0.78199   0.00000  Uiso   1.00
C1116  C     0.14636   0.49195   0.98827   0.00000  Uiso   1.00
C1117  C     0.03311   0.47303   0.71839   0.00000  Uiso   1.00
C1118  C     0.31661   0.47387   0.71746   0.00000  Uiso   1.00
C1119  C     0.16630   0.42080   0.75046   0.00000  Uiso   1.00
C1120  C     0.19259   0.50095   0.65040   0.00000  Uiso   1.00
C1121  C     0.24248   0.55584   0.52638   0.00000  Uiso   1.00
C1122  C     0.20714   0.50901   0.59495   0.00000  Uiso   1.00
C1123  C     0.08399   0.46954   0.92684   0.00000  Uiso   1.00
C1124  C     0.07050   0.46009   0.97904   0.00000  Uiso   1.00
C1125  C     0.10459   0.46527   0.50741   0.00000  Uiso   1.00
C1126  C     0.31151   0.55968   0.59003   0.00000  Uiso   1.00
C1127  C     0.15165   0.50992   0.93886   0.00000  Uiso   1.00
C1128  C     0.04326   0.36181   0.83139   0.00000  Uiso   1.00
C1129  C     0.28166   0.59564   0.79917   0.00000  Uiso   1.00
C1130  C     0.05441   0.40503   0.70154   0.00000  Uiso   1.00
C1131  C     0.32203   0.45399   0.63333   0.00000  Uiso   1.00
C1132  C     0.20525   0.41956   0.56476   0.00000  Uiso   1.00
C1133  C     0.09478   0.40438   0.55043   0.00000  Uiso   1.00
C1134  C     0.32087   0.46550   0.99330   0.00000  Uiso   1.00
C1135  C     0.14164   0.60017   0.90539   0.00000  Uiso   1.00
C1136  C     0.18050   0.50487   0.51640   0.00000  Uiso   1.00
C1137  C     0.21269   0.53895   0.99743   0.00000  Uiso   1.00
C1138  C     0.21292   0.55784   0.95133   0.00000  Uiso   1.00
C1139  C     0.18137   0.54507   0.92390   0.00000  Uiso   1.00
C1140  C     0.18425   0.48703   0.56303   0.00000  Uiso   1.00
C1141  C     0.23878   0.54172   0.57578   0.00000  Uiso   1.00
Cu1142 Cu    0.11978   0.49999   0.75000   0.00000  Uiso   1.00
Cu1143 Cu    0.21355   0.50001   0.75000   0.00000  Uiso   1.00
F1144  F     0.24295   0.37474   0.68612   0.00000  Uiso   1.00
F1145  F     0.09087   0.62292   0.81666   0.00000  Uiso   1.00
F1146  F     0.03138   0.55083   0.81601   0.00000  Uiso   1.00
F1147  F     0.24204   0.59089   0.93337   0.00000  Uiso   1.00
F1148  F     0.27144   0.58911   0.50935   0.00000  Uiso   1.00
F1149  F     0.05715   0.45425   0.89641   0.00000  Uiso   1.00
F1150  F     0.24460   0.62475   0.68749   0.00000  Uiso   1.00
H1151  H     0.32383   0.52910   0.57139   0.00000  Uiso   1.00
H1152  H     0.08803   0.38629   0.68894   0.00000  Uiso   1.00
H1153  H     0.02836   0.39131   0.68240   0.00000  Uiso   1.00
H1154  H     0.03970   0.40232   0.74426   0.00000  Uiso   1.00
H1155  H     0.01676   0.47895   0.62511   0.00000  Uiso   1.00
H1156  H     0.29398   0.46219   0.61469   0.00000  Uiso   1.00
H1157  H     0.00505   0.42478   0.61452   0.00000  Uiso   1.00
H1158  H     0.23140   0.42530   0.58754   0.00000  Uiso   1.00
H1159  H     0.22376   0.41953   0.52232   0.00000  Uiso   1.00
H1160  H     0.19007   0.38814   0.57444   0.00000  Uiso   1.00
H1161  H     0.06197   0.39115   0.54225   0.00000  Uiso   1.00
H1162  H     0.32648   0.56338   0.62353   0.00000  Uiso   1.00
H1163  H     0.09614   0.39135   0.58766   0.00000  Uiso   1.00
H1164  H     0.12787   0.39360   0.51997   0.00000  Uiso   1.00
H1165  H     0.30865   0.45053   0.96169   0.00000  Uiso   1.00
H1166  H     0.33016   0.49859   0.98437   0.00000  Uiso   1.00
H1167  H     0.28987   0.46559   0.52867   0.00000  Uiso   1.00
H1168  H     0.14652   0.61562   0.94100   0.00000  Uiso   1.00
H1169  H     0.10458   0.58655   0.91367   0.00000  Uiso   1.00
H1170  H     0.14520   0.62468   0.87658   0.00000  Uiso   1.00
H1171  H     0.32711   0.58478   0.56278   0.00000  Uiso   1.00
H1172  H     0.03625   0.34468   0.79787   0.00000  Uiso   1.00
H1173  H     0.01672   0.38750   0.84196   0.00000  Uiso   1.00
H1174  H     0.03628   0.34185   0.86573   0.00000  Uiso   1.00
H1175  H     0.29509   0.59952   0.75637   0.00000  Uiso   1.00
H1176  H     0.30915   0.60711   0.81791   0.00000  Uiso   1.00
H1177  H     0.24919   0.61558   0.81372   0.00000  Uiso   1.00
N1178  N     0.04931   0.49999   0.74999   0.00000  Uiso   1.00
N1179  N     0.28402   0.50002   0.75000   0.00000  Uiso   1.00
O1180  O     0.12708   0.56011   0.75001   0.00000  Uiso   1.00
O1181  O     0.09052   0.37882   0.82001   0.00000  Uiso   1.00
O1182  O     0.26807   0.55445   0.81314   0.00000  Uiso   1.00
O1183  O     0.06609   0.44619   0.68606   0.00000  Uiso   1.00
O1184  O     0.29959   0.44667   0.68634   0.00000  Uiso   1.00
O1185  O     0.16680   0.44820   0.57856   0.00000  Uiso   1.00
O1186  O     0.09262   0.44820   0.55590   0.00000  Uiso   1.00
O1187  O     0.02558   0.44236   0.50259   0.00000  Uiso   1.00
O1188  O     0.17713   0.56977   0.88425   0.00000  Uiso   1.00
O1189  O     0.20627   0.56012   0.75001   0.00000  Uiso   1.00
O1190  O     0.10775   0.49998   0.82549   0.00000  Uiso   1.00
O1191  O     0.18694   0.49999   0.82549   0.00000  Uiso   1.00
O1192  O     0.12706   0.43988   0.75000   0.00000  Uiso   1.00
O1193  O     0.20625   0.43989   0.75000   0.00000  Uiso   1.00
O1194  O     0.14640   0.50001   0.67451   0.00000  Uiso   1.00
O1195  O     0.22559   0.50002   0.67451   0.00000  Uiso   1.00
O1196  O     0.26045   0.56325   0.60843   0.00000  Uiso   1.00
C1197  C     0.50010   0.57918   0.75031   0.00000  Uiso   1.00
C1198  C     0.45819   0.49388   0.90617   0.00000  Uiso   1.00
C1199  C     0.53932   0.64519   0.71923   0.00000  Uiso   1.00
C1200  C     0.47400   0.49927   0.84976   0.00000  Uiso   1.00
C1201  C     0.53862   0.35449   0.71892   0.00000  Uiso   1.00
C1202  C     0.49893   0.37609   0.75124   0.00000  Uiso   1.00
C1203  C     0.45897   0.35521   0.78423   0.00000  Uiso   1.00
C1204  C     0.46000   0.64499   0.78369   0.00000  Uiso   1.00
C1205  C     0.49994   0.62382   0.75107   0.00000  Uiso   1.00
C1206  C     0.63391   0.52733   0.78095   0.00000  Uiso   1.00
C1207  C     0.34996   0.52621   0.78199   0.00000  Uiso   1.00
C1208  C     0.47970   0.49195   0.98827   0.00000  Uiso   1.00
C1209  C     0.36644   0.47303   0.71839   0.00000  Uiso   1.00
C1210  C     0.64994   0.47387   0.71746   0.00000  Uiso   1.00
C1211  C     0.49964   0.42080   0.75046   0.00000  Uiso   1.00
C1212  C     0.52592   0.50095   0.65040   0.00000  Uiso   1.00
C1213  C     0.57581   0.55584   0.52638   0.00000  Uiso   1.00
C1214  C     0.54047   0.50901   0.59495   0.00000  Uiso   1.00
C1215  C     0.41732   0.46954   0.92684   0.00000  Uiso   1.00
C1216  C     0.40384   0.46009   0.97904   0.00000  Uiso   1.00
C1217  C     0.43792   0.46527   0.50741   0.00000  Uiso   1.00
C1218  C     0.64485   0.55968   0.59003   0.00000  Uiso   1.00
C1219  C     0.48499   0.50992   0.93886   0.00000  Uiso   1.00
C1220  C     0.37659   0.36181   0.83139   0.00000  Uiso   1.00
C1221  C     0.61499   0.59564   0.79917   0.00000  Uiso   1.00
C1222  C     0.38775   0.40503   0.70154   0.00000  Uiso   1.00
C1223  C     0.65537   0.45399   0.63333   0.00000  Uiso   1.00
C1224  C     0.53859   0.41956   0.56476   0.00000  Uiso   1.00
C1225  C     0.42812   0.40438   0.55043   0.00000  Uiso   1.00
C1226  C     0.65420   0.46550   0.99330   0.00000  Uiso   1.00
C1227  C     0.47497   0.60017   0.90539   0.00000  Uiso   1.00
C1228  C     0.51384   0.50487   0.51640   0.00000  Uiso   1.00
C1229  C     0.54602   0.53895   0.99743   0.00000  Uiso   1.00
C1230  C     0.54625   0.55784   0.95133   0.00000  Uiso   1.00
C1231  C     0.51470   0.54507   0.92390   0.00000  Uiso   1.00
C1232  C     0.51758   0.48703   0.56303   0.00000  Uiso   1.00
C1233  C     0.57211   0.54172   0.57578   0.00000  Uiso   1.00
Cu1234 Cu    0.45311   0.49999   0.75000   0.00000  Uiso   1.00
Cu1235 Cu    0.54689   0.50001   0.75000   0.00000  Uiso   1.00
F1236  F     0.57629   0.37474   0.68612   0.00000  Uiso   1.00
F1237  F     0.42421   0.62292   0.81666   0.00000  Uiso   1.00
F1238  F     0.36471   0.55083   0.81601   0.00000  Uiso   1.00
F1239  F     0.57537   0.59089   0.93337   0.00000  Uiso   1.00
F1240  F     0.60477   0.58911   0.50935   0.00000  Uiso   1.00
F1241  F     0.39048   0.45425   0.89641   0.00000  Uiso   1.00
F1242  F     0.57793   0.62475   0.68749   0.00000  Uiso   1.00
H1243  H     0.65717   0.52910   0.57139   0.00000  Uiso   1.00
H1244  H     0.42137   0.38629   0.68894   0.00000  Uiso   1.00
H1245  H     0.36170   0.39131   0.68240   0.00000  Uiso   1.00
H1246  H     0.37303   0.40232   0.74426   0.00000  Uiso   1.00
H1247  H     0.35009   0.47895   0.62511   0.00000  Uiso   1.00
H1248  H     0.62731   0.46219   0.61469   0.00000  Uiso   1.00
H1249  H     0.33838   0.42478   0.61452   0.00000  Uiso   1.00
H1250  H     0.56473   0.42530   0.58754   0.00000  Uiso   1.00
H1251  H     0.55710   0.41953   0.52232   0.00000  Uiso   1.00
H1252  H     0.52340   0.38814   0.57444   0.00000  Uiso   1.00
H1253  H     0.39530   0.39115   0.54225   0.00000  Uiso   1.00
H1254  H     0.65981   0.56338   0.62353   0.00000  Uiso   1.00
H1255  H     0.42948   0.39135   0.58766   0.00000  Uiso   1.00
H1256  H     0.46120   0.39360   0.51997   0.00000  Uiso   1.00
H1257  H     0.64198   0.45053   0.96169   0.00000  Uiso   1.00
H1258  H     0.66349   0.49859   0.98437   0.00000  Uiso   1.00
H1259  H     0.62321   0.46559   0.52867   0.00000  Uiso   1.00
H1260  H     0.47985   0.61562   0.94100   0.00000  Uiso   1.00
H1261  H     0.43791   0.58655   0.91367   0.00000  Uiso   1.00
H1262  H     0.47854   0.62468   0.87658   0.00000  Uiso   1.00
H1263  H     0.66044   0.58478   0.56278   0.00000  Uiso   1.00
H1264  H     0.36958   0.34468   0.79787   0.00000  Uiso   1.00
H1265  H     0.35006   0.38750   0.84196   0.00000  Uiso   1.00
H1266  H     0.36962   0.34185   0.86573   0.00000  Uiso   1.00
H1267  H     0.62842   0.59952   0.75637   0.00000  Uiso   1.00
H1268  H     0.64248   0.60711   0.81791   0.00000  Uiso   1.00
H1269  H     0.58252   0.61558   0.81372   0.00000  Uiso   1.00
N1270  N     0.38265   0.49999   0.74999   0.00000  Uiso   1.00
N1271  N     0.61735   0.50002   0.75000   0.00000  Uiso   1.00
O1272  O     0.46042   0.56011   0.75001   0.00000  Uiso   1.00
O1273  O     0.42386   0.37882   0.82001   0.00000  Uiso   1.00
O1274  O     0.60140   0.55445   0.81314   0.00000  Uiso   1.00
O1275  O     0.39942   0.44619   0.68606   0.00000  Uiso   1.00
O1276  O     0.63292   0.44667   0.68634   0.00000  Uiso   1.00
O1277  O     0.50013   0.44820   0.57856   0.00000  Uiso   1.00
O1278  O     0.42596   0.44820   0.55590   0.00000  Uiso   1.00
O1279  O     0.35891   0.44236   0.50259   0.00000  Uiso   1.00
O1280  O     0.51046   0.56977   0.88425   0.00000  Uiso   1.00
O1281  O     0.53961   0.56012   0.75001   0.00000  Uiso   1.00
O1282  O     0.44108   0.49998   0.82549   0.00000  Uiso   1.00
O1283  O     0.52027   0.49999   0.82549   0.00000  Uiso   1.00
O1284  O     0.46039   0.43988   0.75000   0.00000  Uiso   1.00
O1285  O     0.53958   0.43989   0.75000   0.00000  Uiso   1.00
O1286  O     0.47973   0.50001   0.67451   0.00000  Uiso   1.00
O1287  O     0.55892   0.50002   0.67451   0.00000  Uiso   1.00
O1288  O     0.59378   0.56325   0.60843   0.00000  Uiso   1.00
C1289  C     0.83344   0.57918   0.75031   0.00000  Uiso   1.00
C1290  C     0.79152   0.49388   0.90617   0.00000  Uiso   1.00
C1291  C     0.87265   0.64519   0.71923   0.00000  Uiso   1.00
C1292  C     0.80734   0.49927   0.84976   0.00000  Uiso   1.00
C1293  C     0.87195   0.35449   0.71892   0.00000  Uiso   1.00
C1294  C     0.83227   0.37609   0.75124   0.00000  Uiso   1.00
C1295  C     0.79231   0.35521   0.78423   0.00000  Uiso   1.00
C1296  C     0.79333   0.64499   0.78369   0.00000  Uiso   1.00
C1297  C     0.83327   0.62382   0.75107   0.00000  Uiso   1.00
C1298  C     0.96725   0.52733   0.78095   0.00000  Uiso   1.00
C1299  C     0.68330   0.52621   0.78199   0.00000  Uiso   1.00
C1300  C     0.81303   0.49195   0.98827   0.00000  Uiso   1.00
C1301  C     0.69978   0.47303   0.71839   0.00000  Uiso   1.00
C1302  C     0.98327   0.47387   0.71746   0.00000  Uiso   1.00
C1303  C     0.83297   0.42080   0.75046   0.00000  Uiso   1.00
C1304  C     0.85925   0.50095   0.65040   0.00000  Uiso   1.00
C1305  C     0.90915   0.55584   0.52638   0.00000  Uiso   1.00
C1306  C     0.87381   0.50901   0.59495   0.00000  Uiso   1.00
C1307  C     0.75066   0.46954   0.92684   0.00000  Uiso   1.00
C1308  C     0.73717   0.46009   0.97904   0.00000  Uiso   1.00
C1309  C     0.77126   0.46527   0.50741   0.00000  Uiso   1.00
C1310  C     0.97818   0.55968   0.59003   0.00000  Uiso   1.00
C1311  C     0.81832   0.50992   0.93886   0.00000  Uiso   1.00
C1312  C     0.70992   0.36181   0.83139   0.00000  Uiso   1.00
C1313  C     0.94833   0.59564   0.79917   0.00000  Uiso   1.00
C1314  C     0.72108   0.40503   0.70154   0.00000  Uiso   1.00
C1315  C     0.98870   0.45399   0.63333   0.00000  Uiso   1.00
C1316  C     0.87192   0.41956   0.56476   0.00000  Uiso   1.00
C1317  C     0.76145   0.40438   0.55043   0.00000  Uiso   1.00
C1318  C     0.98753   0.46550   0.99330   0.00000  Uiso   1.00
C1319  C     0.80831   0.60017   0.90539   0.00000  Uiso   1.00
C1320  C     0.84717   0.50487   0.51640   0.00000  Uiso   1.00
C1321  C     0.87935   0.53895   0.99743   0.00000  Uiso   1.00
C1322  C     0.87959   0.55784   0.95133   0.00000  Uiso   1.00
C1323  C     0.84803   0.54507   0.92390   0.00000  Uiso   1.00
C1324  C     0.85091   0.48703   0.56303   0.00000  Uiso   1.00
C1325  C     0.90545   0.54172   0.57578   0.00000  Uiso   1.00
Cu1326 Cu    0.78645   0.49999   0.75000   0.00000  Uiso   1.00
Cu1327 Cu    0.88022   0.50001   0.75000   0.00000  Uiso   1.00
F1328  F     0.90962   0.37474   0.68612   0.00000  Uiso   1.00
F1329  F     0.75754   0.62292   0.81666   0.00000  Uiso   1.00
F1330  F     0.69805   0.55083   0.81601   0.00000  Uiso   1.00
F1331  F     0.90870   0.59089   0.93337   0.00000  Uiso   1.00
F1332  F     0.93811   0.58911   0.50935   0.00000  Uiso   1.00
F1333  F     0.72381   0.45425   0.89641   0.00000  Uiso   1.00
F1334  F     0.91126   0.62475   0.68749   0.00000  Uiso   1.00
H1335  H     0.99050   0.52910   0.57139   0.00000  Uiso   1.00
H1336  H     0.75470   0.38629   0.68894   0.00000  Uiso   1.00
H1337  H     0.69503   0.39131   0.68240   0.00000  Uiso   1.00
H1338  H     0.70636   0.40232   0.74426   0.00000  Uiso   1.00
H1339  H     0.68342   0.47895   0.62511   0.00000  Uiso   1.00
H1340  H     0.96064   0.46219   0.61469   0.00000  Uiso   1.00
H1341  H     0.67172   0.42478   0.61452   0.00000  Uiso   1.00
H1342  H     0.89807   0.42530   0.58754   0.00000  Uiso   1.00
H1343  H     0.89043   0.41953   0.52232   0.00000  Uiso   1.00
H1344  H     0.85674   0.38814   0.57444   0.00000  Uiso   1.00
H1345  H     0.72863   0.39115   0.54225   0.00000  Uiso   1.00
H1346  H     0.99314   0.56338   0.62353   0.00000  Uiso   1.00
H1347  H     0.76281   0.39135   0.58766   0.00000  Uiso   1.00
H1348  H     0.79454   0.39360   0.51997   0.00000  Uiso   1.00
H1349  H     0.97532   0.45053   0.96169   0.00000  Uiso   1.00
H1350  H     0.99682   0.49859   0.98437   0.00000  Uiso   1.00
H1351  H     0.95654   0.46559   0.52867   0.00000  Uiso   1.00
H1352  H     0.81319   0.61562   0.94100   0.00000  Uiso   1.00
H1353  H     0.77124   0.58655   0.91367   0.00000  Uiso   1.00
H1354  H     0.81187   0.62468   0.87658   0.00000  Uiso   1.00
H1355  H     0.99378   0.58478   0.56278   0.00000  Uiso   1.00
H1356  H     0.70291   0.34468   0.79787   0.00000  Uiso   1.00
H1357  H     0.68339   0.38750   0.84196   0.00000  Uiso   1.00
H1358  H     0.70295   0.34185   0.86573   0.00000  Uiso   1.00
H1359  H     0.96176   0.59952   0.75637   0.00000  Uiso   1.00
H1360  H     0.97582   0.60711   0.81791   0.00000  Uiso   1.00
H1361  H     0.91586   0.61558   0.81372   0.00000  Uiso   1.00
N1362  N     0.71598   0.49999   0.74999   0.00000  Uiso   1.00
N1363  N     0.95069   0.50002   0.75000   0.00000  Uiso   1.00
O1364  O     0.79375   0.56011   0.75001   0.00000  Uiso   1.00
O1365  O     0.75719   0.37882   0.82001   0.00000  Uiso   1.00
O1366  O     0.93473   0.55445   0.81314   0.00000  Uiso   1.00
O1367  O     0.73276   0.44619   0.68606   0.00000  Uiso   1.00
O1368  O     0.96625   0.44667   0.68634   0.00000  Uiso   1.00
O1369  O     0.83347   0.44820   0.57856   0.00000  Uiso   1.00
O1370  O     0.75929   0.44820   0.55590   0.00000  Uiso   1.00
O1371  O     0.69224   0.44236   0.50259   0.00000  Uiso   1.00
O1372  O     0.84379   0.56977   0.88425   0.00000  Uiso   1.00
O1373  O     0.87294   0.56012   0.75001   0.00000  Uiso   1.00
O1374  O     0.77441   0.49998   0.82549   0.00000  Uiso   1.00
O1375  O     0.85360   0.49999   0.82549   0.00000  Uiso   1.00
O1376  O     0.79373   0.43988   0.75000   0.00000  Uiso   1.00
O1377  O     0.87292   0.43989   0.75000   0.00000  Uiso   1.00
O1378  O     0.81306   0.50001   0.67451   0.00000  Uiso   1.00
O1379  O     0.89225   0.50002   0.67451   0.00000  Uiso   1.00
O1380  O     0.92711   0.56325   0.60843   0.00000  Uiso   1.00
C1381  C     0.16677   0.91251   0.75031   0.00000  Uiso   1.00
C1382  C     0.12486   0.82722   0.90617   0.00000  Uiso   1.00
C1383  C     0.20598   0.97852   0.71923   0.00000  Uiso   1.00
C1384  C     0.14067   0.83260   0.84976   0.00000  Uiso   1.00
C1385  C     0.20528   0.68783   0.71892   0.00000  Uiso   1.00
C1386  C     0.16560   0.70942   0.75124   0.00000  Uiso   1.00
C1387  C     0.12564   0.68854   0.78423   0.00000  Uiso   1.00
C1388  C     0.12666   0.97833   0.78369   0.00000  Uiso   1.00
C1389  C     0.16660   0.95715   0.75107   0.00000  Uiso   1.00
C1390  C     0.30058   0.86066   0.78095   0.00000  Uiso   1.00
C1391  C     0.01663   0.85955   0.78199   0.00000  Uiso   1.00
C1392  C     0.14636   0.82528   0.98827   0.00000  Uiso   1.00
C1393  C     0.03311   0.80636   0.71839   0.00000  Uiso   1.00
C1394  C     0.31661   0.80720   0.71746   0.00000  Uiso   1.00
C1395  C     0.16630   0.75413   0.75046   0.00000  Uiso   1.00
C1396  C     0.19259   0.83428   0.65040   0.00000  Uiso   1.00
C1397  C     0.24248   0.88917   0.52638   0.00000  Uiso   1.00
C1398  C     0.20714   0.84234   0.59495   0.00000  Uiso   1.00
C1399  C     0.08399   0.80288   0.92684   0.00000  Uiso   1.00
C1400  C     0.07050   0.79342   0.97904   0.00000  Uiso   1.00
C1401  C     0.10459   0.79861   0.50741   0.00000  Uiso   1.00
C1402  C     0.31151   0.89301   0.59003   0.00000  Uiso   1.00
C1403  C     0.15165   0.84325   0.93886   0.00000  Uiso   1.00
C1404  C     0.04326   0.69514   0.83139   0.00000  Uiso   1.00
C1405  C     0.28166   0.92898   0.79917   0.00000  Uiso   1.00
C1406  C     0.05441   0.73836   0.70154   0.00000  Uiso   1.00
C1407  C     0.32203   0.78732   0.63333   0.00000  Uiso   1.00
C1408  C     0.20525   0.75289   0.56476   0.00000  Uiso   1.00
C1409  C     0.09478   0.73771   0.55043   0.00000  Uiso   1.00
C1410  C     0.32087   0.79884   0.99330   0.00000  Uiso   1.00
C1411  C     0.14164   0.93350   0.90539   0.00000  Uiso   1.00
C1412  C     0.18050   0.83821   0.51640   0.00000  Uiso   1.00
C1413  C     0.21269   0.87229   0.99743   0.00000  Uiso   1.00
C1414  C     0.21292   0.89118   0.95133   0.00000  Uiso   1.00
C1415  C     0.18137   0.87840   0.92390   0.00000  Uiso   1.00
C1416  C     0.18425   0.82037   0.56303   0.00000  Uiso   1.00
C1417  C     0.23878   0.87505   0.57578   0.00000  Uiso   1.00
Cu1418 Cu    0.11978   0.83333   0.75000   0.00000  Uiso   1.00
Cu1419 Cu    0.21355   0.83334   0.75000   0.00000  Uiso   1.00
F1420  F     0.24295   0.70808   0.68612   0.00000  Uiso   1.00
F1421  F     0.09087   0.95626   0.81666   0.00000  Uiso   1.00
F1422  F     0.03138   0.88416   0.81601   0.00000  Uiso   1.00
F1423  F     0.24204   0.92422   0.93337   0.00000  Uiso   1.00
F1424  F     0.27144   0.92244   0.50935   0.00000  Uiso   1.00
F1425  F     0.05715   0.78758   0.89641   0.00000  Uiso   1.00
F1426  F     0.24460   0.95808   0.68749   0.00000  Uiso   1.00
H1427  H     0.32383   0.86243   0.57139   0.00000  Uiso   1.00
H1428  H     0.08803   0.71962   0.68894   0.00000  Uiso   1.00
H1429  H     0.02836   0.72464   0.68240   0.00000  Uiso   1.00
H1430  H     0.03970   0.73565   0.74426   0.00000  Uiso   1.00
H1431  H     0.01676   0.81228   0.62511   0.00000  Uiso   1.00
H1432  H     0.29398   0.79552   0.61469   0.00000  Uiso   1.00
H1433  H     0.00505   0.75812   0.61452   0.00000  Uiso   1.00
H1434  H     0.23140   0.75864   0.58754   0.00000  Uiso   1.00
H1435  H     0.22376   0.75286   0.52232   0.00000  Uiso   1.00
H1436  H     0.19007   0.72147   0.57444   0.00000  Uiso   1.00
H1437  H     0.06197   0.72448   0.54225   0.00000  Uiso   1.00
H1438  H     0.32648   0.89671   0.62353   0.00000  Uiso   1.00
H1439  H     0.09614   0.72468   0.58766   0.00000  Uiso   1.00
H1440  H     0.12787   0.72693   0.51997   0.00000  Uiso   1.00
H1441  H     0.30865   0.78386   0.96169   0.00000  Uiso   1.00
H1442  H     0.33016   0.83193   0.98437   0.00000  Uiso   1.00
H1443  H     0.28987   0.79893   0.52867   0.00000  Uiso   1.00
H1444  H     0.14652   0.94896   0.94100   0.00000  Uiso   1.00
H1445  H     0.10458   0.91989   0.91367   0.00000  Uiso   1.00
H1446  H     0.14520   0.95801   0.87658   0.00000  Uiso   1.00
H1447  H     0.32711   0.91811   0.56278   0.00000  Uiso   1.00
H1448  H     0.03625   0.67801   0.79787   0.00000  Uiso   1.00
H1449  H     0.01672   0.72083   0.84196   0.00000  Uiso   1.00
H1450  H     0.03628   0.67518   0.86573   0.00000  Uiso   1.00
H1451  H     0.29509   0.93285   0.75637   0.00000  Uiso   1.00
H1452  H     0.30915   0.94044   0.81791   0.00000  Uiso   1.00
H1453  H     0.24919   0.94891   0.81372   0.00000  Uiso   1.00
N1454  N     0.04931   0.83332   0.74999   0.00000  Uiso   1.00
N1455  N     0.28402   0.83335   0.75000   0.00000  Uiso   1.00
O1456  O     0.12708   0.89345   0.75001   0.00000  Uiso   1.00
O1457  O     0.09052   0.71215   0.82001   0.00000  Uiso   1.00
O1458  O     0.26807   0.88778   0.81314   0.00000  Uiso   1.00
O1459  O     0.06609   0.77952   0.68606   0.00000  Uiso   1.00
O1460  O     0.29959   0.78000   0.68634   0.00000  Uiso   1.00
O1461  O     0.16680   0.78153   0.57856   0.00000  Uiso   1.00
O1462  O     0.09262   0.78154   0.55590   0.00000  Uiso   1.00
O1463  O     0.02558   0.77569   0.50259   0.00000  Uiso   1.00
O1464  O     0.17713   0.90310   0.88425   0.00000  Uiso   1.00
O1465  O     0.20627   0.89346   0.75001   0.00000  Uiso   1.00
O1466  O     0.10775   0.83332   0.82549   0.00000  Uiso   1.00
O1467  O     0.18694   0.83333   0.82549   0.00000  Uiso   1.00
O1468  O     0.12706   0.77321   0.75000   0.00000  Uiso   1.00
O1469  O     0.20625   0.77322   0.75000   0.00000  Uiso   1.00
O1470  O     0.14640   0.83334   0.67451   0.00000  Uiso   1.00
O1471  O     0.22559   0.83335   0.67451   0.00000  Uiso   1.00
O1472  O     0.26045   0.89658   0.60843   0.00000  Uiso   1.00
C1473  C     0.50010   0.91251   0.75031   0.00000  Uiso   1.00
C1474  C     0.45819   0.82722   0.90617   0.00000  Uiso   1.00
C1475  C     0.53932   0.97852   0.71923   0.00000  Uiso   1.00
C1476  C     0.47400   0.83260   0.84976   0.00000  Uiso   1.00
C1477  C     0.53862   0.68783   0.71892   0.00000  Uiso   1.00
C1478  C     0.49893   0.70942   0.75124   0.00000  Uiso   1.00
C1479  C     0.45897   0.68854   0.78423   0.00000  Uiso   1.00
C1480  C     0.46000   0.97833   0.78369   0.00000  Uiso   1.00
C1481  C     0.49994   0.95715   0.75107   0.00000  Uiso   1.00
C1482  C     0.63391   0.86066   0.78095   0.00000  Uiso   1.00
C1483  C     0.34996   0.85955   0.78199   0.00000  Uiso   1.00
C1484  C     0.47970   0.82528   0.98827   0.00000  Uiso   1.00
C1485  C     0.36644   0.80636   0.71839   0.00000  Uiso   1.00
C1486  C     0.64994   0.80720   0.71746   0.00000  Uiso   1.00
C1487  C     0.49964   0.75413   0.75046   0.00000  Uiso   1.00
C1488  C     0.52592   0.83428   0.65040   0.00000  Uiso   1.00
C1489  C     0.57581   0.88917   0.52638   0.00000  Uiso   1.00
C1490  C     0.54047   0.84234   0.59495   0.00000  Uiso   1.00
C1491  C     0.41732   0.80288   0.92684   0.00000  Uiso   1.00
C1492  C     0.40384   0.79342   0.97904   0.00000  Uiso   1.00
C1493  C     0.43792   0.79861   0.50741   0.00000  Uiso   1.00
C1494  C     0.64485   0.89301   0.59003   0.00000  Uiso   1.00
C1495  C     0.48499   0.84325   0.93886   0.00000  Uiso   1.00
C1496  C     0.37659   0.69514   0.83139   0.00000  Uiso   1.00
C1497  C     0.61499   0.92898   0.79917   0.00000  Uiso   1.00
C1498  C     0.38775   0.73836   0.70154   0.00000  Uiso   1.00
C1499  C     0.65537   0.78732   0.63333   0.00000  Uiso   1.00
C1500  C     0.53859   0.75289   0.56476   0.00000  Uiso   1.00
C1501  C     0.42812   0.73771   0.55043   0.00000  Uiso   1.00
C1502  C     0.65420   0.79884   0.99330   0.00000  Uiso   1.00
C1503  C     0.47497   0.93350   0.90539   0.00000  Uiso   1.00
C1504  C     0.51384   0.83821   0.51640   0.00000  Uiso   1.00
C1505  C     0.54602   0.87229   0.99743   0.00000  Uiso   1.00
C1506  C     0.54625   0.89118   0.95133   0.00000  Uiso   1.00
C1507  C     0.51470   0.87840   0.92390   0.00000  Uiso   1.00
C1508  C     0.51758   0.82037   0.56303   0.00000  Uiso   1.00
C1509  C     0.57211   0.87505   0.57578   0.00000  Uiso   1.00
Cu1510 Cu    0.45311   0.83333   0.75000   0.00000  Uiso   1.00
Cu1511 Cu    0.54689   0.83334   0.75000   0.00000  Uiso   1.00
F1512  F     0.57629   0.70808   0.68612   0.00000  Uiso   1.00
F1513  F     0.42421   0.95626   0.81666   0.00000  Uiso   1.00
F1514  F     0.36471   0.88416   0.81601   0.00000  Uiso   1.00
F1515  F     0.57537   0.92422   0.93337   0.00000  Uiso   1.00
F1516  F     0.60477   0.92244   0.50935   0.00000  Uiso   1.00
F1517  F     0.39048   0.78758   0.89641   0.00000  Uiso   1.00
F1518  F     0.57793   0.95808   0.68749   0.00000  Uiso   1.00
H1519  H     0.65717   0.86243   0.57139   0.00000  Uiso   1.00
H1520  H     0.42137   0.71962   0.68894   0.00000  Uiso   1.00
H1521  H     0.36170   0.72464   0.68240   0.00000  Uiso   1.00
H1522  H     0.37303   0.73565   0.74426   0.00000  Uiso   1.00
H1523  H     0.35009   0.81228   0.62511   0.00000  Uiso   1.00
H1524  H     0.62731   0.79552   0.61469   0.00000  Uiso   1.00
H1525  H     0.33838   0.75812   0.61452   0.00000  Uiso   1.00
H1526  H     0.56473   0.75864   0.58754   0.00000  Uiso   1.00
H1527  H     0.55710   0.75286   0.52232   0.00000  Uiso   1.00
H1528  H     0.52340   0.72147   0.57444   0.00000  Uiso   1.00
H1529  H     0.39530   0.72448   0.54225   0.00000  Uiso   1.00
H1530  H     0.65981   0.89671   0.62353   0.00000  Uiso   1.00
H1531  H     0.42948   0.72468   0.58766   0.00000  Uiso   1.00
H1532  H     0.46120   0.72693   0.51997   0.00000  Uiso   1.00
H1533  H     0.64198   0.78386   0.96169   0.00000  Uiso   1.00
H1534  H     0.66349   0.83193   0.98437   0.00000  Uiso   1.00
H1535  H     0.62321   0.79893   0.52867   0.00000  Uiso   1.00
H1536  H     0.47985   0.94896   0.94100   0.00000  Uiso   1.00
H1537  H     0.43791   0.91989   0.91367   0.00000  Uiso   1.00
H1538  H     0.47854   0.95801   0.87658   0.00000  Uiso   1.00
H1539  H     0.66044   0.91811   0.56278   0.00000  Uiso   1.00
H1540  H     0.36958   0.67801   0.79787   0.00000  Uiso   1.00
H1541  H     0.35006   0.72083   0.84196   0.00000  Uiso   1.00
H1542  H     0.36962   0.67518   0.86573   0.00000  Uiso   1.00
H1543  H     0.62842   0.93285   0.75637   0.00000  Uiso   1.00
H1544  H     0.64248   0.94044   0.81791   0.00000  Uiso   1.00
H1545  H     0.58252   0.94891   0.81372   0.00000  Uiso   1.00
N1546  N     0.38265   0.83332   0.74999   0.00000  Uiso   1.00
N1547  N     0.61735   0.83335   0.75000   0.00000  Uiso   1.00
O1548  O     0.46042   0.89345   0.75001   0.00000  Uiso   1.00
O1549  O     0.42386   0.71215   0.82001   0.00000  Uiso   1.00
O1550  O     0.60140   0.88778   0.81314   0.00000  Uiso   1.00
O1551  O     0.39942   0.77952   0.68606   0.00000  Uiso   1.00
O1552  O     0.63292   0.78000   0.68634   0.00000  Uiso   1.00
O1553  O     0.50013   0.78153   0.57856   0.00000  Uiso   1.00
O1554  O     0.42596   0.78154   0.55590   0.00000  Uiso   1.00
O1555  O     0.35891   0.77569   0.50259   0.00000  Uiso   1.00
O1556  O     0.51046   0.90310   0.88425   0.00000  Uiso   1.00
O1557  O     0.53961   0.89346   0.75001   0.00000  Uiso   1.00
O1558  O     0.44108   0.83332   0.82549   0.00000  Uiso   1.00
O1559  O     0.52027   0.83333   0.82549   0.00000  Uiso   1.00
O1560  O     0.46039   0.77321   0.75000   0.00000  Uiso   1.00
O1561  O     0.53958   0.77322   0.75000   0.00000  Uiso   1.00
O1562  O     0.47973   0.83334   0.67451   0.00000  Uiso   1.00
O1563  O     0.55892   0.83335   0.67451   0.00000  Uiso   1.00
O1564  O     0.59378   0.89658   0.60843   0.00000  Uiso   1.00
C1565  C     0.83344   0.91251   0.75031   0.00000  Uiso   1.00
C1566  C     0.79152   0.82722   0.90617   0.00000  Uiso   1.00
C1567  C     0.87265   0.97852   0.71923   0.00000  Uiso   1.00
C1568  C     0.80734   0.83260   0.84976   0.00000  Uiso   1.00
C1569  C     0.87195   0.68783   0.71892   0.00000  Uiso   1.00
C1570  C     0.83227   0.70942   0.75124   0.00000  Uiso   1.00
C1571  C     0.79231   0.68854   0.78423   0.00000  Uiso   1.00
C1572  C     0.79333   0.97833   0.78369   0.00000  Uiso   1.00
C1573  C     0.83327   0.95715   0.75107   0.00000  Uiso   1.00
C1574  C     0.96725   0.86066   0.78095   0.00000  Uiso   1.00
C1575  C     0.68330   0.85955   0.78199   0.00000  Uiso   1.00
C1576  C     0.81303   0.82528   0.98827   0.00000  Uiso   1.00
C1577  C     0.69978   0.80636   0.71839   0.00000  Uiso   1.00
C1578  C     0.98327   0.80720   0.71746   0.00000  Uiso   1.00
C1579  C     0.83297   0.75413   0.75046   0.00000  Uiso   1.00
C1580  C     0.85925   0.83428   0.65040   0.00000  Uiso   1.00
C1581  C     0.90915   0.88917   0.52638   0.00000  Uiso   1.00
C1582  C     0.87381   0.84234   0.59495   0.00000  Uiso   1.00
C1583  C     0.75066   0.80288   0.92684   0.00000  Uiso   1.00
C1584  C     0.73717   0.79342   0.97904   0.00000  Uiso   1.00
C1585  C     0.77126   0.79861   0.50741   0.00000  Uiso   1.00
C1586  C     0.97818   0.89301   0.59003   0.00000  Uiso   1.00
C1587  C     0.81832   0.84325   0.93886   0.00000  Uiso   1.00
C1588  C     0.70992   0.69514   0.83139   0.00000  Uiso   1.00
C1589  C     0.94833   0.92898   0.79917   0.00000  Uiso   1.00
C1590  C     0.72108   0.73836   0.70154   0.00000  Uiso   1.00
C1591  C     0.98870   0.78732   0.63333   0.00000  Uiso   1.00
C1592  C     0.87192   0.75289   0.56476   0.00000  Uiso   1.00
C1593  C     0.76145   0.73771   0.55043   0.00000  Uiso   1.00
C1594  C     0.98753   0.79884   0.99330   0.00000  Uiso   1.00
C1595  C     0.80831   0.93350   0.90539   0.00000  Uiso   1.00
C1596  C     0.84717   0.83821   0.51640   0.00000  Uiso   1.00
C1597  C     0.87935   0.87229   0.99743   0.00000  Uiso   1.00
C1598  C     0.87959   0.89118   0.95133   0.00000  Uiso   1.00
C1599  C     0.84803   0.87840   0.92390   0.00000  Uiso   1.00
C1600  C     0.85091   0.82037   0.56303   0.00000  Uiso   1.00
C1601  C     0.90545   0.87505   0.57578   0.00000  Uiso   1.00
Cu1602 Cu    0.78645   0.83333   0.75000   0.00000  Uiso   1.00
Cu1603 Cu    0.88022   0.83334   0.75000   0.00000  Uiso   1.00
F1604  F     0.90962   0.70808   0.68612   0.00000  Uiso   1.00
F1605  F     0.75754   0.95626   0.81666   0.00000  Uiso   1.00
F1606  F     0.69805   0.88416   0.81601   0.00000  Uiso   1.00
F1607  F     0.90870   0.92422   0.93337   0.00000  Uiso   1.00
F1608  F     0.93811   0.92244   0.50935   0.00000  Uiso   1.00
F1609  F     0.72381   0.78758   0.89641   0.00000  Uiso   1.00
F1610  F     0.91126   0.95808   0.68749   0.00000  Uiso   1.00
H1611  H     0.99050   0.86243   0.57139   0.00000  Uiso   1.00
H1612  H     0.75470   0.71962   0.68894   0.00000  Uiso   1.00
H1613  H     0.69503   0.72464   0.68240   0.00000  Uiso   1.00
H1614  H     0.70636   0.73565   0.74426   0.00000  Uiso   1.00
H1615  H     0.68342   0.81228   0.62511   0.00000  Uiso   1.00
H1616  H     0.96064   0.79552   0.61469   0.00000  Uiso   1.00
H1617  H     0.67172   0.75812   0.61452   0.00000  Uiso   1.00
H1618  H     0.89807   0.75864   0.58754   0.00000  Uiso   1.00
H1619  H     0.89043   0.75286   0.52232   0.00000  Uiso   1.00
H1620  H     0.85674   0.72147   0.57444   0.00000  Uiso   1.00
H1621  H     0.72863   0.72448   0.54225   0.00000  Uiso   1.00
H1622  H     0.99314   0.89671   0.62353   0.00000  Uiso   1.00
H1623  H     0.76281   0.72468   0.58766   0.00000  Uiso   1.00
H1624  H     0.79454   0.72693   0.51997   0.00000  Uiso   1.00
H1625  H     0.97532   0.78386   0.96169   0.00000  Uiso   1.00
H1626  H     0.99682   0.83193   0.98437   0.00000  Uiso   1.00
H1627  H     0.95654   0.79893   0.52867   0.00000  Uiso   1.00
H1628  H     0.81319   0.94896   0.94100   0.00000  Uiso   1.00
H1629  H     0.77124   0.91989   0.91367   0.00000  Uiso   1.00
H1630  H     0.81187   0.95801   0.87658   0.00000  Uiso   1.00
H1631  H     0.99378   0.91811   0.56278   0.00000  Uiso   1.00
H1632  H     0.70291   0.67801   0.79787   0.00000  Uiso   1.00
H1633  H     0.68339   0.72083   0.84196   0.00000  Uiso   1.00
H1634  H     0.70295   0.67518   0.86573   0.00000  Uiso   1.00
H1635  H     0.96176   0.93285   0.75637   0.00000  Uiso   1.00
H1636  H     0.97582   0.94044   0.81791   0.00000  Uiso   1.00
H1637  H     0.91586   0.94891   0.81372   0.00000  Uiso   1.00
N1638  N     0.71598   0.83332   0.74999   0.00000  Uiso   1.00
N1639  N     0.95069   0.83335   0.75000   0.00000  Uiso   1.00
O1640  O     0.79375   0.89345   0.75001   0.00000  Uiso   1.00
O1641  O     0.75719   0.71215   0.82001   0.00000  Uiso   1.00
O1642  O     0.93473   0.88778   0.81314   0.00000  Uiso   1.00
O1643  O     0.73276   0.77952   0.68606   0.00000  Uiso   1.00
O1644  O     0.96625   0.78000   0.68634   0.00000  Uiso   1.00
O1645  O     0.83347   0.78153   0.57856   0.00000  Uiso   1.00
O1646  O     0.75929   0.78154   0.55590   0.00000  Uiso   1.00
O1647  O     0.69224   0.77569   0.50259   0.00000  Uiso   1.00
O1648  O     0.84379   0.90310   0.88425   0.00000  Uiso   1.00
O1649  O     0.87294   0.89346   0.75001   0.00000  Uiso   1.00
O1650  O     0.77441   0.83332   0.82549   0.00000  Uiso   1.00
O1651  O     0.85360   0.83333   0.82549   0.00000  Uiso   1.00
O1652  O     0.79373   0.77321   0.75000   0.00000  Uiso   1.00
O1653  O     0.87292   0.77322   0.75000   0.00000  Uiso   1.00
O1654  O     0.81306   0.83334   0.67451   0.00000  Uiso   1.00
O1655  O     0.89225   0.83335   0.67451   0.00000  Uiso   1.00
O1656  O     0.92711   0.89658   0.60843   0.00000  Uiso   1.00
loop_
_geom_bond_atom_site_label_1
_geom_bond_atom_site_label_2
_geom_bond_distance
_geom_bond_site_symmetry_2
_ccdc_geom_bond_type
C1     O85     1.296   .     A
C1     C9      1.444   .     S
C1     O76     1.293   .     A
C2     C19     1.391   .     A
C2     C4      1.470   .     S
C2     C23     1.413   .     A
C3     C9      1.395   .     A
C3     F46     1.357   .     S
C3     C281    1.380   .     S
C4     O87     1.302   .     A
C4     O86     1.297   .     A
C5     C6      1.401   .     A
C5     F40     1.358   .     S
C5     C555    1.380   1_545 S
C6     C15     1.447   .     S
C6     C7      1.410   .     A
C7     O77     1.397   .     S
C7     C560    1.409   1_545 S
C8     C9      1.402   .     A
C8     F41     1.358   .     S
C8     C283    1.409   .     S
C10    O78     1.382   .     S
C10    N75     1.373   .     A
C10    C103    1.428   .     S
C11    F42     1.355   .     S
C11    N74     1.364   .     A
C11    C194    1.428   1_455 S
C12    C23     1.433   .     A
C12    C849    1.447   .     S
C12    C860    1.455   .     S
C13    O79     1.384   .     S
C13    N74     1.373   .     A
C13    C198    1.440   1_455 S
C14    O80     1.381   .     S
C14    N75     1.367   .     A
C14    C105    1.440   .     S
C15    O89     1.295   .     A
C15    O88     1.295   .     A
C16    O90     1.299   .     A
C16    O91     1.296   .     A
C16    C18     1.460   .     S
C17    C37     1.392   .     A
C17    F44     1.359   .     S
C17    C861    1.412   1_554 S
C18    C37     1.396   .     A
C18    C36     1.401   .     A
C19    C20     1.388   .     A
C19    F45     1.360   .     S
C20    C849    1.412   .     S
C20    O911    1.389   .     S
C21    O82     1.379   .     S
C21    C840    1.447   1_554 S
C21    C848    1.412   1_554 S
C22    H47     1.112   .     S
C22    H58     1.110   .     S
C22    H67     1.109   .     S
C22    O92     1.412   .     S
C23    C35     1.410   .     A
C24    H70     1.110   .     S
C24    H69     1.109   .     S
C24    H68     1.114   .     S
C24    O77     1.412   .     S
C25    H71     1.115   .     S
C25    O78     1.414   .     S
C25    H72     1.109   .     S
C25    H73     1.109   .     S
C26    H50     1.111   .     S
C26    H48     1.109   .     S
C26    H49     1.108   .     S
C26    O79     1.413   .     S
C27    O80     1.412   .     S
C27    H52     1.103   .     S
C27    H143    1.115   .     S
C27    H145    1.104   .     S
C28    H55     1.113   .     S
C28    H54     1.110   .     S
C28    O81     1.410   .     S
C28    H56     1.109   .     S
C29    H59     1.108   .     S
C29    H60     1.115   .     S
C29    H57     1.108   .     S
C29    O82     1.422   .     S
C30    H62     1.116   .     S
C30    H61     1.110   .     S
C30    H891    1.101   .     S
C30    O1003   1.416   .     S
C31    H66     1.106   .     S
C31    O84     1.411   .     S
C31    H65     1.112   .     S
C31    H64     1.115   .     S
C32    C36     1.427   .     A
C32    C840    1.455   1_554 S
C32    C861    1.437   1_554 S
C33    C34     1.396   .     A
C33    C845    1.412   .     S
C33    C860    1.437   .     S
C34    C35     1.379   .     A
C34    F43     1.360   .     S
C35    O84     1.383   .     S
C36    O81     1.377   .     S
C37    O92     1.387   .     S
Cu38   O76     1.954   .     S
Cu38   O86     1.962   .     S
Cu38   Cu39    2.695   .     S
Cu38   O88     1.959   .     S
Cu38   N74     2.025   .     S
Cu38   O90     1.956   .     S
Cu39   O87     1.956   .     S
Cu39   N75     2.025   .     S
Cu39   O91     1.962   .     S
Cu39   O85     1.959   .     S
Cu39   O89     1.954   .     S
H51    C211    1.115   1_455 S
H53    C211    1.104   1_455 S
H63    C858    1.101   1_554 S
O83    C848    1.389   1_554 S
O83    C1042   1.416   1_454 S
C93    O177    1.296   .     A
C93    C101    1.444   .     S
C93    O168    1.293   .     A
C94    C111    1.391   .     A
C94    C96     1.470   .     S
C94    C115    1.413   .     A
C95    C101    1.395   .     A
C95    F138    1.357   .     S
C95    C373    1.380   .     S
C96    O179    1.302   .     A
C96    O178    1.297   .     A
C97    C98     1.401   .     A
C97    F132    1.358   .     S
C97    C647    1.380   1_545 S
C98    C107    1.447   .     S
C98    C99     1.410   .     A
C99    O169    1.397   .     S
C99    C652    1.409   1_545 S
C100   C101    1.402   .     A
C100   F133    1.358   .     S
C100   C375    1.409   .     S
C102   O170    1.382   .     S
C102   N167    1.373   .     A
C102   C195    1.428   .     S
C103   F134    1.355   .     S
C103   N166    1.364   .     A
C104   C115    1.433   .     A
C104   C941    1.447   .     S
C104   C952    1.455   .     S
C105   O171    1.384   .     S
C105   N166    1.373   .     A
C106   O172    1.381   .     S
C106   N167    1.367   .     A
C106   C197    1.440   .     S
C107   O181    1.295   .     A
C107   O180    1.295   .     A
C108   O182    1.299   .     A
C108   O183    1.296   .     A
C108   C110    1.460   .     S
C109   C129    1.392   .     A
C109   F136    1.359   .     S
C109   C953    1.412   1_554 S
C110   C129    1.396   .     A
C110   C128    1.401   .     A
C111   C112    1.388   .     A
C111   F137    1.360   .     S
C112   C941    1.412   .     S
C112   O1003   1.389   .     S
C113   O174    1.379   .     S
C113   C932    1.447   1_554 S
C113   C940    1.412   1_554 S
C114   H139    1.112   .     S
C114   H150    1.110   .     S
C114   H159    1.109   .     S
C114   O184    1.412   .     S
C115   C127    1.410   .     A
C116   H162    1.110   .     S
C116   H161    1.109   .     S
C116   H160    1.114   .     S
C116   O169    1.412   .     S
C117   H163    1.115   .     S
C117   O170    1.414   .     S
C117   H164    1.109   .     S
C117   H165    1.109   .     S
C118   H142    1.111   .     S
C118   H140    1.109   .     S
C118   H141    1.108   .     S
C118   O171    1.413   .     S
C119   O172    1.412   .     S
C119   H144    1.103   .     S
C119   H235    1.115   .     S
C119   H237    1.104   .     S
C120   H147    1.113   .     S
C120   H146    1.110   .     S
C120   O173    1.410   .     S
C120   H148    1.109   .     S
C121   H151    1.108   .     S
C121   H152    1.115   .     S
C121   H149    1.108   .     S
C121   O174    1.422   .     S
C122   H154    1.116   .     S
C122   H153    1.110   .     S
C122   H983    1.101   .     S
C122   O1095   1.416   .     S
C123   H158    1.106   .     S
C123   O176    1.411   .     S
C123   H157    1.112   .     S
C123   H156    1.115   .     S
C124   C128    1.427   .     A
C124   C932    1.455   1_554 S
C124   C953    1.437   1_554 S
C125   C126    1.396   .     A
C125   C937    1.412   .     S
C125   C952    1.437   .     S
C126   C127    1.379   .     A
C126   F135    1.360   .     S
C127   O176    1.383   .     S
C128   O173    1.377   .     S
C129   O184    1.387   .     S
Cu130  O168    1.954   .     S
Cu130  O178    1.962   .     S
Cu130  Cu131   2.695   .     S
Cu130  O180    1.959   .     S
Cu130  N166    2.025   .     S
Cu130  O182    1.956   .     S
Cu131  O179    1.956   .     S
Cu131  N167    2.025   .     S
Cu131  O183    1.962   .     S
Cu131  O177    1.959   .     S
Cu131  O181    1.954   .     S
H155   C950    1.101   1_554 S
O175   C940    1.389   1_554 S
O175   C858    1.416   1_554 S
C185   O269    1.296   .     A
C185   C193    1.444   .     S
C185   O260    1.293   .     A
C186   C203    1.391   .     A
C186   C188    1.470   .     S
C186   C207    1.413   .     A
C187   C193    1.395   .     A
C187   F230    1.357   .     S
C187   C465    1.380   .     S
C188   O271    1.302   .     A
C188   O270    1.297   .     A
C189   C190    1.401   .     A
C189   F224    1.358   .     S
C189   C739    1.380   1_545 S
C190   C199    1.447   .     S
C190   C191    1.410   .     A
C191   O261    1.397   .     S
C191   C744    1.409   1_545 S
C192   C193    1.402   .     A
C192   F225    1.358   .     S
C192   C467    1.409   .     S
C194   O262    1.382   .     S
C194   N259    1.373   .     A
C194   C11     1.428   1_655 S
C195   F226    1.355   .     S
C195   N258    1.364   .     A
C196   C207    1.433   .     A
C196   C1033   1.447   .     S
C196   C1044   1.455   .     S
C197   O263    1.384   .     S
C197   N258    1.373   .     A
C198   O264    1.381   .     S
C198   N259    1.367   .     A
C198   C13     1.440   1_655 S
C199   O273    1.295   .     A
C199   O272    1.295   .     A
C200   O274    1.299   .     A
C200   O275    1.296   .     A
C200   C202    1.460   .     S
C201   C221    1.392   .     A
C201   F228    1.359   .     S
C201   C1045   1.412   1_554 S
C202   C221    1.396   .     A
C202   C220    1.401   .     A
C203   C204    1.388   .     A
C203   F229    1.360   .     S
C204   C1033   1.412   .     S
C204   O1095   1.389   .     S
C205   O266    1.379   .     S
C205   C1024   1.447   1_554 S
C205   C1032   1.412   1_554 S
C206   H231    1.112   .     S
C206   H242    1.110   .     S
C206   H251    1.109   .     S
C206   O276    1.412   .     S
C207   C219    1.410   .     A
C208   H254    1.110   .     S
C208   H253    1.109   .     S
C208   H252    1.114   .     S
C208   O261    1.412   .     S
C209   H255    1.115   .     S
C209   O262    1.414   .     S
C209   H256    1.109   .     S
C209   H257    1.109   .     S
C210   H234    1.111   .     S
C210   H232    1.109   .     S
C210   H233    1.108   .     S
C210   O263    1.413   .     S
C211   O264    1.412   .     S
C211   H236    1.103   .     S
C211   H51     1.115   1_655 S
C211   H53     1.104   1_655 S
C212   H239    1.113   .     S
C212   H238    1.110   .     S
C212   O265    1.410   .     S
C212   H240    1.109   .     S
C213   H243    1.108   .     S
C213   H244    1.115   .     S
C213   H241    1.108   .     S
C213   O266    1.422   .     S
C214   H246    1.116   .     S
C214   H245    1.110   .     S
C214   H1075   1.101   .     S
C214   O911    1.416   1_655 S
C215   H250    1.106   .     S
C215   O268    1.411   .     S
C215   H249    1.112   .     S
C215   H248    1.115   .     S
C216   C220    1.427   .     A
C216   C1024   1.455   1_554 S
C216   C1045   1.437   1_554 S
C217   C218    1.396   .     A
C217   C1029   1.412   .     S
C217   C1044   1.437   .     S
C218   C219    1.379   .     A
C218   F227    1.360   .     S
C219   O268    1.383   .     S
C220   O265    1.377   .     S
C221   O276    1.387   .     S
Cu222  O260    1.954   .     S
Cu222  O270    1.962   .     S
Cu222  Cu223   2.695   .     S
Cu222  O272    1.959   .     S
Cu222  N258    2.025   .     S
Cu222  O274    1.956   .     S
Cu223  O271    1.956   .     S
Cu223  N259    2.025   .     S
Cu223  O275    1.962   .     S
Cu223  O269    1.959   .     S
Cu223  O273    1.954   .     S
H247   C1042   1.101   1_554 S
O267   C1032   1.389   1_554 S
O267   C950    1.416   1_554 S
C277   O361    1.296   .     A
C277   C285    1.444   .     S
C277   O352    1.293   .     A
C278   C295    1.391   .     A
C278   C280    1.470   .     S
C278   C299    1.413   .     A
C279   C285    1.395   .     A
C279   F322    1.357   .     S
C279   C557    1.380   .     S
C280   O363    1.302   .     A
C280   O362    1.297   .     A
C281   C282    1.401   .     A
C281   F316    1.358   .     S
C282   C291    1.447   .     S
C282   C283    1.410   .     A
C283   O353    1.397   .     S
C284   C285    1.402   .     A
C284   F317    1.358   .     S
C284   C559    1.409   .     S
C286   O354    1.382   .     S
C286   N351    1.373   .     A
C286   C379    1.428   .     S
C287   F318    1.355   .     S
C287   N350    1.364   .     A
C287   C470    1.428   1_455 S
C288   C299    1.433   .     A
C288   C1125   1.447   .     S
C288   C1136   1.455   .     S
C289   O355    1.384   .     S
C289   N350    1.373   .     A
C289   C474    1.440   1_455 S
C290   O356    1.381   .     S
C290   N351    1.367   .     A
C290   C381    1.440   .     S
C291   O365    1.295   .     A
C291   O364    1.295   .     A
C292   O366    1.299   .     A
C292   O367    1.296   .     A
C292   C294    1.460   .     S
C293   C313    1.392   .     A
C293   F320    1.359   .     S
C293   C1137   1.412   1_554 S
C294   C313    1.396   .     A
C294   C312    1.401   .     A
C295   C296    1.388   .     A
C295   F321    1.360   .     S
C296   C1125   1.412   .     S
C296   O1187   1.389   .     S
C297   O358    1.379   .     S
C297   C1116   1.447   1_554 S
C297   C1124   1.412   1_554 S
C298   H323    1.112   .     S
C298   H334    1.110   .     S
C298   H343    1.109   .     S
C298   O368    1.412   .     S
C299   C311    1.410   .     A
C300   H346    1.110   .     S
C300   H345    1.109   .     S
C300   H344    1.114   .     S
C300   O353    1.412   .     S
C301   H347    1.115   .     S
C301   O354    1.414   .     S
C301   H348    1.109   .     S
C301   H349    1.109   .     S
C302   H326    1.111   .     S
C302   H324    1.109   .     S
C302   H325    1.108   .     S
C302   O355    1.413   .     S
C303   O356    1.412   .     S
C303   H328    1.103   .     S
C303   H419    1.115   .     S
C303   H421    1.104   .     S
C304   H331    1.113   .     S
C304   H330    1.110   .     S
C304   O357    1.410   .     S
C304   H332    1.109   .     S
C305   H335    1.108   .     S
C305   H336    1.115   .     S
C305   H333    1.108   .     S
C305   O358    1.422   .     S
C306   H338    1.116   .     S
C306   H337    1.110   .     S
C306   H1167   1.101   .     S
C306   O1279   1.416   .     S
C307   H342    1.106   .     S
C307   O360    1.411   .     S
C307   H341    1.112   .     S
C307   H340    1.115   .     S
C308   C312    1.427   .     A
C308   C1116   1.455   1_554 S
C308   C1137   1.437   1_554 S
C309   C310    1.396   .     A
C309   C1121   1.412   .     S
C309   C1136   1.437   .     S
C310   C311    1.379   .     A
C310   F319    1.360   .     S
C311   O360    1.383   .     S
C312   O357    1.377   .     S
C313   O368    1.387   .     S
Cu314  O352    1.954   .     S
Cu314  O362    1.962   .     S
Cu314  Cu315   2.695   .     S
Cu314  O364    1.959   .     S
Cu314  N350    2.025   .     S
Cu314  O366    1.956   .     S
Cu315  O363    1.956   .     S
Cu315  N351    2.025   .     S
Cu315  O367    1.962   .     S
Cu315  O361    1.959   .     S
Cu315  O365    1.954   .     S
H327   C487    1.115   1_455 S
H329   C487    1.104   1_455 S
H339   C1134   1.101   1_554 S
O359   C1124   1.389   1_554 S
O359   C1318   1.416   1_454 S
C369   O453    1.296   .     A
C369   C377    1.444   .     S
C369   O444    1.293   .     A
C370   C387    1.391   .     A
C370   C372    1.470   .     S
C370   C391    1.413   .     A
C371   C377    1.395   .     A
C371   F414    1.357   .     S
C371   C649    1.380   .     S
C372   O455    1.302   .     A
C372   O454    1.297   .     A
C373   C374    1.401   .     A
C373   F408    1.358   .     S
C374   C383    1.447   .     S
C374   C375    1.410   .     A
C375   O445    1.397   .     S
C376   C377    1.402   .     A
C376   F409    1.358   .     S
C376   C651    1.409   .     S
C378   O446    1.382   .     S
C378   N443    1.373   .     A
C378   C471    1.428   .     S
C379   F410    1.355   .     S
C379   N442    1.364   .     A
C380   C391    1.433   .     A
C380   C1217   1.447   .     S
C380   C1228   1.455   .     S
C381   O447    1.384   .     S
C381   N442    1.373   .     A
C382   O448    1.381   .     S
C382   N443    1.367   .     A
C382   C473    1.440   .     S
C383   O457    1.295   .     A
C383   O456    1.295   .     A
C384   O458    1.299   .     A
C384   O459    1.296   .     A
C384   C386    1.460   .     S
C385   C405    1.392   .     A
C385   F412    1.359   .     S
C385   C1229   1.412   1_554 S
C386   C405    1.396   .     A
C386   C404    1.401   .     A
C387   C388    1.388   .     A
C387   F413    1.360   .     S
C388   C1217   1.412   .     S
C388   O1279   1.389   .     S
C389   O450    1.379   .     S
C389   C1208   1.447   1_554 S
C389   C1216   1.412   1_554 S
C390   H415    1.112   .     S
C390   H426    1.110   .     S
C390   H435    1.109   .     S
C390   O460    1.412   .     S
C391   C403    1.410   .     A
C392   H438    1.110   .     S
C392   H437    1.109   .     S
C392   H436    1.114   .     S
C392   O445    1.412   .     S
C393   H439    1.115   .     S
C393   O446    1.414   .     S
C393   H440    1.109   .     S
C393   H441    1.109   .     S
C394   H418    1.111   .     S
C394   H416    1.109   .     S
C394   H417    1.108   .     S
C394   O447    1.413   .     S
C395   O448    1.412   .     S
C395   H420    1.103   .     S
C395   H511    1.115   .     S
C395   H513    1.104   .     S
C396   H423    1.113   .     S
C396   H422    1.110   .     S
C396   O449    1.410   .     S
C396   H424    1.109   .     S
C397   H427    1.108   .     S
C397   H428    1.115   .     S
C397   H425    1.108   .     S
C397   O450    1.422   .     S
C398   H430    1.116   .     S
C398   H429    1.110   .     S
C398   H1259   1.101   .     S
C398   O1371   1.416   .     S
C399   H434    1.106   .     S
C399   O452    1.411   .     S
C399   H433    1.112   .     S
C399   H432    1.115   .     S
C400   C404    1.427   .     A
C400   C1208   1.455   1_554 S
C400   C1229   1.437   1_554 S
C401   C402    1.396   .     A
C401   C1213   1.412   .     S
C401   C1228   1.437   .     S
C402   C403    1.379   .     A
C402   F411    1.360   .     S
C403   O452    1.383   .     S
C404   O449    1.377   .     S
C405   O460    1.387   .     S
Cu406  O444    1.954   .     S
Cu406  O454    1.962   .     S
Cu406  Cu407   2.695   .     S
Cu406  O456    1.959   .     S
Cu406  N442    2.025   .     S
Cu406  O458    1.956   .     S
Cu407  O455    1.956   .     S
Cu407  N443    2.025   .     S
Cu407  O459    1.962   .     S
Cu407  O453    1.959   .     S
Cu407  O457    1.954   .     S
H431   C1226   1.101   1_554 S
O451   C1216   1.389   1_554 S
O451   C1134   1.416   1_554 S
C461   O545    1.296   .     A
C461   C469    1.444   .     S
C461   O536    1.293   .     A
C462   C479    1.391   .     A
C462   C464    1.470   .     S
C462   C483    1.413   .     A
C463   C469    1.395   .     A
C463   F506    1.357   .     S
C463   C741    1.380   .     S
C464   O547    1.302   .     A
C464   O546    1.297   .     A
C465   C466    1.401   .     A
C465   F500    1.358   .     S
C466   C475    1.447   .     S
C466   C467    1.410   .     A
C467   O537    1.397   .     S
C468   C469    1.402   .     A
C468   F501    1.358   .     S
C468   C743    1.409   .     S
C470   O538    1.382   .     S
C470   N535    1.373   .     A
C470   C287    1.428   1_655 S
C471   F502    1.355   .     S
C471   N534    1.364   .     A
C472   C483    1.433   .     A
C472   C1309   1.447   .     S
C472   C1320   1.455   .     S
C473   O539    1.384   .     S
C473   N534    1.373   .     A
C474   O540    1.381   .     S
C474   N535    1.367   .     A
C474   C289    1.440   1_655 S
C475   O549    1.295   .     A
C475   O548    1.295   .     A
C476   O550    1.299   .     A
C476   O551    1.296   .     A
C476   C478    1.460   .     S
C477   C497    1.392   .     A
C477   F504    1.359   .     S
C477   C1321   1.412   1_554 S
C478   C497    1.396   .     A
C478   C496    1.401   .     A
C479   C480    1.388   .     A
C479   F505    1.360   .     S
C480   C1309   1.412   .     S
C480   O1371   1.389   .     S
C481   O542    1.379   .     S
C481   C1300   1.447   1_554 S
C481   C1308   1.412   1_554 S
C482   H507    1.112   .     S
C482   H518    1.110   .     S
C482   H527    1.109   .     S
C482   O552    1.412   .     S
C483   C495    1.410   .     A
C484   H530    1.110   .     S
C484   H529    1.109   .     S
C484   H528    1.114   .     S
C484   O537    1.412   .     S
C485   H531    1.115   .     S
C485   O538    1.414   .     S
C485   H532    1.109   .     S
C485   H533    1.109   .     S
C486   H510    1.111   .     S
C486   H508    1.109   .     S
C486   H509    1.108   .     S
C486   O539    1.413   .     S
C487   O540    1.412   .     S
C487   H512    1.103   .     S
C487   H327    1.115   1_655 S
C487   H329    1.104   1_655 S
C488   H515    1.113   .     S
C488   H514    1.110   .     S
C488   O541    1.410   .     S
C488   H516    1.109   .     S
C489   H519    1.108   .     S
C489   H520    1.115   .     S
C489   H517    1.108   .     S
C489   O542    1.422   .     S
C490   H522    1.116   .     S
C490   H521    1.110   .     S
C490   H1351   1.101   .     S
C490   O1187   1.416   1_655 S
C491   H526    1.106   .     S
C491   O544    1.411   .     S
C491   H525    1.112   .     S
C491   H524    1.115   .     S
C492   C496    1.427   .     A
C492   C1300   1.455   1_554 S
C492   C1321   1.437   1_554 S
C493   C494    1.396   .     A
C493   C1305   1.412   .     S
C493   C1320   1.437   .     S
C494   C495    1.379   .     A
C494   F503    1.360   .     S
C495   O544    1.383   .     S
C496   O541    1.377   .     S
C497   O552    1.387   .     S
Cu498  O536    1.954   .     S
Cu498  O546    1.962   .     S
Cu498  Cu499   2.695   .     S
Cu498  O548    1.959   .     S
Cu498  N534    2.025   .     S
Cu498  O550    1.956   .     S
Cu499  O547    1.956   .     S
Cu499  N535    2.025   .     S
Cu499  O551    1.962   .     S
Cu499  O545    1.959   .     S
Cu499  O549    1.954   .     S
H523   C1318   1.101   1_554 S
O543   C1308   1.389   1_554 S
O543   C1226   1.416   1_554 S
C553   O637    1.296   .     A
C553   C561    1.444   .     S
C553   O628    1.293   .     A
C554   C571    1.391   .     A
C554   C556    1.470   .     S
C554   C575    1.413   .     A
C555   C561    1.395   .     A
C555   F598    1.357   .     S
C555   C5      1.380   1_565 S
C556   O639    1.302   .     A
C556   O638    1.297   .     A
C557   C558    1.401   .     A
C557   F592    1.358   .     S
C558   C567    1.447   .     S
C558   C559    1.410   .     A
C559   O629    1.397   .     S
C560   C561    1.402   .     A
C560   F593    1.358   .     S
C560   C7      1.409   1_565 S
C562   O630    1.382   .     S
C562   N627    1.373   .     A
C562   C655    1.428   .     S
C563   F594    1.355   .     S
C563   N626    1.364   .     A
C563   C746    1.428   1_455 S
C564   C575    1.433   .     A
C564   C1401   1.447   .     S
C564   C1412   1.455   .     S
C565   O631    1.384   .     S
C565   N626    1.373   .     A
C565   C750    1.440   1_455 S
C566   O632    1.381   .     S
C566   N627    1.367   .     A
C566   C657    1.440   .     S
C567   O641    1.295   .     A
C567   O640    1.295   .     A
C568   O642    1.299   .     A
C568   O643    1.296   .     A
C568   C570    1.460   .     S
C569   C589    1.392   .     A
C569   F596    1.359   .     S
C569   C1413   1.412   1_554 S
C570   C589    1.396   .     A
C570   C588    1.401   .     A
C571   C572    1.388   .     A
C571   F597    1.360   .     S
C572   C1401   1.412   .     S
C572   O1463   1.389   .     S
C573   O634    1.379   .     S
C573   C1392   1.447   1_554 S
C573   C1400   1.412   1_554 S
C574   H599    1.112   .     S
C574   H610    1.110   .     S
C574   H619    1.109   .     S
C574   O644    1.412   .     S
C575   C587    1.410   .     A
C576   H622    1.110   .     S
C576   H621    1.109   .     S
C576   H620    1.114   .     S
C576   O629    1.412   .     S
C577   H623    1.115   .     S
C577   O630    1.414   .     S
C577   H624    1.109   .     S
C577   H625    1.109   .     S
C578   H602    1.111   .     S
C578   H600    1.109   .     S
C578   H601    1.108   .     S
C578   O631    1.413   .     S
C579   O632    1.412   .     S
C579   H604    1.103   .     S
C579   H695    1.115   .     S
C579   H697    1.104   .     S
C580   H607    1.113   .     S
C580   H606    1.110   .     S
C580   O633    1.410   .     S
C580   H608    1.109   .     S
C581   H611    1.108   .     S
C581   H612    1.115   .     S
C581   H609    1.108   .     S
C581   O634    1.422   .     S
C582   H614    1.116   .     S
C582   H613    1.110   .     S
C582   H1443   1.101   .     S
C582   O1555   1.416   .     S
C583   H618    1.106   .     S
C583   O636    1.411   .     S
C583   H617    1.112   .     S
C583   H616    1.115   .     S
C584   C588    1.427   .     A
C584   C1392   1.455   1_554 S
C584   C1413   1.437   1_554 S
C585   C586    1.396   .     A
C585   C1397   1.412   .     S
C585   C1412   1.437   .     S
C586   C587    1.379   .     A
C586   F595    1.360   .     S
C587   O636    1.383   .     S
C588   O633    1.377   .     S
C589   O644    1.387   .     S
Cu590  O628    1.954   .     S
Cu590  O638    1.962   .     S
Cu590  Cu591   2.695   .     S
Cu590  O640    1.959   .     S
Cu590  N626    2.025   .     S
Cu590  O642    1.956   .     S
Cu591  O639    1.956   .     S
Cu591  N627    2.025   .     S
Cu591  O643    1.962   .     S
Cu591  O637    1.959   .     S
Cu591  O641    1.954   .     S
H603   C763    1.115   1_455 S
H605   C763    1.104   1_455 S
H615   C1410   1.101   1_554 S
O635   C1400   1.389   1_554 S
O635   C1594   1.416   1_454 S
C645   O729    1.296   .     A
C645   C653    1.444   .     S
C645   O720    1.293   .     A
C646   C663    1.391   .     A
C646   C648    1.470   .     S
C646   C667    1.413   .     A
C647   C653    1.395   .     A
C647   F690    1.357   .     S
C647   C97     1.380   1_565 S
C648   O731    1.302   .     A
C648   O730    1.297   .     A
C649   C650    1.401   .     A
C649   F684    1.358   .     S
C650   C659    1.447   .     S
C650   C651    1.410   .     A
C651   O721    1.397   .     S
C652   C653    1.402   .     A
C652   F685    1.358   .     S
C652   C99     1.409   1_565 S
C654   O722    1.382   .     S
C654   N719    1.373   .     A
C654   C747    1.428   .     S
C655   F686    1.355   .     S
C655   N718    1.364   .     A
C656   C667    1.433   .     A
C656   C1493   1.447   .     S
C656   C1504   1.455   .     S
C657   O723    1.384   .     S
C657   N718    1.373   .     A
C658   O724    1.381   .     S
C658   N719    1.367   .     A
C658   C749    1.440   .     S
C659   O733    1.295   .     A
C659   O732    1.295   .     A
C660   O734    1.299   .     A
C660   O735    1.296   .     A
C660   C662    1.460   .     S
C661   C681    1.392   .     A
C661   F688    1.359   .     S
C661   C1505   1.412   1_554 S
C662   C681    1.396   .     A
C662   C680    1.401   .     A
C663   C664    1.388   .     A
C663   F689    1.360   .     S
C664   C1493   1.412   .     S
C664   O1555   1.389   .     S
C665   O726    1.379   .     S
C665   C1484   1.447   1_554 S
C665   C1492   1.412   1_554 S
C666   H691    1.112   .     S
C666   H702    1.110   .     S
C666   H711    1.109   .     S
C666   O736    1.412   .     S
C667   C679    1.410   .     A
C668   H714    1.110   .     S
C668   H713    1.109   .     S
C668   H712    1.114   .     S
C668   O721    1.412   .     S
C669   H715    1.115   .     S
C669   O722    1.414   .     S
C669   H716    1.109   .     S
C669   H717    1.109   .     S
C670   H694    1.111   .     S
C670   H692    1.109   .     S
C670   H693    1.108   .     S
C670   O723    1.413   .     S
C671   O724    1.412   .     S
C671   H696    1.103   .     S
C671   H787    1.115   .     S
C671   H789    1.104   .     S
C672   H699    1.113   .     S
C672   H698    1.110   .     S
C672   O725    1.410   .     S
C672   H700    1.109   .     S
C673   H703    1.108   .     S
C673   H704    1.115   .     S
C673   H701    1.108   .     S
C673   O726    1.422   .     S
C674   H706    1.116   .     S
C674   H705    1.110   .     S
C674   H1535   1.101   .     S
C674   O1647   1.416   .     S
C675   H710    1.106   .     S
C675   O728    1.411   .     S
C675   H709    1.112   .     S
C675   H708    1.115   .     S
C676   C680    1.427   .     A
C676   C1484   1.455   1_554 S
C676   C1505   1.437   1_554 S
C677   C678    1.396   .     A
C677   C1489   1.412   .     S
C677   C1504   1.437   .     S
C678   C679    1.379   .     A
C678   F687    1.360   .     S
C679   O728    1.383   .     S
C680   O725    1.377   .     S
C681   O736    1.387   .     S
Cu682  O720    1.954   .     S
Cu682  O730    1.962   .     S
Cu682  Cu683   2.695   .     S
Cu682  O732    1.959   .     S
Cu682  N718    2.025   .     S
Cu682  O734    1.956   .     S
Cu683  O731    1.956   .     S
Cu683  N719    2.025   .     S
Cu683  O735    1.962   .     S
Cu683  O729    1.959   .     S
Cu683  O733    1.954   .     S
H707   C1502   1.101   1_554 S
O727   C1492   1.389   1_554 S
O727   C1410   1.416   1_554 S
C737   O821    1.296   .     A
C737   C745    1.444   .     S
C737   O812    1.293   .     A
C738   C755    1.391   .     A
C738   C740    1.470   .     S
C738   C759    1.413   .     A
C739   C745    1.395   .     A
C739   F782    1.357   .     S
C739   C189    1.380   1_565 S
C740   O823    1.302   .     A
C740   O822    1.297   .     A
C741   C742    1.401   .     A
C741   F776    1.358   .     S
C742   C751    1.447   .     S
C742   C743    1.410   .     A
C743   O813    1.397   .     S
C744   C745    1.402   .     A
C744   F777    1.358   .     S
C744   C191    1.409   1_565 S
C746   O814    1.382   .     S
C746   N811    1.373   .     A
C746   C563    1.428   1_655 S
C747   F778    1.355   .     S
C747   N810    1.364   .     A
C748   C759    1.433   .     A
C748   C1585   1.447   .     S
C748   C1596   1.455   .     S
C749   O815    1.384   .     S
C749   N810    1.373   .     A
C750   O816    1.381   .     S
C750   N811    1.367   .     A
C750   C565    1.440   1_655 S
C751   O825    1.295   .     A
C751   O824    1.295   .     A
C752   O826    1.299   .     A
C752   O827    1.296   .     A
C752   C754    1.460   .     S
C753   C773    1.392   .     A
C753   F780    1.359   .     S
C753   C1597   1.412   1_554 S
C754   C773    1.396   .     A
C754   C772    1.401   .     A
C755   C756    1.388   .     A
C755   F781    1.360   .     S
C756   C1585   1.412   .     S
C756   O1647   1.389   .     S
C757   O818    1.379   .     S
C757   C1576   1.447   1_554 S
C757   C1584   1.412   1_554 S
C758   H783    1.112   .     S
C758   H794    1.110   .     S
C758   H803    1.109   .     S
C758   O828    1.412   .     S
C759   C771    1.410   .     A
C760   H806    1.110   .     S
C760   H805    1.109   .     S
C760   H804    1.114   .     S
C760   O813    1.412   .     S
C761   H807    1.115   .     S
C761   O814    1.414   .     S
C761   H808    1.109   .     S
C761   H809    1.109   .     S
C762   H786    1.111   .     S
C762   H784    1.109   .     S
C762   H785    1.108   .     S
C762   O815    1.413   .     S
C763   O816    1.412   .     S
C763   H788    1.103   .     S
C763   H603    1.115   1_655 S
C763   H605    1.104   1_655 S
C764   H791    1.113   .     S
C764   H790    1.110   .     S
C764   O817    1.410   .     S
C764   H792    1.109   .     S
C765   H795    1.108   .     S
C765   H796    1.115   .     S
C765   H793    1.108   .     S
C765   O818    1.422   .     S
C766   H798    1.116   .     S
C766   H797    1.110   .     S
C766   H1627   1.101   .     S
C766   O1463   1.416   1_655 S
C767   H802    1.106   .     S
C767   O820    1.411   .     S
C767   H801    1.112   .     S
C767   H800    1.115   .     S
C768   C772    1.427   .     A
C768   C1576   1.455   1_554 S
C768   C1597   1.437   1_554 S
C769   C770    1.396   .     A
C769   C1581   1.412   .     S
C769   C1596   1.437   .     S
C770   C771    1.379   .     A
C770   F779    1.360   .     S
C771   O820    1.383   .     S
C772   O817    1.377   .     S
C773   O828    1.387   .     S
Cu774  O812    1.954   .     S
Cu774  O822    1.962   .     S
Cu774  Cu775   2.695   .     S
Cu774  O824    1.959   .     S
Cu774  N810    2.025   .     S
Cu774  O826    1.956   .     S
Cu775  O823    1.956   .     S
Cu775  N811    2.025   .     S
Cu775  O827    1.962   .     S
Cu775  O821    1.959   .     S
Cu775  O825    1.954   .     S
H799   C1594   1.101   1_554 S
O819   C1584   1.389   1_554 S
O819   C1502   1.416   1_554 S
C829   O913    1.296   .     A
C829   C837    1.444   .     S
C829   O904    1.293   .     A
C830   C847    1.391   .     A
C830   C832    1.470   .     S
C830   C851    1.413   .     A
C831   C837    1.395   .     A
C831   F874    1.357   .     S
C831   C1109   1.380   .     S
C832   O915    1.302   .     A
C832   O914    1.297   .     A
C833   C834    1.401   .     A
C833   F868    1.358   .     S
C833   C1383   1.380   1_545 S
C834   C843    1.447   .     S
C834   C835    1.410   .     A
C835   O905    1.397   .     S
C835   C1388   1.409   1_545 S
C836   C837    1.402   .     A
C836   F869    1.358   .     S
C836   C1111   1.409   .     S
C838   O906    1.382   .     S
C838   N903    1.373   .     A
C838   C931    1.428   .     S
C839   F870    1.355   .     S
C839   N902    1.364   .     A
C839   C1022   1.428   1_455 S
C840   C851    1.433   .     A
C840   C21     1.447   1_556 S
C840   C32     1.455   1_556 S
C841   O907    1.384   .     S
C841   N902    1.373   .     A
C841   C1026   1.440   1_455 S
C842   O908    1.381   .     S
C842   N903    1.367   .     A
C842   C933    1.440   .     S
C843   O917    1.295   .     A
C843   O916    1.295   .     A
C844   O918    1.299   .     A
C844   O919    1.296   .     A
C844   C846    1.460   .     S
C845   C865    1.392   .     A
C845   F872    1.359   .     S
C846   C865    1.396   .     A
C846   C864    1.401   .     A
C847   C848    1.388   .     A
C847   F873    1.360   .     S
C848   C21     1.412   1_556 S
C848   O83     1.389   1_556 S
C849   O910    1.379   .     S
C850   H875    1.112   .     S
C850   H886    1.110   .     S
C850   H895    1.109   .     S
C850   O920    1.412   .     S
C851   C863    1.410   .     A
C852   H898    1.110   .     S
C852   H897    1.109   .     S
C852   H896    1.114   .     S
C852   O905    1.412   .     S
C853   H899    1.115   .     S
C853   O906    1.414   .     S
C853   H900    1.109   .     S
C853   H901    1.109   .     S
C854   H878    1.111   .     S
C854   H876    1.109   .     S
C854   H877    1.108   .     S
C854   O907    1.413   .     S
C855   O908    1.412   .     S
C855   H880    1.103   .     S
C855   H971    1.115   .     S
C855   H973    1.104   .     S
C856   H883    1.113   .     S
C856   H882    1.110   .     S
C856   O909    1.410   .     S
C856   H884    1.109   .     S
C857   H887    1.108   .     S
C857   H888    1.115   .     S
C857   H885    1.108   .     S
C857   O910    1.422   .     S
C858   H890    1.116   .     S
C858   H889    1.110   .     S
C858   H63     1.101   1_556 S
C858   O175    1.416   1_556 S
C859   H894    1.106   .     S
C859   O912    1.411   .     S
C859   H893    1.112   .     S
C859   H892    1.115   .     S
C860   C864    1.427   .     A
C861   C862    1.396   .     A
C861   C17     1.412   1_556 S
C861   C32     1.437   1_556 S
C862   C863    1.379   .     A
C862   F871    1.360   .     S
C863   O912    1.383   .     S
C864   O909    1.377   .     S
C865   O920    1.387   .     S
Cu866  O904    1.954   .     S
Cu866  O914    1.962   .     S
Cu866  Cu867   2.695   .     S
Cu866  O916    1.959   .     S
Cu866  N902    2.025   .     S
Cu866  O918    1.956   .     S
Cu867  O915    1.956   .     S
Cu867  N903    2.025   .     S
Cu867  O919    1.962   .     S
Cu867  O913    1.959   .     S
Cu867  O917    1.954   .     S
H879   C1039   1.115   1_455 S
H881   C1039   1.104   1_455 S
O911   C214    1.416   1_455 S
C921   O1005   1.296   .     A
C921   C929    1.444   .     S
C921   O996    1.293   .     A
C922   C939    1.391   .     A
C922   C924    1.470   .     S
C922   C943    1.413   .     A
C923   C929    1.395   .     A
C923   F966    1.357   .     S
C923   C1201   1.380   .     S
C924   O1007   1.302   .     A
C924   O1006   1.297   .     A
C925   C926    1.401   .     A
C925   F960    1.358   .     S
C925   C1475   1.380   1_545 S
C926   C935    1.447   .     S
C926   C927    1.410   .     A
C927   O997    1.397   .     S
C927   C1480   1.409   1_545 S
C928   C929    1.402   .     A
C928   F961    1.358   .     S
C928   C1203   1.409   .     S
C930   O998    1.382   .     S
C930   N995    1.373   .     A
C930   C1023   1.428   .     S
C931   F962    1.355   .     S
C931   N994    1.364   .     A
C932   C943    1.433   .     A
C932   C113    1.447   1_556 S
C932   C124    1.455   1_556 S
C933   O999    1.384   .     S
C933   N994    1.373   .     A
C934   O1000   1.381   .     S
C934   N995    1.367   .     A
C934   C1025   1.440   .     S
C935   O1009   1.295   .     A
C935   O1008   1.295   .     A
C936   O1010   1.299   .     A
C936   O1011   1.296   .     A
C936   C938    1.460   .     S
C937   C957    1.392   .     A
C937   F964    1.359   .     S
C938   C957    1.396   .     A
C938   C956    1.401   .     A
C939   C940    1.388   .     A
C939   F965    1.360   .     S
C940   C113    1.412   1_556 S
C940   O175    1.389   1_556 S
C941   O1002   1.379   .     S
C942   H967    1.112   .     S
C942   H978    1.110   .     S
C942   H987    1.109   .     S
C942   O1012   1.412   .     S
C943   C955    1.410   .     A
C944   H990    1.110   .     S
C944   H989    1.109   .     S
C944   H988    1.114   .     S
C944   O997    1.412   .     S
C945   H991    1.115   .     S
C945   O998    1.414   .     S
C945   H992    1.109   .     S
C945   H993    1.109   .     S
C946   H970    1.111   .     S
C946   H968    1.109   .     S
C946   H969    1.108   .     S
C946   O999    1.413   .     S
C947   O1000   1.412   .     S
C947   H972    1.103   .     S
C947   H1063   1.115   .     S
C947   H1065   1.104   .     S
C948   H975    1.113   .     S
C948   H974    1.110   .     S
C948   O1001   1.410   .     S
C948   H976    1.109   .     S
C949   H979    1.108   .     S
C949   H980    1.115   .     S
C949   H977    1.108   .     S
C949   O1002   1.422   .     S
C950   H982    1.116   .     S
C950   H981    1.110   .     S
C950   H155    1.101   1_556 S
C950   O267    1.416   1_556 S
C951   H986    1.106   .     S
C951   O1004   1.411   .     S
C951   H985    1.112   .     S
C951   H984    1.115   .     S
C952   C956    1.427   .     A
C953   C954    1.396   .     A
C953   C109    1.412   1_556 S
C953   C124    1.437   1_556 S
C954   C955    1.379   .     A
C954   F963    1.360   .     S
C955   O1004   1.383   .     S
C956   O1001   1.377   .     S
C957   O1012   1.387   .     S
Cu958  O996    1.954   .     S
Cu958  O1006   1.962   .     S
Cu958  Cu959   2.695   .     S
Cu958  O1008   1.959   .     S
Cu958  N994    2.025   .     S
Cu958  O1010   1.956   .     S
Cu959  O1007   1.956   .     S
Cu959  N995    2.025   .     S
Cu959  O1011   1.962   .     S
Cu959  O1005   1.959   .     S
Cu959  O1009   1.954   .     S
C1013  O1097   1.296   .     A
C1013  C1021   1.444   .     S
C1013  O1088   1.293   .     A
C1014  C1031   1.391   .     A
C1014  C1016   1.470   .     S
C1014  C1035   1.413   .     A
C1015  C1021   1.395   .     A
C1015  F1058   1.357   .     S
C1015  C1293   1.380   .     S
C1016  O1099   1.302   .     A
C1016  O1098   1.297   .     A
C1017  C1018   1.401   .     A
C1017  F1052   1.358   .     S
C1017  C1567   1.380   1_545 S
C1018  C1027   1.447   .     S
C1018  C1019   1.410   .     A
C1019  O1089   1.397   .     S
C1019  C1572   1.409   1_545 S
C1020  C1021   1.402   .     A
C1020  F1053   1.358   .     S
C1020  C1295   1.409   .     S
C1022  O1090   1.382   .     S
C1022  N1087   1.373   .     A
C1022  C839    1.428   1_655 S
C1023  F1054   1.355   .     S
C1023  N1086   1.364   .     A
C1024  C1035   1.433   .     A
C1024  C205    1.447   1_556 S
C1024  C216    1.455   1_556 S
C1025  O1091   1.384   .     S
C1025  N1086   1.373   .     A
C1026  O1092   1.381   .     S
C1026  N1087   1.367   .     A
C1026  C841    1.440   1_655 S
C1027  O1101   1.295   .     A
C1027  O1100   1.295   .     A
C1028  O1102   1.299   .     A
C1028  O1103   1.296   .     A
C1028  C1030   1.460   .     S
C1029  C1049   1.392   .     A
C1029  F1056   1.359   .     S
C1030  C1049   1.396   .     A
C1030  C1048   1.401   .     A
C1031  C1032   1.388   .     A
C1031  F1057   1.360   .     S
C1032  C205    1.412   1_556 S
C1032  O267    1.389   1_556 S
C1033  O1094   1.379   .     S
C1034  H1059   1.112   .     S
C1034  H1070   1.110   .     S
C1034  H1079   1.109   .     S
C1034  O1104   1.412   .     S
C1035  C1047   1.410   .     A
C1036  H1082   1.110   .     S
C1036  H1081   1.109   .     S
C1036  H1080   1.114   .     S
C1036  O1089   1.412   .     S
C1037  H1083   1.115   .     S
C1037  O1090   1.414   .     S
C1037  H1084   1.109   .     S
C1037  H1085   1.109   .     S
C1038  H1062   1.111   .     S
C1038  H1060   1.109   .     S
C1038  H1061   1.108   .     S
C1038  O1091   1.413   .     S
C1039  O1092   1.412   .     S
C1039  H1064   1.103   .     S
C1039  H879    1.115   1_655 S
C1039  H881    1.104   1_655 S
C1040  H1067   1.113   .     S
C1040  H1066   1.110   .     S
C1040  O1093   1.410   .     S
C1040  H1068   1.109   .     S
C1041  H1071   1.108   .     S
C1041  H1072   1.115   .     S
C1041  H1069   1.108   .     S
C1041  O1094   1.422   .     S
C1042  H1074   1.116   .     S
C1042  H1073   1.110   .     S
C1042  H247    1.101   1_556 S
C1042  O83     1.416   1_656 S
C1043  H1078   1.106   .     S
C1043  O1096   1.411   .     S
C1043  H1077   1.112   .     S
C1043  H1076   1.115   .     S
C1044  C1048   1.427   .     A
C1045  C1046   1.396   .     A
C1045  C201    1.412   1_556 S
C1045  C216    1.437   1_556 S
C1046  C1047   1.379   .     A
C1046  F1055   1.360   .     S
C1047  O1096   1.383   .     S
C1048  O1093   1.377   .     S
C1049  O1104   1.387   .     S
Cu1050 O1088   1.954   .     S
Cu1050 O1098   1.962   .     S
Cu1050 Cu1051  2.695   .     S
Cu1050 O1100   1.959   .     S
Cu1050 N1086   2.025   .     S
Cu1050 O1102   1.956   .     S
Cu1051 O1099   1.956   .     S
Cu1051 N1087   2.025   .     S
Cu1051 O1103   1.962   .     S
Cu1051 O1097   1.959   .     S
Cu1051 O1101   1.954   .     S
C1105  O1189   1.296   .     A
C1105  C1113   1.444   .     S
C1105  O1180   1.293   .     A
C1106  C1123   1.391   .     A
C1106  C1108   1.470   .     S
C1106  C1127   1.413   .     A
C1107  C1113   1.395   .     A
C1107  F1150   1.357   .     S
C1107  C1385   1.380   .     S
C1108  O1191   1.302   .     A
C1108  O1190   1.297   .     A
C1109  C1110   1.401   .     A
C1109  F1144   1.358   .     S
C1110  C1119   1.447   .     S
C1110  C1111   1.410   .     A
C1111  O1181   1.397   .     S
C1112  C1113   1.402   .     A
C1112  F1145   1.358   .     S
C1112  C1387   1.409   .     S
C1114  O1182   1.382   .     S
C1114  N1179   1.373   .     A
C1114  C1207   1.428   .     S
C1115  F1146   1.355   .     S
C1115  N1178   1.364   .     A
C1115  C1298   1.428   1_455 S
C1116  C1127   1.433   .     A
C1116  C297    1.447   1_556 S
C1116  C308    1.455   1_556 S
C1117  O1183   1.384   .     S
C1117  N1178   1.373   .     A
C1117  C1302   1.440   1_455 S
C1118  O1184   1.381   .     S
C1118  N1179   1.367   .     A
C1118  C1209   1.440   .     S
C1119  O1193   1.295   .     A
C1119  O1192   1.295   .     A
C1120  O1194   1.299   .     A
C1120  O1195   1.296   .     A
C1120  C1122   1.460   .     S
C1121  C1141   1.392   .     A
C1121  F1148   1.359   .     S
C1122  C1141   1.396   .     A
C1122  C1140   1.401   .     A
C1123  C1124   1.388   .     A
C1123  F1149   1.360   .     S
C1124  C297    1.412   1_556 S
C1124  O359    1.389   1_556 S
C1125  O1186   1.379   .     S
C1126  H1151   1.112   .     S
C1126  H1162   1.110   .     S
C1126  H1171   1.109   .     S
C1126  O1196   1.412   .     S
C1127  C1139   1.410   .     A
C1128  H1174   1.110   .     S
C1128  H1173   1.109   .     S
C1128  H1172   1.114   .     S
C1128  O1181   1.412   .     S
C1129  H1175   1.115   .     S
C1129  O1182   1.414   .     S
C1129  H1176   1.109   .     S
C1129  H1177   1.109   .     S
C1130  H1154   1.111   .     S
C1130  H1152   1.109   .     S
C1130  H1153   1.108   .     S
C1130  O1183   1.413   .     S
C1131  O1184   1.412   .     S
C1131  H1156   1.103   .     S
C1131  H1247   1.115   .     S
C1131  H1249   1.104   .     S
C1132  H1159   1.113   .     S
C1132  H1158   1.110   .     S
C1132  O1185   1.410   .     S
C1132  H1160   1.109   .     S
C1133  H1163   1.108   .     S
C1133  H1164   1.115   .     S
C1133  H1161   1.108   .     S
C1133  O1186   1.422   .     S
C1134  H1166   1.116   .     S
C1134  H1165   1.110   .     S
C1134  H339    1.101   1_556 S
C1134  O451    1.416   1_556 S
C1135  H1170   1.106   .     S
C1135  O1188   1.411   .     S
C1135  H1169   1.112   .     S
C1135  H1168   1.115   .     S
C1136  C1140   1.427   .     A
C1137  C1138   1.396   .     A
C1137  C293    1.412   1_556 S
C1137  C308    1.437   1_556 S
C1138  C1139   1.379   .     A
C1138  F1147   1.360   .     S
C1139  O1188   1.383   .     S
C1140  O1185   1.377   .     S
C1141  O1196   1.387   .     S
Cu1142 O1180   1.954   .     S
Cu1142 O1190   1.962   .     S
Cu1142 Cu1143  2.695   .     S
Cu1142 O1192   1.959   .     S
Cu1142 N1178   2.025   .     S
Cu1142 O1194   1.956   .     S
Cu1143 O1191   1.956   .     S
Cu1143 N1179   2.025   .     S
Cu1143 O1195   1.962   .     S
Cu1143 O1189   1.959   .     S
Cu1143 O1193   1.954   .     S
H1155  C1315   1.115   1_455 S
H1157  C1315   1.104   1_455 S
O1187  C490    1.416   1_455 S
C1197  O1281   1.296   .     A
C1197  C1205   1.444   .     S
C1197  O1272   1.293   .     A
C1198  C1215   1.391   .     A
C1198  C1200   1.470   .     S
C1198  C1219   1.413   .     A
C1199  C1205   1.395   .     A
C1199  F1242   1.357   .     S
C1199  C1477   1.380   .     S
C1200  O1283   1.302   .     A
C1200  O1282   1.297   .     A
C1201  C1202   1.401   .     A
C1201  F1236   1.358   .     S
C1202  C1211   1.447   .     S
C1202  C1203   1.410   .     A
C1203  O1273   1.397   .     S
C1204  C1205   1.402   .     A
C1204  F1237   1.358   .     S
C1204  C1479   1.409   .     S
C1206  O1274   1.382   .     S
C1206  N1271   1.373   .     A
C1206  C1299   1.428   .     S
C1207  F1238   1.355   .     S
C1207  N1270   1.364   .     A
C1208  C1219   1.433   .     A
C1208  C389    1.447   1_556 S
C1208  C400    1.455   1_556 S
C1209  O1275   1.384   .     S
C1209  N1270   1.373   .     A
C1210  O1276   1.381   .     S
C1210  N1271   1.367   .     A
C1210  C1301   1.440   .     S
C1211  O1285   1.295   .     A
C1211  O1284   1.295   .     A
C1212  O1286   1.299   .     A
C1212  O1287   1.296   .     A
C1212  C1214   1.460   .     S
C1213  C1233   1.392   .     A
C1213  F1240   1.359   .     S
C1214  C1233   1.396   .     A
C1214  C1232   1.401   .     A
C1215  C1216   1.388   .     A
C1215  F1241   1.360   .     S
C1216  C389    1.412   1_556 S
C1216  O451    1.389   1_556 S
C1217  O1278   1.379   .     S
C1218  H1243   1.112   .     S
C1218  H1254   1.110   .     S
C1218  H1263   1.109   .     S
C1218  O1288   1.412   .     S
C1219  C1231   1.410   .     A
C1220  H1266   1.110   .     S
C1220  H1265   1.109   .     S
C1220  H1264   1.114   .     S
C1220  O1273   1.412   .     S
C1221  H1267   1.115   .     S
C1221  O1274   1.414   .     S
C1221  H1268   1.109   .     S
C1221  H1269   1.109   .     S
C1222  H1246   1.111   .     S
C1222  H1244   1.109   .     S
C1222  H1245   1.108   .     S
C1222  O1275   1.413   .     S
C1223  O1276   1.412   .     S
C1223  H1248   1.103   .     S
C1223  H1339   1.115   .     S
C1223  H1341   1.104   .     S
C1224  H1251   1.113   .     S
C1224  H1250   1.110   .     S
C1224  O1277   1.410   .     S
C1224  H1252   1.109   .     S
C1225  H1255   1.108   .     S
C1225  H1256   1.115   .     S
C1225  H1253   1.108   .     S
C1225  O1278   1.422   .     S
C1226  H1258   1.116   .     S
C1226  H1257   1.110   .     S
C1226  H431    1.101   1_556 S
C1226  O543    1.416   1_556 S
C1227  H1262   1.106   .     S
C1227  O1280   1.411   .     S
C1227  H1261   1.112   .     S
C1227  H1260   1.115   .     S
C1228  C1232   1.427   .     A
C1229  C1230   1.396   .     A
C1229  C385    1.412   1_556 S
C1229  C400    1.437   1_556 S
C1230  C1231   1.379   .     A
C1230  F1239   1.360   .     S
C1231  O1280   1.383   .     S
C1232  O1277   1.377   .     S
C1233  O1288   1.387   .     S
Cu1234 O1272   1.954   .     S
Cu1234 O1282   1.962   .     S
Cu1234 Cu1235  2.695   .     S
Cu1234 O1284   1.959   .     S
Cu1234 N1270   2.025   .     S
Cu1234 O1286   1.956   .     S
Cu1235 O1283   1.956   .     S
Cu1235 N1271   2.025   .     S
Cu1235 O1287   1.962   .     S
Cu1235 O1281   1.959   .     S
Cu1235 O1285   1.954   .     S
C1289  O1373   1.296   .     A
C1289  C1297   1.444   .     S
C1289  O1364   1.293   .     A
C1290  C1307   1.391   .     A
C1290  C1292   1.470   .     S
C1290  C1311   1.413   .     A
C1291  C1297   1.395   .     A
C1291  F1334   1.357   .     S
C1291  C1569   1.380   .     S
C1292  O1375   1.302   .     A
C1292  O1374   1.297   .     A
C1293  C1294   1.401   .     A
C1293  F1328   1.358   .     S
C1294  C1303   1.447   .     S
C1294  C1295   1.410   .     A
C1295  O1365   1.397   .     S
C1296  C1297   1.402   .     A
C1296  F1329   1.358   .     S
C1296  C1571   1.409   .     S
C1298  O1366   1.382   .     S
C1298  N1363   1.373   .     A
C1298  C1115   1.428   1_655 S
C1299  F1330   1.355   .     S
C1299  N1362   1.364   .     A
C1300  C1311   1.433   .     A
C1300  C481    1.447   1_556 S
C1300  C492    1.455   1_556 S
C1301  O1367   1.384   .     S
C1301  N1362   1.373   .     A
C1302  O1368   1.381   .     S
C1302  N1363   1.367   .     A
C1302  C1117   1.440   1_655 S
C1303  O1377   1.295   .     A
C1303  O1376   1.295   .     A
C1304  O1378   1.299   .     A
C1304  O1379   1.296   .     A
C1304  C1306   1.460   .     S
C1305  C1325   1.392   .     A
C1305  F1332   1.359   .     S
C1306  C1325   1.396   .     A
C1306  C1324   1.401   .     A
C1307  C1308   1.388   .     A
C1307  F1333   1.360   .     S
C1308  C481    1.412   1_556 S
C1308  O543    1.389   1_556 S
C1309  O1370   1.379   .     S
C1310  H1335   1.112   .     S
C1310  H1346   1.110   .     S
C1310  H1355   1.109   .     S
C1310  O1380   1.412   .     S
C1311  C1323   1.410   .     A
C1312  H1358   1.110   .     S
C1312  H1357   1.109   .     S
C1312  H1356   1.114   .     S
C1312  O1365   1.412   .     S
C1313  H1359   1.115   .     S
C1313  O1366   1.414   .     S
C1313  H1360   1.109   .     S
C1313  H1361   1.109   .     S
C1314  H1338   1.111   .     S
C1314  H1336   1.109   .     S
C1314  H1337   1.108   .     S
C1314  O1367   1.413   .     S
C1315  O1368   1.412   .     S
C1315  H1340   1.103   .     S
C1315  H1155   1.115   1_655 S
C1315  H1157   1.104   1_655 S
C1316  H1343   1.113   .     S
C1316  H1342   1.110   .     S
C1316  O1369   1.410   .     S
C1316  H1344   1.109   .     S
C1317  H1347   1.108   .     S
C1317  H1348   1.115   .     S
C1317  H1345   1.108   .     S
C1317  O1370   1.422   .     S
C1318  H1350   1.116   .     S
C1318  H1349   1.110   .     S
C1318  H523    1.101   1_556 S
C1318  O359    1.416   1_656 S
C1319  H1354   1.106   .     S
C1319  O1372   1.411   .     S
C1319  H1353   1.112   .     S
C1319  H1352   1.115   .     S
C1320  C1324   1.427   .     A
C1321  C1322   1.396   .     A
C1321  C477    1.412   1_556 S
C1321  C492    1.437   1_556 S
C1322  C1323   1.379   .     A
C1322  F1331   1.360   .     S
C1323  O1372   1.383   .     S
C1324  O1369   1.377   .     S
C1325  O1380   1.387   .     S
Cu1326 O1364   1.954   .     S
Cu1326 O1374   1.962   .     S
Cu1326 Cu1327  2.695   .     S
Cu1326 O1376   1.959   .     S
Cu1326 N1362   2.025   .     S
Cu1326 O1378   1.956   .     S
Cu1327 O1375   1.956   .     S
Cu1327 N1363   2.025   .     S
Cu1327 O1379   1.962   .     S
Cu1327 O1373   1.959   .     S
Cu1327 O1377   1.954   .     S
C1381  O1465   1.296   .     A
C1381  C1389   1.444   .     S
C1381  O1456   1.293   .     A
C1382  C1399   1.391   .     A
C1382  C1384   1.470   .     S
C1382  C1403   1.413   .     A
C1383  C1389   1.395   .     A
C1383  F1426   1.357   .     S
C1383  C833    1.380   1_565 S
C1384  O1467   1.302   .     A
C1384  O1466   1.297   .     A
C1385  C1386   1.401   .     A
C1385  F1420   1.358   .     S
C1386  C1395   1.447   .     S
C1386  C1387   1.410   .     A
C1387  O1457   1.397   .     S
C1388  C1389   1.402   .     A
C1388  F1421   1.358   .     S
C1388  C835    1.409   1_565 S
C1390  O1458   1.382   .     S
C1390  N1455   1.373   .     A
C1390  C1483   1.428   .     S
C1391  F1422   1.355   .     S
C1391  N1454   1.364   .     A
C1391  C1574   1.428   1_455 S
C1392  C1403   1.433   .     A
C1392  C573    1.447   1_556 S
C1392  C584    1.455   1_556 S
C1393  O1459   1.384   .     S
C1393  N1454   1.373   .     A
C1393  C1578   1.440   1_455 S
C1394  O1460   1.381   .     S
C1394  N1455   1.367   .     A
C1394  C1485   1.440   .     S
C1395  O1469   1.295   .     A
C1395  O1468   1.295   .     A
C1396  O1470   1.299   .     A
C1396  O1471   1.296   .     A
C1396  C1398   1.460   .     S
C1397  C1417   1.392   .     A
C1397  F1424   1.359   .     S
C1398  C1417   1.396   .     A
C1398  C1416   1.401   .     A
C1399  C1400   1.388   .     A
C1399  F1425   1.360   .     S
C1400  C573    1.412   1_556 S
C1400  O635    1.389   1_556 S
C1401  O1462   1.379   .     S
C1402  H1427   1.112   .     S
C1402  H1438   1.110   .     S
C1402  H1447   1.109   .     S
C1402  O1472   1.412   .     S
C1403  C1415   1.410   .     A
C1404  H1450   1.110   .     S
C1404  H1449   1.109   .     S
C1404  H1448   1.114   .     S
C1404  O1457   1.412   .     S
C1405  H1451   1.115   .     S
C1405  O1458   1.414   .     S
C1405  H1452   1.109   .     S
C1405  H1453   1.109   .     S
C1406  H1430   1.111   .     S
C1406  H1428   1.109   .     S
C1406  H1429   1.108   .     S
C1406  O1459   1.413   .     S
C1407  O1460   1.412   .     S
C1407  H1432   1.103   .     S
C1407  H1523   1.115   .     S
C1407  H1525   1.104   .     S
C1408  H1435   1.113   .     S
C1408  H1434   1.110   .     S
C1408  O1461   1.410   .     S
C1408  H1436   1.109   .     S
C1409  H1439   1.108   .     S
C1409  H1440   1.115   .     S
C1409  H1437   1.108   .     S
C1409  O1462   1.422   .     S
C1410  H1442   1.116   .     S
C1410  H1441   1.110   .     S
C1410  H615    1.101   1_556 S
C1410  O727    1.416   1_556 S
C1411  H1446   1.106   .     S
C1411  O1464   1.411   .     S
C1411  H1445   1.112   .     S
C1411  H1444   1.115   .     S
C1412  C1416   1.427   .     A
C1413  C1414   1.396   .     A
C1413  C569    1.412   1_556 S
C1413  C584    1.437   1_556 S
C1414  C1415   1.379   .     A
C1414  F1423   1.360   .     S
C1415  O1464   1.383   .     S
C1416  O1461   1.377   .     S
C1417  O1472   1.387   .     S
Cu1418 O1456   1.954   .     S
Cu1418 O1466   1.962   .     S
Cu1418 Cu1419  2.695   .     S
Cu1418 O1468   1.959   .     S
Cu1418 N1454   2.025   .     S
Cu1418 O1470   1.956   .     S
Cu1419 O1467   1.956   .     S
Cu1419 N1455   2.025   .     S
Cu1419 O1471   1.962   .     S
Cu1419 O1465   1.959   .     S
Cu1419 O1469   1.954   .     S
H1431  C1591   1.115   1_455 S
H1433  C1591   1.104   1_455 S
O1463  C766    1.416   1_455 S
C1473  O1557   1.296   .     A
C1473  C1481   1.444   .     S
C1473  O1548   1.293   .     A
C1474  C1491   1.391   .     A
C1474  C1476   1.470   .     S
C1474  C1495   1.413   .     A
C1475  C1481   1.395   .     A
C1475  F1518   1.357   .     S
C1475  C925    1.380   1_565 S
C1476  O1559   1.302   .     A
C1476  O1558   1.297   .     A
C1477  C1478   1.401   .     A
C1477  F1512   1.358   .     S
C1478  C1487   1.447   .     S
C1478  C1479   1.410   .     A
C1479  O1549   1.397   .     S
C1480  C1481   1.402   .     A
C1480  F1513   1.358   .     S
C1480  C927    1.409   1_565 S
C1482  O1550   1.382   .     S
C1482  N1547   1.373   .     A
C1482  C1575   1.428   .     S
C1483  F1514   1.355   .     S
C1483  N1546   1.364   .     A
C1484  C1495   1.433   .     A
C1484  C665    1.447   1_556 S
C1484  C676    1.455   1_556 S
C1485  O1551   1.384   .     S
C1485  N1546   1.373   .     A
C1486  O1552   1.381   .     S
C1486  N1547   1.367   .     A
C1486  C1577   1.440   .     S
C1487  O1561   1.295   .     A
C1487  O1560   1.295   .     A
C1488  O1562   1.299   .     A
C1488  O1563   1.296   .     A
C1488  C1490   1.460   .     S
C1489  C1509   1.392   .     A
C1489  F1516   1.359   .     S
C1490  C1509   1.396   .     A
C1490  C1508   1.401   .     A
C1491  C1492   1.388   .     A
C1491  F1517   1.360   .     S
C1492  C665    1.412   1_556 S
C1492  O727    1.389   1_556 S
C1493  O1554   1.379   .     S
C1494  H1519   1.112   .     S
C1494  H1530   1.110   .     S
C1494  H1539   1.109   .     S
C1494  O1564   1.412   .     S
C1495  C1507   1.410   .     A
C1496  H1542   1.110   .     S
C1496  H1541   1.109   .     S
C1496  H1540   1.114   .     S
C1496  O1549   1.412   .     S
C1497  H1543   1.115   .     S
C1497  O1550   1.414   .     S
C1497  H1544   1.109   .     S
C1497  H1545   1.109   .     S
C1498  H1522   1.111   .     S
C1498  H1520   1.109   .     S
C1498  H1521   1.108   .     S
C1498  O1551   1.413   .     S
C1499  O1552   1.412   .     S
C1499  H1524   1.103   .     S
C1499  H1615   1.115   .     S
C1499  H1617   1.104   .     S
C1500  H1527   1.113   .     S
C1500  H1526   1.110   .     S
C1500  O1553   1.410   .     S
C1500  H1528   1.109   .     S
C1501  H1531   1.108   .     S
C1501  H1532   1.115   .     S
C1501  H1529   1.108   .     S
C1501  O1554   1.422   .     S
C1502  H1534   1.116   .     S
C1502  H1533   1.110   .     S
C1502  H707    1.101   1_556 S
C1502  O819    1.416   1_556 S
C1503  H1538   1.106   .     S
C1503  O1556   1.411   .     S
C1503  H1537   1.112   .     S
C1503  H1536   1.115   .     S
C1504  C1508   1.427   .     A
C1505  C1506   1.396   .     A
C1505  C661    1.412   1_556 S
C1505  C676    1.437   1_556 S
C1506  C1507   1.379   .     A
C1506  F1515   1.360   .     S
C1507  O1556   1.383   .     S
C1508  O1553   1.377   .     S
C1509  O1564   1.387   .     S
Cu1510 O1548   1.954   .     S
Cu1510 O1558   1.962   .     S
Cu1510 Cu1511  2.695   .     S
Cu1510 O1560   1.959   .     S
Cu1510 N1546   2.025   .     S
Cu1510 O1562   1.956   .     S
Cu1511 O1559   1.956   .     S
Cu1511 N1547   2.025   .     S
Cu1511 O1563   1.962   .     S
Cu1511 O1557   1.959   .     S
Cu1511 O1561   1.954   .     S
C1565  O1649   1.296   .     A
C1565  C1573   1.444   .     S
C1565  O1640   1.293   .     A
C1566  C1583   1.391   .     A
C1566  C1568   1.470   .     S
C1566  C1587   1.413   .     A
C1567  C1573   1.395   .     A
C1567  F1610   1.357   .     S
C1567  C1017   1.380   1_565 S
C1568  O1651   1.302   .     A
C1568  O1650   1.297   .     A
C1569  C1570   1.401   .     A
C1569  F1604   1.358   .     S
C1570  C1579   1.447   .     S
C1570  C1571   1.410   .     A
C1571  O1641   1.397   .     S
C1572  C1573   1.402   .     A
C1572  F1605   1.358   .     S
C1572  C1019   1.409   1_565 S
C1574  O1642   1.382   .     S
C1574  N1639   1.373   .     A
C1574  C1391   1.428   1_655 S
C1575  F1606   1.355   .     S
C1575  N1638   1.364   .     A
C1576  C1587   1.433   .     A
C1576  C757    1.447   1_556 S
C1576  C768    1.455   1_556 S
C1577  O1643   1.384   .     S
C1577  N1638   1.373   .     A
C1578  O1644   1.381   .     S
C1578  N1639   1.367   .     A
C1578  C1393   1.440   1_655 S
C1579  O1653   1.295   .     A
C1579  O1652   1.295   .     A
C1580  O1654   1.299   .     A
C1580  O1655   1.296   .     A
C1580  C1582   1.460   .     S
C1581  C1601   1.392   .     A
C1581  F1608   1.359   .     S
C1582  C1601   1.396   .     A
C1582  C1600   1.401   .     A
C1583  C1584   1.388   .     A
C1583  F1609   1.360   .     S
C1584  C757    1.412   1_556 S
C1584  O819    1.389   1_556 S
C1585  O1646   1.379   .     S
C1586  H1611   1.112   .     S
C1586  H1622   1.110   .     S
C1586  H1631   1.109   .     S
C1586  O1656   1.412   .     S
C1587  C1599   1.410   .     A
C1588  H1634   1.110   .     S
C1588  H1633   1.109   .     S
C1588  H1632   1.114   .     S
C1588  O1641   1.412   .     S
C1589  H1635   1.115   .     S
C1589  O1642   1.414   .     S
C1589  H1636   1.109   .     S
C1589  H1637   1.109   .     S
C1590  H1614   1.111   .     S
C1590  H1612   1.109   .     S
C1590  H1613   1.108   .     S
C1590  O1643   1.413   .     S
C1591  O1644   1.412   .     S
C1591  H1616   1.103   .     S
C1591  H1431   1.115   1_655 S
C1591  H1433   1.104   1_655 S
C1592  H1619   1.113   .     S
C1592  H1618   1.110   .     S
C1592  O1645   1.410   .     S
C1592  H1620   1.109   .     S
C1593  H1623   1.108   .     S
C1593  H1624   1.115   .     S
C1593  H1621   1.108   .     S
C1593  O1646   1.422   .     S
C1594  H1626   1.116   .     S
C1594  H1625   1.110   .     S
C1594  H799    1.101   1_556 S
C1594  O635    1.416   1_656 S
C1595  H1630   1.106   .     S
C1595  O1648   1.411   .     S
C1595  H1629   1.112   .     S
C1595  H1628   1.115   .     S
C1596  C1600   1.427   .     A
C1597  C1598   1.396   .     A
C1597  C753    1.412   1_556 S
C1597  C768    1.437   1_556 S
C1598  C1599   1.379   .     A
C1598  F1607   1.360   .     S
C1599  O1648   1.383   .     S
C1600  O1645   1.377   .     S
C1601  O1656   1.387   .     S
Cu1602 O1640   1.954   .     S
Cu1602 O1650   1.962   .     S
Cu1602 Cu1603  2.695   .     S
Cu1602 O1652   1.959   .     S
Cu1602 N1638   2.025   .     S
Cu1602 O1654   1.956   .     S
Cu1603 O1651   1.956   .     S
Cu1603 N1639   2.025   .     S
Cu1603 O1655   1.962   .     S
Cu1603 O1649   1.959   .     S
Cu1603 O1653   1.954   .     S
