data_str_m2_o10_o18_pcu_sym.151
_audit_creation_date              2020-01-03
_audit_creation_method            'Materials Studio'
_symmetry_space_group_name_H-M    'P1'
_symmetry_Int_Tables_number       1
_symmetry_cell_setting            triclinic
loop_
_symmetry_equiv_pos_as_xyz
  x,y,z
_cell_length_a                    22.5863
_cell_length_b                    26.2966
_cell_length_c                    31.5994
_cell_angle_alpha                 95.8415
_cell_angle_beta                  75.0678
_cell_angle_gamma                 103.2332
loop_
_atom_site_label
_atom_site_type_symbol
_atom_site_fract_x
_atom_site_fract_y
_atom_site_fract_z
_atom_site_U_iso_or_equiv
_atom_site_adp_type
_atom_site_occupancy
C1     C     0.18073   0.26636   0.25237   0.00000  Uiso   1.00
C2     C     0.15261   0.06697   0.24762   0.00000  Uiso   1.00
C3     C     0.09237   0.14098   0.04048   0.00000  Uiso   1.00
C4     C     0.23709   0.20808   0.46290   0.00000  Uiso   1.00
C5     C     0.04979   0.12897   0.01437   0.00000  Uiso   1.00
C6     C     0.27938   0.22086   0.48922   0.00000  Uiso   1.00
C7     C     0.18319   0.32159   0.25993   0.00000  Uiso   1.00
C8     C     0.15016   0.01174   0.24005   0.00000  Uiso   1.00
C9     C     0.12833   0.16293   0.33299   0.00000  Uiso   1.00
C10    C     0.20504   0.17075   0.16707   0.00000  Uiso   1.00
C11    C     0.10540   0.15856   0.38065   0.00000  Uiso   1.00
C12    C     0.22805   0.17815   0.11984   0.00000  Uiso   1.00
C13    C     0.02466   0.12699   0.44445   0.00000  Uiso   1.00
C14    C     0.30570   0.21926   0.05831   0.00000  Uiso   1.00
C15    C     0.04299   0.13603   0.39983   0.00000  Uiso   1.00
C16    C     0.28870   0.20585   0.10197   0.00000  Uiso   1.00
C17    C     0.14850   0.17395   0.40679   0.00000  Uiso   1.00
C18    C     0.18554   0.16227   0.09337   0.00000  Uiso   1.00
C19    C     0.13127   0.16562   0.45196   0.00000  Uiso   1.00
C20    C     0.20042   0.17726   0.04980   0.00000  Uiso   1.00
C21    C     0.06841   0.14066   0.47039   0.00000  Uiso   1.00
C22    C     0.26202   0.20566   0.03230   0.00000  Uiso   1.00
C23    C     0.17504   0.17973   0.47889   0.00000  Uiso   1.00
C24    C     0.15582   0.16548   0.02348   0.00000  Uiso   1.00
Cu25   Cu    0.10737   0.16108   0.24517   0.00000  Uiso   1.00
Cu26   Cu    0.22596   0.17225   0.25483   0.00000  Uiso   1.00
H27    H     0.00171   0.11021   0.02884   0.00000  Uiso   1.00
H28    H     0.32628   0.24282   0.47561   0.00000  Uiso   1.00
H29    H     0.14070   0.13867   0.10808   0.00000  Uiso   1.00
H30    H     0.19598   0.19070   0.39055   0.00000  Uiso   1.00
H31    H     0.32215   0.21867   0.12202   0.00000  Uiso   1.00
H32    H     0.00902   0.12357   0.38018   0.00000  Uiso   1.00
H33    H     0.30976   0.10838   0.45858   0.00000  Uiso   1.00
H34    H     0.01940   0.24112   0.04505   0.00000  Uiso   1.00
H35    H     0.07315   0.13130   0.07423   0.00000  Uiso   1.00
H36    H     0.25462   0.22237   0.43034   0.00000  Uiso   1.00
N37    N     0.31506   0.18068   0.26212   0.00000  Uiso   1.00
N38    N     0.01827   0.15265   0.23788   0.00000  Uiso   1.00
O39    O     0.12815   0.23809   0.24686   0.00000  Uiso   1.00
O40    O     0.20518   0.09524   0.25314   0.00000  Uiso   1.00
O41    O     0.22829   0.24753   0.25502   0.00000  Uiso   1.00
O42    O     0.10504   0.08580   0.24497   0.00000  Uiso   1.00
O43    O     0.08851   0.15930   0.30855   0.00000  Uiso   1.00
O44    O     0.24482   0.17403   0.19145   0.00000  Uiso   1.00
O45    O     0.18866   0.16874   0.31671   0.00000  Uiso   1.00
O46    O     0.14468   0.16460   0.18329   0.00000  Uiso   1.00
C47    C     0.21700   0.01532   0.29466   0.00000  Uiso   1.00
H48    H     0.22789   0.32004   0.31355   0.00000  Uiso   1.00
H49    H     0.26223   0.04093   0.27907   0.00000  Uiso   1.00
H50    H     0.18708   0.03834   0.31885   0.00000  Uiso   1.00
C51    C     0.11637   0.31801   0.20531   0.00000  Uiso   1.00
H52    H     0.10549   0.01329   0.18641   0.00000  Uiso   1.00
H53    H     0.14631   0.29500   0.18112   0.00000  Uiso   1.00
H54    H     0.07115   0.29239   0.22088   0.00000  Uiso   1.00
C55    C     0.32436   0.20105   0.30459   0.00000  Uiso   1.00
H56    H     0.29110   0.22697   0.31870   0.00000  Uiso   1.00
H57    H     0.31363   0.16870   0.32712   0.00000  Uiso   1.00
H58    H     0.03747   0.22660   0.30263   0.00000  Uiso   1.00
C59    C     0.00900   0.13241   0.19536   0.00000  Uiso   1.00
H60    H     0.01956   0.16483   0.17289   0.00000  Uiso   1.00
H61    H     0.04236   0.10660   0.18115   0.00000  Uiso   1.00
H62    H     0.29594   0.10677   0.19732   0.00000  Uiso   1.00
C63    C     0.51407   0.26636   0.25237   0.00000  Uiso   1.00
C64    C     0.48594   0.06697   0.24762   0.00000  Uiso   1.00
C65    C     0.42570   0.14098   0.04048   0.00000  Uiso   1.00
C66    C     0.57043   0.20808   0.46290   0.00000  Uiso   1.00
C67    C     0.38313   0.12897   0.01437   0.00000  Uiso   1.00
C68    C     0.61271   0.22086   0.48922   0.00000  Uiso   1.00
C69    C     0.51653   0.32159   0.25993   0.00000  Uiso   1.00
C70    C     0.48349   0.01174   0.24005   0.00000  Uiso   1.00
C71    C     0.46166   0.16293   0.33299   0.00000  Uiso   1.00
C72    C     0.53837   0.17075   0.16707   0.00000  Uiso   1.00
C73    C     0.43873   0.15856   0.38065   0.00000  Uiso   1.00
C74    C     0.56139   0.17815   0.11984   0.00000  Uiso   1.00
C75    C     0.35800   0.12699   0.44445   0.00000  Uiso   1.00
C76    C     0.63903   0.21926   0.05831   0.00000  Uiso   1.00
C77    C     0.37633   0.13603   0.39983   0.00000  Uiso   1.00
C78    C     0.62203   0.20585   0.10197   0.00000  Uiso   1.00
C79    C     0.48183   0.17395   0.40679   0.00000  Uiso   1.00
C80    C     0.51888   0.16227   0.09337   0.00000  Uiso   1.00
C81    C     0.46460   0.16562   0.45196   0.00000  Uiso   1.00
C82    C     0.53375   0.17726   0.04980   0.00000  Uiso   1.00
C83    C     0.40174   0.14066   0.47039   0.00000  Uiso   1.00
C84    C     0.59536   0.20566   0.03230   0.00000  Uiso   1.00
C85    C     0.50837   0.17973   0.47889   0.00000  Uiso   1.00
C86    C     0.48915   0.16548   0.02348   0.00000  Uiso   1.00
Cu87   Cu    0.44071   0.16108   0.24517   0.00000  Uiso   1.00
Cu88   Cu    0.55929   0.17225   0.25483   0.00000  Uiso   1.00
H89    H     0.33505   0.11021   0.02884   0.00000  Uiso   1.00
H90    H     0.65961   0.24282   0.47561   0.00000  Uiso   1.00
H91    H     0.47403   0.13867   0.10808   0.00000  Uiso   1.00
H92    H     0.52932   0.19070   0.39055   0.00000  Uiso   1.00
H93    H     0.65548   0.21867   0.12202   0.00000  Uiso   1.00
H94    H     0.34235   0.12357   0.38018   0.00000  Uiso   1.00
H95    H     0.64310   0.10838   0.45858   0.00000  Uiso   1.00
H96    H     0.35274   0.24112   0.04505   0.00000  Uiso   1.00
H97    H     0.40648   0.13130   0.07423   0.00000  Uiso   1.00
H98    H     0.58796   0.22237   0.43034   0.00000  Uiso   1.00
N99    N     0.64839   0.18068   0.26212   0.00000  Uiso   1.00
N100   N     0.35161   0.15265   0.23788   0.00000  Uiso   1.00
O101   O     0.46148   0.23809   0.24686   0.00000  Uiso   1.00
O102   O     0.53852   0.09524   0.25314   0.00000  Uiso   1.00
O103   O     0.56163   0.24753   0.25502   0.00000  Uiso   1.00
O104   O     0.43837   0.08580   0.24497   0.00000  Uiso   1.00
O105   O     0.42185   0.15930   0.30855   0.00000  Uiso   1.00
O106   O     0.57815   0.17403   0.19145   0.00000  Uiso   1.00
O107   O     0.52199   0.16874   0.31671   0.00000  Uiso   1.00
O108   O     0.47801   0.16460   0.18329   0.00000  Uiso   1.00
C109   C     0.55034   0.01532   0.29466   0.00000  Uiso   1.00
H110   H     0.56123   0.32004   0.31355   0.00000  Uiso   1.00
H111   H     0.59556   0.04093   0.27907   0.00000  Uiso   1.00
H112   H     0.52042   0.03834   0.31885   0.00000  Uiso   1.00
C113   C     0.44971   0.31801   0.20531   0.00000  Uiso   1.00
H114   H     0.43882   0.01329   0.18641   0.00000  Uiso   1.00
H115   H     0.47964   0.29500   0.18112   0.00000  Uiso   1.00
H116   H     0.40448   0.29239   0.22088   0.00000  Uiso   1.00
C117   C     0.65769   0.20105   0.30459   0.00000  Uiso   1.00
H118   H     0.62443   0.22697   0.31870   0.00000  Uiso   1.00
H119   H     0.64696   0.16870   0.32712   0.00000  Uiso   1.00
H120   H     0.37081   0.22660   0.30263   0.00000  Uiso   1.00
C121   C     0.34233   0.13241   0.19536   0.00000  Uiso   1.00
H122   H     0.35289   0.16483   0.17289   0.00000  Uiso   1.00
H123   H     0.37569   0.10660   0.18115   0.00000  Uiso   1.00
H124   H     0.62927   0.10677   0.19732   0.00000  Uiso   1.00
C125   C     0.84740   0.26636   0.25237   0.00000  Uiso   1.00
C126   C     0.81927   0.06697   0.24762   0.00000  Uiso   1.00
C127   C     0.75903   0.14098   0.04048   0.00000  Uiso   1.00
C128   C     0.90376   0.20808   0.46290   0.00000  Uiso   1.00
C129   C     0.71646   0.12897   0.01437   0.00000  Uiso   1.00
C130   C     0.94604   0.22086   0.48922   0.00000  Uiso   1.00
C131   C     0.84986   0.32159   0.25993   0.00000  Uiso   1.00
C132   C     0.81683   0.01174   0.24005   0.00000  Uiso   1.00
C133   C     0.79500   0.16293   0.33299   0.00000  Uiso   1.00
C134   C     0.87171   0.17075   0.16707   0.00000  Uiso   1.00
C135   C     0.77206   0.15856   0.38065   0.00000  Uiso   1.00
C136   C     0.89472   0.17815   0.11984   0.00000  Uiso   1.00
C137   C     0.69133   0.12699   0.44445   0.00000  Uiso   1.00
C138   C     0.97236   0.21926   0.05831   0.00000  Uiso   1.00
C139   C     0.70966   0.13603   0.39983   0.00000  Uiso   1.00
C140   C     0.95536   0.20585   0.10197   0.00000  Uiso   1.00
C141   C     0.81517   0.17395   0.40679   0.00000  Uiso   1.00
C142   C     0.85221   0.16227   0.09337   0.00000  Uiso   1.00
C143   C     0.79793   0.16562   0.45196   0.00000  Uiso   1.00
C144   C     0.86709   0.17726   0.04980   0.00000  Uiso   1.00
C145   C     0.73507   0.14066   0.47039   0.00000  Uiso   1.00
C146   C     0.92869   0.20566   0.03230   0.00000  Uiso   1.00
C147   C     0.84170   0.17973   0.47889   0.00000  Uiso   1.00
C148   C     0.82249   0.16548   0.02348   0.00000  Uiso   1.00
Cu149  Cu    0.77404   0.16108   0.24517   0.00000  Uiso   1.00
Cu150  Cu    0.89263   0.17225   0.25483   0.00000  Uiso   1.00
H151   H     0.66838   0.11021   0.02884   0.00000  Uiso   1.00
H152   H     0.99294   0.24282   0.47561   0.00000  Uiso   1.00
H153   H     0.80737   0.13867   0.10808   0.00000  Uiso   1.00
H154   H     0.86265   0.19070   0.39055   0.00000  Uiso   1.00
H155   H     0.98882   0.21867   0.12202   0.00000  Uiso   1.00
H156   H     0.67568   0.12357   0.38018   0.00000  Uiso   1.00
H157   H     0.97643   0.10838   0.45858   0.00000  Uiso   1.00
H158   H     0.68607   0.24112   0.04505   0.00000  Uiso   1.00
H159   H     0.73981   0.13130   0.07423   0.00000  Uiso   1.00
H160   H     0.92129   0.22237   0.43034   0.00000  Uiso   1.00
N161   N     0.98173   0.18068   0.26212   0.00000  Uiso   1.00
N162   N     0.68494   0.15265   0.23788   0.00000  Uiso   1.00
O163   O     0.79482   0.23809   0.24686   0.00000  Uiso   1.00
O164   O     0.87185   0.09524   0.25314   0.00000  Uiso   1.00
O165   O     0.89496   0.24753   0.25502   0.00000  Uiso   1.00
O166   O     0.77171   0.08580   0.24497   0.00000  Uiso   1.00
O167   O     0.75518   0.15930   0.30855   0.00000  Uiso   1.00
O168   O     0.91149   0.17403   0.19145   0.00000  Uiso   1.00
O169   O     0.85532   0.16874   0.31671   0.00000  Uiso   1.00
O170   O     0.81134   0.16460   0.18329   0.00000  Uiso   1.00
C171   C     0.88367   0.01532   0.29466   0.00000  Uiso   1.00
H172   H     0.89456   0.32004   0.31355   0.00000  Uiso   1.00
H173   H     0.92889   0.04093   0.27907   0.00000  Uiso   1.00
H174   H     0.85375   0.03834   0.31885   0.00000  Uiso   1.00
C175   C     0.78304   0.31801   0.20531   0.00000  Uiso   1.00
H176   H     0.77216   0.01329   0.18641   0.00000  Uiso   1.00
H177   H     0.81297   0.29500   0.18112   0.00000  Uiso   1.00
H178   H     0.73782   0.29239   0.22088   0.00000  Uiso   1.00
C179   C     0.99103   0.20105   0.30459   0.00000  Uiso   1.00
H180   H     0.95776   0.22697   0.31870   0.00000  Uiso   1.00
H181   H     0.98029   0.16870   0.32712   0.00000  Uiso   1.00
H182   H     0.70414   0.22660   0.30263   0.00000  Uiso   1.00
C183   C     0.67567   0.13241   0.19536   0.00000  Uiso   1.00
H184   H     0.68622   0.16483   0.17289   0.00000  Uiso   1.00
H185   H     0.70902   0.10660   0.18115   0.00000  Uiso   1.00
H186   H     0.96261   0.10677   0.19732   0.00000  Uiso   1.00
C187   C     0.18073   0.59970   0.25237   0.00000  Uiso   1.00
C188   C     0.15261   0.40030   0.24762   0.00000  Uiso   1.00
C189   C     0.09237   0.47431   0.04048   0.00000  Uiso   1.00
C190   C     0.23709   0.54142   0.46290   0.00000  Uiso   1.00
C191   C     0.04979   0.46230   0.01437   0.00000  Uiso   1.00
C192   C     0.27938   0.55419   0.48922   0.00000  Uiso   1.00
C193   C     0.18319   0.65492   0.25993   0.00000  Uiso   1.00
C194   C     0.15016   0.34508   0.24005   0.00000  Uiso   1.00
C195   C     0.12833   0.49626   0.33299   0.00000  Uiso   1.00
C196   C     0.20504   0.50409   0.16707   0.00000  Uiso   1.00
C197   C     0.10540   0.49189   0.38065   0.00000  Uiso   1.00
C198   C     0.22805   0.51148   0.11984   0.00000  Uiso   1.00
C199   C     0.02466   0.46032   0.44445   0.00000  Uiso   1.00
C200   C     0.30570   0.55259   0.05831   0.00000  Uiso   1.00
C201   C     0.04299   0.46937   0.39983   0.00000  Uiso   1.00
C202   C     0.28870   0.53918   0.10197   0.00000  Uiso   1.00
C203   C     0.14850   0.50729   0.40679   0.00000  Uiso   1.00
C204   C     0.18554   0.49560   0.09337   0.00000  Uiso   1.00
C205   C     0.13127   0.49896   0.45196   0.00000  Uiso   1.00
C206   C     0.20042   0.51060   0.04980   0.00000  Uiso   1.00
C207   C     0.06841   0.47400   0.47039   0.00000  Uiso   1.00
C208   C     0.26202   0.53899   0.03230   0.00000  Uiso   1.00
C209   C     0.17504   0.51306   0.47889   0.00000  Uiso   1.00
C210   C     0.15582   0.49881   0.02348   0.00000  Uiso   1.00
Cu211  Cu    0.10737   0.49441   0.24517   0.00000  Uiso   1.00
Cu212  Cu    0.22596   0.50559   0.25483   0.00000  Uiso   1.00
H213   H     0.00171   0.44354   0.02884   0.00000  Uiso   1.00
H214   H     0.32628   0.57615   0.47561   0.00000  Uiso   1.00
H215   H     0.14070   0.47200   0.10808   0.00000  Uiso   1.00
H216   H     0.19598   0.52403   0.39055   0.00000  Uiso   1.00
H217   H     0.32215   0.55200   0.12202   0.00000  Uiso   1.00
H218   H     0.00902   0.45690   0.38018   0.00000  Uiso   1.00
H219   H     0.30976   0.44172   0.45858   0.00000  Uiso   1.00
H220   H     0.01940   0.57446   0.04505   0.00000  Uiso   1.00
H221   H     0.07315   0.46464   0.07423   0.00000  Uiso   1.00
H222   H     0.25462   0.55571   0.43034   0.00000  Uiso   1.00
N223   N     0.31506   0.51401   0.26212   0.00000  Uiso   1.00
N224   N     0.01827   0.48599   0.23788   0.00000  Uiso   1.00
O225   O     0.12815   0.57142   0.24686   0.00000  Uiso   1.00
O226   O     0.20518   0.42858   0.25314   0.00000  Uiso   1.00
O227   O     0.22829   0.58086   0.25502   0.00000  Uiso   1.00
O228   O     0.10504   0.41914   0.24497   0.00000  Uiso   1.00
O229   O     0.08851   0.49263   0.30855   0.00000  Uiso   1.00
O230   O     0.24482   0.50737   0.19145   0.00000  Uiso   1.00
O231   O     0.18866   0.50207   0.31671   0.00000  Uiso   1.00
O232   O     0.14468   0.49793   0.18329   0.00000  Uiso   1.00
C233   C     0.21700   0.34865   0.29466   0.00000  Uiso   1.00
H234   H     0.22789   0.65338   0.31355   0.00000  Uiso   1.00
H235   H     0.26223   0.37427   0.27907   0.00000  Uiso   1.00
H236   H     0.18708   0.37167   0.31885   0.00000  Uiso   1.00
C237   C     0.11637   0.65135   0.20531   0.00000  Uiso   1.00
H238   H     0.10549   0.34662   0.18641   0.00000  Uiso   1.00
H239   H     0.14631   0.62833   0.18112   0.00000  Uiso   1.00
H240   H     0.07115   0.62572   0.22088   0.00000  Uiso   1.00
C241   C     0.32436   0.53439   0.30459   0.00000  Uiso   1.00
H242   H     0.29110   0.56030   0.31870   0.00000  Uiso   1.00
H243   H     0.31363   0.50203   0.32712   0.00000  Uiso   1.00
H244   H     0.03747   0.55993   0.30263   0.00000  Uiso   1.00
C245   C     0.00900   0.46574   0.19536   0.00000  Uiso   1.00
H246   H     0.01956   0.49817   0.17289   0.00000  Uiso   1.00
H247   H     0.04236   0.43993   0.18115   0.00000  Uiso   1.00
H248   H     0.29594   0.44010   0.19732   0.00000  Uiso   1.00
C249   C     0.51407   0.59970   0.25237   0.00000  Uiso   1.00
C250   C     0.48594   0.40030   0.24762   0.00000  Uiso   1.00
C251   C     0.42570   0.47431   0.04048   0.00000  Uiso   1.00
C252   C     0.57043   0.54142   0.46290   0.00000  Uiso   1.00
C253   C     0.38313   0.46230   0.01437   0.00000  Uiso   1.00
C254   C     0.61271   0.55419   0.48922   0.00000  Uiso   1.00
C255   C     0.51653   0.65492   0.25993   0.00000  Uiso   1.00
C256   C     0.48349   0.34508   0.24005   0.00000  Uiso   1.00
C257   C     0.46166   0.49626   0.33299   0.00000  Uiso   1.00
C258   C     0.53837   0.50409   0.16707   0.00000  Uiso   1.00
C259   C     0.43873   0.49189   0.38065   0.00000  Uiso   1.00
C260   C     0.56139   0.51148   0.11984   0.00000  Uiso   1.00
C261   C     0.35800   0.46032   0.44445   0.00000  Uiso   1.00
C262   C     0.63903   0.55259   0.05831   0.00000  Uiso   1.00
C263   C     0.37633   0.46937   0.39983   0.00000  Uiso   1.00
C264   C     0.62203   0.53918   0.10197   0.00000  Uiso   1.00
C265   C     0.48183   0.50729   0.40679   0.00000  Uiso   1.00
C266   C     0.51888   0.49560   0.09337   0.00000  Uiso   1.00
C267   C     0.46460   0.49896   0.45196   0.00000  Uiso   1.00
C268   C     0.53375   0.51060   0.04980   0.00000  Uiso   1.00
C269   C     0.40174   0.47400   0.47039   0.00000  Uiso   1.00
C270   C     0.59536   0.53899   0.03230   0.00000  Uiso   1.00
C271   C     0.50837   0.51306   0.47889   0.00000  Uiso   1.00
C272   C     0.48915   0.49881   0.02348   0.00000  Uiso   1.00
Cu273  Cu    0.44071   0.49441   0.24517   0.00000  Uiso   1.00
Cu274  Cu    0.55929   0.50559   0.25483   0.00000  Uiso   1.00
H275   H     0.33505   0.44354   0.02884   0.00000  Uiso   1.00
H276   H     0.65961   0.57615   0.47561   0.00000  Uiso   1.00
H277   H     0.47403   0.47200   0.10808   0.00000  Uiso   1.00
H278   H     0.52932   0.52403   0.39055   0.00000  Uiso   1.00
H279   H     0.65548   0.55200   0.12202   0.00000  Uiso   1.00
H280   H     0.34235   0.45690   0.38018   0.00000  Uiso   1.00
H281   H     0.64310   0.44172   0.45858   0.00000  Uiso   1.00
H282   H     0.35274   0.57446   0.04505   0.00000  Uiso   1.00
H283   H     0.40648   0.46464   0.07423   0.00000  Uiso   1.00
H284   H     0.58796   0.55571   0.43034   0.00000  Uiso   1.00
N285   N     0.64839   0.51401   0.26212   0.00000  Uiso   1.00
N286   N     0.35161   0.48599   0.23788   0.00000  Uiso   1.00
O287   O     0.46148   0.57142   0.24686   0.00000  Uiso   1.00
O288   O     0.53852   0.42858   0.25314   0.00000  Uiso   1.00
O289   O     0.56163   0.58086   0.25502   0.00000  Uiso   1.00
O290   O     0.43837   0.41914   0.24497   0.00000  Uiso   1.00
O291   O     0.42185   0.49263   0.30855   0.00000  Uiso   1.00
O292   O     0.57815   0.50737   0.19145   0.00000  Uiso   1.00
O293   O     0.52199   0.50207   0.31671   0.00000  Uiso   1.00
O294   O     0.47801   0.49793   0.18329   0.00000  Uiso   1.00
C295   C     0.55034   0.34865   0.29466   0.00000  Uiso   1.00
H296   H     0.56123   0.65338   0.31355   0.00000  Uiso   1.00
H297   H     0.59556   0.37427   0.27907   0.00000  Uiso   1.00
H298   H     0.52042   0.37167   0.31885   0.00000  Uiso   1.00
C299   C     0.44971   0.65135   0.20531   0.00000  Uiso   1.00
H300   H     0.43882   0.34662   0.18641   0.00000  Uiso   1.00
H301   H     0.47964   0.62833   0.18112   0.00000  Uiso   1.00
H302   H     0.40448   0.62572   0.22088   0.00000  Uiso   1.00
C303   C     0.65769   0.53439   0.30459   0.00000  Uiso   1.00
H304   H     0.62443   0.56030   0.31870   0.00000  Uiso   1.00
H305   H     0.64696   0.50203   0.32712   0.00000  Uiso   1.00
H306   H     0.37081   0.55993   0.30263   0.00000  Uiso   1.00
C307   C     0.34233   0.46574   0.19536   0.00000  Uiso   1.00
H308   H     0.35289   0.49817   0.17289   0.00000  Uiso   1.00
H309   H     0.37569   0.43993   0.18115   0.00000  Uiso   1.00
H310   H     0.62927   0.44010   0.19732   0.00000  Uiso   1.00
C311   C     0.84740   0.59970   0.25237   0.00000  Uiso   1.00
C312   C     0.81927   0.40030   0.24762   0.00000  Uiso   1.00
C313   C     0.75903   0.47431   0.04048   0.00000  Uiso   1.00
C314   C     0.90376   0.54142   0.46290   0.00000  Uiso   1.00
C315   C     0.71646   0.46230   0.01437   0.00000  Uiso   1.00
C316   C     0.94604   0.55419   0.48922   0.00000  Uiso   1.00
C317   C     0.84986   0.65492   0.25993   0.00000  Uiso   1.00
C318   C     0.81683   0.34508   0.24005   0.00000  Uiso   1.00
C319   C     0.79500   0.49626   0.33299   0.00000  Uiso   1.00
C320   C     0.87171   0.50409   0.16707   0.00000  Uiso   1.00
C321   C     0.77206   0.49189   0.38065   0.00000  Uiso   1.00
C322   C     0.89472   0.51148   0.11984   0.00000  Uiso   1.00
C323   C     0.69133   0.46032   0.44445   0.00000  Uiso   1.00
C324   C     0.97236   0.55259   0.05831   0.00000  Uiso   1.00
C325   C     0.70966   0.46937   0.39983   0.00000  Uiso   1.00
C326   C     0.95536   0.53918   0.10197   0.00000  Uiso   1.00
C327   C     0.81517   0.50729   0.40679   0.00000  Uiso   1.00
C328   C     0.85221   0.49560   0.09337   0.00000  Uiso   1.00
C329   C     0.79793   0.49896   0.45196   0.00000  Uiso   1.00
C330   C     0.86709   0.51060   0.04980   0.00000  Uiso   1.00
C331   C     0.73507   0.47400   0.47039   0.00000  Uiso   1.00
C332   C     0.92869   0.53899   0.03230   0.00000  Uiso   1.00
C333   C     0.84170   0.51306   0.47889   0.00000  Uiso   1.00
C334   C     0.82249   0.49881   0.02348   0.00000  Uiso   1.00
Cu335  Cu    0.77404   0.49441   0.24517   0.00000  Uiso   1.00
Cu336  Cu    0.89263   0.50559   0.25483   0.00000  Uiso   1.00
H337   H     0.66838   0.44354   0.02884   0.00000  Uiso   1.00
H338   H     0.99294   0.57615   0.47561   0.00000  Uiso   1.00
H339   H     0.80737   0.47200   0.10808   0.00000  Uiso   1.00
H340   H     0.86265   0.52403   0.39055   0.00000  Uiso   1.00
H341   H     0.98882   0.55200   0.12202   0.00000  Uiso   1.00
H342   H     0.67568   0.45690   0.38018   0.00000  Uiso   1.00
H343   H     0.97643   0.44172   0.45858   0.00000  Uiso   1.00
H344   H     0.68607   0.57446   0.04505   0.00000  Uiso   1.00
H345   H     0.73981   0.46464   0.07423   0.00000  Uiso   1.00
H346   H     0.92129   0.55571   0.43034   0.00000  Uiso   1.00
N347   N     0.98173   0.51401   0.26212   0.00000  Uiso   1.00
N348   N     0.68494   0.48599   0.23788   0.00000  Uiso   1.00
O349   O     0.79482   0.57142   0.24686   0.00000  Uiso   1.00
O350   O     0.87185   0.42858   0.25314   0.00000  Uiso   1.00
O351   O     0.89496   0.58086   0.25502   0.00000  Uiso   1.00
O352   O     0.77171   0.41914   0.24497   0.00000  Uiso   1.00
O353   O     0.75518   0.49263   0.30855   0.00000  Uiso   1.00
O354   O     0.91149   0.50737   0.19145   0.00000  Uiso   1.00
O355   O     0.85532   0.50207   0.31671   0.00000  Uiso   1.00
O356   O     0.81134   0.49793   0.18329   0.00000  Uiso   1.00
C357   C     0.88367   0.34865   0.29466   0.00000  Uiso   1.00
H358   H     0.89456   0.65338   0.31355   0.00000  Uiso   1.00
H359   H     0.92889   0.37427   0.27907   0.00000  Uiso   1.00
H360   H     0.85375   0.37167   0.31885   0.00000  Uiso   1.00
C361   C     0.78304   0.65135   0.20531   0.00000  Uiso   1.00
H362   H     0.77216   0.34662   0.18641   0.00000  Uiso   1.00
H363   H     0.81297   0.62833   0.18112   0.00000  Uiso   1.00
H364   H     0.73782   0.62572   0.22088   0.00000  Uiso   1.00
C365   C     0.99103   0.53439   0.30459   0.00000  Uiso   1.00
H366   H     0.95776   0.56030   0.31870   0.00000  Uiso   1.00
H367   H     0.98029   0.50203   0.32712   0.00000  Uiso   1.00
H368   H     0.70414   0.55993   0.30263   0.00000  Uiso   1.00
C369   C     0.67567   0.46574   0.19536   0.00000  Uiso   1.00
H370   H     0.68622   0.49817   0.17289   0.00000  Uiso   1.00
H371   H     0.70902   0.43993   0.18115   0.00000  Uiso   1.00
H372   H     0.96261   0.44010   0.19732   0.00000  Uiso   1.00
C373   C     0.18073   0.93303   0.25237   0.00000  Uiso   1.00
C374   C     0.15261   0.73364   0.24762   0.00000  Uiso   1.00
C375   C     0.09237   0.80765   0.04048   0.00000  Uiso   1.00
C376   C     0.23709   0.87475   0.46290   0.00000  Uiso   1.00
C377   C     0.04979   0.79564   0.01437   0.00000  Uiso   1.00
C378   C     0.27938   0.88753   0.48922   0.00000  Uiso   1.00
C379   C     0.18319   0.98826   0.25993   0.00000  Uiso   1.00
C380   C     0.15016   0.67841   0.24005   0.00000  Uiso   1.00
C381   C     0.12833   0.82960   0.33299   0.00000  Uiso   1.00
C382   C     0.20504   0.83742   0.16707   0.00000  Uiso   1.00
C383   C     0.10540   0.82523   0.38065   0.00000  Uiso   1.00
C384   C     0.22805   0.84481   0.11984   0.00000  Uiso   1.00
C385   C     0.02466   0.79366   0.44445   0.00000  Uiso   1.00
C386   C     0.30570   0.88592   0.05831   0.00000  Uiso   1.00
C387   C     0.04299   0.80270   0.39983   0.00000  Uiso   1.00
C388   C     0.28870   0.87252   0.10197   0.00000  Uiso   1.00
C389   C     0.14850   0.84062   0.40679   0.00000  Uiso   1.00
C390   C     0.18554   0.82894   0.09337   0.00000  Uiso   1.00
C391   C     0.13127   0.83229   0.45196   0.00000  Uiso   1.00
C392   C     0.20042   0.84393   0.04980   0.00000  Uiso   1.00
C393   C     0.06841   0.80733   0.47039   0.00000  Uiso   1.00
C394   C     0.26202   0.87232   0.03230   0.00000  Uiso   1.00
C395   C     0.17504   0.84639   0.47889   0.00000  Uiso   1.00
C396   C     0.15582   0.83215   0.02348   0.00000  Uiso   1.00
Cu397  Cu    0.10737   0.82775   0.24517   0.00000  Uiso   1.00
Cu398  Cu    0.22596   0.83892   0.25483   0.00000  Uiso   1.00
H399   H     0.00171   0.77688   0.02884   0.00000  Uiso   1.00
H400   H     0.32628   0.90948   0.47561   0.00000  Uiso   1.00
H401   H     0.14070   0.80534   0.10808   0.00000  Uiso   1.00
H402   H     0.19598   0.85737   0.39055   0.00000  Uiso   1.00
H403   H     0.32215   0.88534   0.12202   0.00000  Uiso   1.00
H404   H     0.00902   0.79023   0.38018   0.00000  Uiso   1.00
H405   H     0.30976   0.77505   0.45858   0.00000  Uiso   1.00
H406   H     0.01940   0.90779   0.04505   0.00000  Uiso   1.00
H407   H     0.07315   0.79797   0.07423   0.00000  Uiso   1.00
H408   H     0.25462   0.88904   0.43034   0.00000  Uiso   1.00
N409   N     0.31506   0.84735   0.26212   0.00000  Uiso   1.00
N410   N     0.01827   0.81932   0.23788   0.00000  Uiso   1.00
O411   O     0.12815   0.90476   0.24686   0.00000  Uiso   1.00
O412   O     0.20518   0.76191   0.25314   0.00000  Uiso   1.00
O413   O     0.22829   0.91420   0.25502   0.00000  Uiso   1.00
O414   O     0.10504   0.75247   0.24497   0.00000  Uiso   1.00
O415   O     0.08851   0.82597   0.30855   0.00000  Uiso   1.00
O416   O     0.24482   0.84070   0.19145   0.00000  Uiso   1.00
O417   O     0.18866   0.83540   0.31671   0.00000  Uiso   1.00
O418   O     0.14468   0.83126   0.18329   0.00000  Uiso   1.00
C419   C     0.21700   0.68198   0.29466   0.00000  Uiso   1.00
H420   H     0.22789   0.98671   0.31355   0.00000  Uiso   1.00
H421   H     0.26223   0.70760   0.27907   0.00000  Uiso   1.00
H422   H     0.18708   0.70500   0.31885   0.00000  Uiso   1.00
C423   C     0.11637   0.98468   0.20531   0.00000  Uiso   1.00
H424   H     0.10549   0.67996   0.18641   0.00000  Uiso   1.00
H425   H     0.14631   0.96167   0.18112   0.00000  Uiso   1.00
H426   H     0.07115   0.95906   0.22088   0.00000  Uiso   1.00
C427   C     0.32436   0.86772   0.30459   0.00000  Uiso   1.00
H428   H     0.29110   0.89364   0.31870   0.00000  Uiso   1.00
H429   H     0.31363   0.83537   0.32712   0.00000  Uiso   1.00
H430   H     0.03747   0.89326   0.30263   0.00000  Uiso   1.00
C431   C     0.00900   0.79908   0.19536   0.00000  Uiso   1.00
H432   H     0.01956   0.83150   0.17289   0.00000  Uiso   1.00
H433   H     0.04236   0.77327   0.18115   0.00000  Uiso   1.00
H434   H     0.29594   0.77343   0.19732   0.00000  Uiso   1.00
C435   C     0.51407   0.93303   0.25237   0.00000  Uiso   1.00
C436   C     0.48594   0.73364   0.24762   0.00000  Uiso   1.00
C437   C     0.42570   0.80765   0.04048   0.00000  Uiso   1.00
C438   C     0.57043   0.87475   0.46290   0.00000  Uiso   1.00
C439   C     0.38313   0.79564   0.01437   0.00000  Uiso   1.00
C440   C     0.61271   0.88753   0.48922   0.00000  Uiso   1.00
C441   C     0.51653   0.98826   0.25993   0.00000  Uiso   1.00
C442   C     0.48349   0.67841   0.24005   0.00000  Uiso   1.00
C443   C     0.46166   0.82960   0.33299   0.00000  Uiso   1.00
C444   C     0.53837   0.83742   0.16707   0.00000  Uiso   1.00
C445   C     0.43873   0.82523   0.38065   0.00000  Uiso   1.00
C446   C     0.56139   0.84481   0.11984   0.00000  Uiso   1.00
C447   C     0.35800   0.79366   0.44445   0.00000  Uiso   1.00
C448   C     0.63903   0.88592   0.05831   0.00000  Uiso   1.00
C449   C     0.37633   0.80270   0.39983   0.00000  Uiso   1.00
C450   C     0.62203   0.87252   0.10197   0.00000  Uiso   1.00
C451   C     0.48183   0.84062   0.40679   0.00000  Uiso   1.00
C452   C     0.51888   0.82894   0.09337   0.00000  Uiso   1.00
C453   C     0.46460   0.83229   0.45196   0.00000  Uiso   1.00
C454   C     0.53375   0.84393   0.04980   0.00000  Uiso   1.00
C455   C     0.40174   0.80733   0.47039   0.00000  Uiso   1.00
C456   C     0.59536   0.87232   0.03230   0.00000  Uiso   1.00
C457   C     0.50837   0.84639   0.47889   0.00000  Uiso   1.00
C458   C     0.48915   0.83215   0.02348   0.00000  Uiso   1.00
Cu459  Cu    0.44071   0.82775   0.24517   0.00000  Uiso   1.00
Cu460  Cu    0.55929   0.83892   0.25483   0.00000  Uiso   1.00
H461   H     0.33505   0.77688   0.02884   0.00000  Uiso   1.00
H462   H     0.65961   0.90948   0.47561   0.00000  Uiso   1.00
H463   H     0.47403   0.80534   0.10808   0.00000  Uiso   1.00
H464   H     0.52932   0.85737   0.39055   0.00000  Uiso   1.00
H465   H     0.65548   0.88534   0.12202   0.00000  Uiso   1.00
H466   H     0.34235   0.79023   0.38018   0.00000  Uiso   1.00
H467   H     0.64310   0.77505   0.45858   0.00000  Uiso   1.00
H468   H     0.35274   0.90779   0.04505   0.00000  Uiso   1.00
H469   H     0.40648   0.79797   0.07423   0.00000  Uiso   1.00
H470   H     0.58796   0.88904   0.43034   0.00000  Uiso   1.00
N471   N     0.64839   0.84735   0.26212   0.00000  Uiso   1.00
N472   N     0.35161   0.81932   0.23788   0.00000  Uiso   1.00
O473   O     0.46148   0.90476   0.24686   0.00000  Uiso   1.00
O474   O     0.53852   0.76191   0.25314   0.00000  Uiso   1.00
O475   O     0.56163   0.91420   0.25502   0.00000  Uiso   1.00
O476   O     0.43837   0.75247   0.24497   0.00000  Uiso   1.00
O477   O     0.42185   0.82597   0.30855   0.00000  Uiso   1.00
O478   O     0.57815   0.84070   0.19145   0.00000  Uiso   1.00
O479   O     0.52199   0.83540   0.31671   0.00000  Uiso   1.00
O480   O     0.47801   0.83126   0.18329   0.00000  Uiso   1.00
C481   C     0.55034   0.68198   0.29466   0.00000  Uiso   1.00
H482   H     0.56123   0.98671   0.31355   0.00000  Uiso   1.00
H483   H     0.59556   0.70760   0.27907   0.00000  Uiso   1.00
H484   H     0.52042   0.70500   0.31885   0.00000  Uiso   1.00
C485   C     0.44971   0.98468   0.20531   0.00000  Uiso   1.00
H486   H     0.43882   0.67996   0.18641   0.00000  Uiso   1.00
H487   H     0.47964   0.96167   0.18112   0.00000  Uiso   1.00
H488   H     0.40448   0.95906   0.22088   0.00000  Uiso   1.00
C489   C     0.65769   0.86772   0.30459   0.00000  Uiso   1.00
H490   H     0.62443   0.89364   0.31870   0.00000  Uiso   1.00
H491   H     0.64696   0.83537   0.32712   0.00000  Uiso   1.00
H492   H     0.37081   0.89326   0.30263   0.00000  Uiso   1.00
C493   C     0.34233   0.79908   0.19536   0.00000  Uiso   1.00
H494   H     0.35289   0.83150   0.17289   0.00000  Uiso   1.00
H495   H     0.37569   0.77327   0.18115   0.00000  Uiso   1.00
H496   H     0.62927   0.77343   0.19732   0.00000  Uiso   1.00
C497   C     0.84740   0.93303   0.25237   0.00000  Uiso   1.00
C498   C     0.81927   0.73364   0.24762   0.00000  Uiso   1.00
C499   C     0.75903   0.80765   0.04048   0.00000  Uiso   1.00
C500   C     0.90376   0.87475   0.46290   0.00000  Uiso   1.00
C501   C     0.71646   0.79564   0.01437   0.00000  Uiso   1.00
C502   C     0.94604   0.88753   0.48922   0.00000  Uiso   1.00
C503   C     0.84986   0.98826   0.25993   0.00000  Uiso   1.00
C504   C     0.81683   0.67841   0.24005   0.00000  Uiso   1.00
C505   C     0.79500   0.82960   0.33299   0.00000  Uiso   1.00
C506   C     0.87171   0.83742   0.16707   0.00000  Uiso   1.00
C507   C     0.77206   0.82523   0.38065   0.00000  Uiso   1.00
C508   C     0.89472   0.84481   0.11984   0.00000  Uiso   1.00
C509   C     0.69133   0.79366   0.44445   0.00000  Uiso   1.00
C510   C     0.97236   0.88592   0.05831   0.00000  Uiso   1.00
C511   C     0.70966   0.80270   0.39983   0.00000  Uiso   1.00
C512   C     0.95536   0.87252   0.10197   0.00000  Uiso   1.00
C513   C     0.81517   0.84062   0.40679   0.00000  Uiso   1.00
C514   C     0.85221   0.82894   0.09337   0.00000  Uiso   1.00
C515   C     0.79793   0.83229   0.45196   0.00000  Uiso   1.00
C516   C     0.86709   0.84393   0.04980   0.00000  Uiso   1.00
C517   C     0.73507   0.80733   0.47039   0.00000  Uiso   1.00
C518   C     0.92869   0.87232   0.03230   0.00000  Uiso   1.00
C519   C     0.84170   0.84639   0.47889   0.00000  Uiso   1.00
C520   C     0.82249   0.83215   0.02348   0.00000  Uiso   1.00
Cu521  Cu    0.77404   0.82775   0.24517   0.00000  Uiso   1.00
Cu522  Cu    0.89263   0.83892   0.25483   0.00000  Uiso   1.00
H523   H     0.66838   0.77688   0.02884   0.00000  Uiso   1.00
H524   H     0.99294   0.90948   0.47561   0.00000  Uiso   1.00
H525   H     0.80737   0.80534   0.10808   0.00000  Uiso   1.00
H526   H     0.86265   0.85737   0.39055   0.00000  Uiso   1.00
H527   H     0.98882   0.88534   0.12202   0.00000  Uiso   1.00
H528   H     0.67568   0.79023   0.38018   0.00000  Uiso   1.00
H529   H     0.97643   0.77505   0.45858   0.00000  Uiso   1.00
H530   H     0.68607   0.90779   0.04505   0.00000  Uiso   1.00
H531   H     0.73981   0.79797   0.07423   0.00000  Uiso   1.00
H532   H     0.92129   0.88904   0.43034   0.00000  Uiso   1.00
N533   N     0.98173   0.84735   0.26212   0.00000  Uiso   1.00
N534   N     0.68494   0.81932   0.23788   0.00000  Uiso   1.00
O535   O     0.79482   0.90476   0.24686   0.00000  Uiso   1.00
O536   O     0.87185   0.76191   0.25314   0.00000  Uiso   1.00
O537   O     0.89496   0.91420   0.25502   0.00000  Uiso   1.00
O538   O     0.77171   0.75247   0.24497   0.00000  Uiso   1.00
O539   O     0.75518   0.82597   0.30855   0.00000  Uiso   1.00
O540   O     0.91149   0.84070   0.19145   0.00000  Uiso   1.00
O541   O     0.85532   0.83540   0.31671   0.00000  Uiso   1.00
O542   O     0.81134   0.83126   0.18329   0.00000  Uiso   1.00
C543   C     0.88367   0.68198   0.29466   0.00000  Uiso   1.00
H544   H     0.89456   0.98671   0.31355   0.00000  Uiso   1.00
H545   H     0.92889   0.70760   0.27907   0.00000  Uiso   1.00
H546   H     0.85375   0.70500   0.31885   0.00000  Uiso   1.00
C547   C     0.78304   0.98468   0.20531   0.00000  Uiso   1.00
H548   H     0.77216   0.67996   0.18641   0.00000  Uiso   1.00
H549   H     0.81297   0.96167   0.18112   0.00000  Uiso   1.00
H550   H     0.73782   0.95906   0.22088   0.00000  Uiso   1.00
C551   C     0.99103   0.86772   0.30459   0.00000  Uiso   1.00
H552   H     0.95776   0.89364   0.31870   0.00000  Uiso   1.00
H553   H     0.98029   0.83537   0.32712   0.00000  Uiso   1.00
H554   H     0.70414   0.89326   0.30263   0.00000  Uiso   1.00
C555   C     0.67567   0.79908   0.19536   0.00000  Uiso   1.00
H556   H     0.68622   0.83150   0.17289   0.00000  Uiso   1.00
H557   H     0.70902   0.77327   0.18115   0.00000  Uiso   1.00
H558   H     0.96261   0.77343   0.19732   0.00000  Uiso   1.00
C559   C     0.18073   0.26636   0.75237   0.00000  Uiso   1.00
C560   C     0.15261   0.06697   0.74762   0.00000  Uiso   1.00
C561   C     0.09237   0.14098   0.54048   0.00000  Uiso   1.00
C562   C     0.23709   0.20808   0.96290   0.00000  Uiso   1.00
C563   C     0.04979   0.12897   0.51437   0.00000  Uiso   1.00
C564   C     0.27938   0.22086   0.98922   0.00000  Uiso   1.00
C565   C     0.18319   0.32159   0.75993   0.00000  Uiso   1.00
C566   C     0.15016   0.01174   0.74005   0.00000  Uiso   1.00
C567   C     0.12833   0.16293   0.83299   0.00000  Uiso   1.00
C568   C     0.20504   0.17075   0.66707   0.00000  Uiso   1.00
C569   C     0.10540   0.15856   0.88065   0.00000  Uiso   1.00
C570   C     0.22805   0.17815   0.61984   0.00000  Uiso   1.00
C571   C     0.02466   0.12699   0.94445   0.00000  Uiso   1.00
C572   C     0.30570   0.21926   0.55831   0.00000  Uiso   1.00
C573   C     0.04299   0.13603   0.89983   0.00000  Uiso   1.00
C574   C     0.28870   0.20585   0.60197   0.00000  Uiso   1.00
C575   C     0.14850   0.17395   0.90679   0.00000  Uiso   1.00
C576   C     0.18554   0.16227   0.59337   0.00000  Uiso   1.00
C577   C     0.13127   0.16562   0.95196   0.00000  Uiso   1.00
C578   C     0.20042   0.17726   0.54980   0.00000  Uiso   1.00
C579   C     0.06841   0.14066   0.97039   0.00000  Uiso   1.00
C580   C     0.26202   0.20566   0.53230   0.00000  Uiso   1.00
C581   C     0.17504   0.17973   0.97889   0.00000  Uiso   1.00
C582   C     0.15582   0.16548   0.52348   0.00000  Uiso   1.00
Cu583  Cu    0.10737   0.16108   0.74517   0.00000  Uiso   1.00
Cu584  Cu    0.22596   0.17225   0.75483   0.00000  Uiso   1.00
H585   H     0.00171   0.11021   0.52884   0.00000  Uiso   1.00
H586   H     0.32628   0.24282   0.97561   0.00000  Uiso   1.00
H587   H     0.14070   0.13867   0.60808   0.00000  Uiso   1.00
H588   H     0.19598   0.19070   0.89055   0.00000  Uiso   1.00
H589   H     0.32215   0.21867   0.62202   0.00000  Uiso   1.00
H590   H     0.00902   0.12357   0.88018   0.00000  Uiso   1.00
H591   H     0.30976   0.10838   0.95858   0.00000  Uiso   1.00
H592   H     0.01940   0.24112   0.54505   0.00000  Uiso   1.00
H593   H     0.07315   0.13130   0.57423   0.00000  Uiso   1.00
H594   H     0.25462   0.22237   0.93034   0.00000  Uiso   1.00
N595   N     0.31506   0.18068   0.76212   0.00000  Uiso   1.00
N596   N     0.01827   0.15265   0.73788   0.00000  Uiso   1.00
O597   O     0.12815   0.23809   0.74686   0.00000  Uiso   1.00
O598   O     0.20518   0.09524   0.75314   0.00000  Uiso   1.00
O599   O     0.22829   0.24753   0.75502   0.00000  Uiso   1.00
O600   O     0.10504   0.08580   0.74497   0.00000  Uiso   1.00
O601   O     0.08851   0.15930   0.80855   0.00000  Uiso   1.00
O602   O     0.24482   0.17403   0.69145   0.00000  Uiso   1.00
O603   O     0.18866   0.16874   0.81671   0.00000  Uiso   1.00
O604   O     0.14468   0.16460   0.68329   0.00000  Uiso   1.00
C605   C     0.21700   0.01532   0.79466   0.00000  Uiso   1.00
H606   H     0.22789   0.32004   0.81355   0.00000  Uiso   1.00
H607   H     0.26223   0.04093   0.77907   0.00000  Uiso   1.00
H608   H     0.18708   0.03834   0.81885   0.00000  Uiso   1.00
C609   C     0.11637   0.31801   0.70531   0.00000  Uiso   1.00
H610   H     0.10549   0.01329   0.68641   0.00000  Uiso   1.00
H611   H     0.14631   0.29500   0.68112   0.00000  Uiso   1.00
H612   H     0.07115   0.29239   0.72088   0.00000  Uiso   1.00
C613   C     0.32436   0.20105   0.80459   0.00000  Uiso   1.00
H614   H     0.29110   0.22697   0.81870   0.00000  Uiso   1.00
H615   H     0.31363   0.16870   0.82712   0.00000  Uiso   1.00
H616   H     0.03747   0.22660   0.80263   0.00000  Uiso   1.00
C617   C     0.00900   0.13241   0.69536   0.00000  Uiso   1.00
H618   H     0.01956   0.16483   0.67289   0.00000  Uiso   1.00
H619   H     0.04236   0.10660   0.68115   0.00000  Uiso   1.00
H620   H     0.29594   0.10677   0.69732   0.00000  Uiso   1.00
C621   C     0.51407   0.26636   0.75237   0.00000  Uiso   1.00
C622   C     0.48594   0.06697   0.74762   0.00000  Uiso   1.00
C623   C     0.42570   0.14098   0.54048   0.00000  Uiso   1.00
C624   C     0.57043   0.20808   0.96290   0.00000  Uiso   1.00
C625   C     0.38313   0.12897   0.51437   0.00000  Uiso   1.00
C626   C     0.61271   0.22086   0.98922   0.00000  Uiso   1.00
C627   C     0.51653   0.32159   0.75993   0.00000  Uiso   1.00
C628   C     0.48349   0.01174   0.74005   0.00000  Uiso   1.00
C629   C     0.46166   0.16293   0.83299   0.00000  Uiso   1.00
C630   C     0.53837   0.17075   0.66707   0.00000  Uiso   1.00
C631   C     0.43873   0.15856   0.88065   0.00000  Uiso   1.00
C632   C     0.56139   0.17815   0.61984   0.00000  Uiso   1.00
C633   C     0.35800   0.12699   0.94445   0.00000  Uiso   1.00
C634   C     0.63903   0.21926   0.55831   0.00000  Uiso   1.00
C635   C     0.37633   0.13603   0.89983   0.00000  Uiso   1.00
C636   C     0.62203   0.20585   0.60197   0.00000  Uiso   1.00
C637   C     0.48183   0.17395   0.90679   0.00000  Uiso   1.00
C638   C     0.51888   0.16227   0.59337   0.00000  Uiso   1.00
C639   C     0.46460   0.16562   0.95196   0.00000  Uiso   1.00
C640   C     0.53375   0.17726   0.54980   0.00000  Uiso   1.00
C641   C     0.40174   0.14066   0.97039   0.00000  Uiso   1.00
C642   C     0.59536   0.20566   0.53230   0.00000  Uiso   1.00
C643   C     0.50837   0.17973   0.97889   0.00000  Uiso   1.00
C644   C     0.48915   0.16548   0.52348   0.00000  Uiso   1.00
Cu645  Cu    0.44071   0.16108   0.74517   0.00000  Uiso   1.00
Cu646  Cu    0.55929   0.17225   0.75483   0.00000  Uiso   1.00
H647   H     0.33505   0.11021   0.52884   0.00000  Uiso   1.00
H648   H     0.65961   0.24282   0.97561   0.00000  Uiso   1.00
H649   H     0.47403   0.13867   0.60808   0.00000  Uiso   1.00
H650   H     0.52932   0.19070   0.89055   0.00000  Uiso   1.00
H651   H     0.65548   0.21867   0.62202   0.00000  Uiso   1.00
H652   H     0.34235   0.12357   0.88018   0.00000  Uiso   1.00
H653   H     0.64310   0.10838   0.95858   0.00000  Uiso   1.00
H654   H     0.35274   0.24112   0.54505   0.00000  Uiso   1.00
H655   H     0.40648   0.13130   0.57423   0.00000  Uiso   1.00
H656   H     0.58796   0.22237   0.93034   0.00000  Uiso   1.00
N657   N     0.64839   0.18068   0.76212   0.00000  Uiso   1.00
N658   N     0.35161   0.15265   0.73788   0.00000  Uiso   1.00
O659   O     0.46148   0.23809   0.74686   0.00000  Uiso   1.00
O660   O     0.53852   0.09524   0.75314   0.00000  Uiso   1.00
O661   O     0.56163   0.24753   0.75502   0.00000  Uiso   1.00
O662   O     0.43837   0.08580   0.74497   0.00000  Uiso   1.00
O663   O     0.42185   0.15930   0.80855   0.00000  Uiso   1.00
O664   O     0.57815   0.17403   0.69145   0.00000  Uiso   1.00
O665   O     0.52199   0.16874   0.81671   0.00000  Uiso   1.00
O666   O     0.47801   0.16460   0.68329   0.00000  Uiso   1.00
C667   C     0.55034   0.01532   0.79466   0.00000  Uiso   1.00
H668   H     0.56123   0.32004   0.81355   0.00000  Uiso   1.00
H669   H     0.59556   0.04093   0.77907   0.00000  Uiso   1.00
H670   H     0.52042   0.03834   0.81885   0.00000  Uiso   1.00
C671   C     0.44971   0.31801   0.70531   0.00000  Uiso   1.00
H672   H     0.43882   0.01329   0.68641   0.00000  Uiso   1.00
H673   H     0.47964   0.29500   0.68112   0.00000  Uiso   1.00
H674   H     0.40448   0.29239   0.72088   0.00000  Uiso   1.00
C675   C     0.65769   0.20105   0.80459   0.00000  Uiso   1.00
H676   H     0.62443   0.22697   0.81870   0.00000  Uiso   1.00
H677   H     0.64696   0.16870   0.82712   0.00000  Uiso   1.00
H678   H     0.37081   0.22660   0.80263   0.00000  Uiso   1.00
C679   C     0.34233   0.13241   0.69536   0.00000  Uiso   1.00
H680   H     0.35289   0.16483   0.67289   0.00000  Uiso   1.00
H681   H     0.37569   0.10660   0.68115   0.00000  Uiso   1.00
H682   H     0.62927   0.10677   0.69732   0.00000  Uiso   1.00
C683   C     0.84740   0.26636   0.75237   0.00000  Uiso   1.00
C684   C     0.81927   0.06697   0.74762   0.00000  Uiso   1.00
C685   C     0.75903   0.14098   0.54048   0.00000  Uiso   1.00
C686   C     0.90376   0.20808   0.96290   0.00000  Uiso   1.00
C687   C     0.71646   0.12897   0.51437   0.00000  Uiso   1.00
C688   C     0.94604   0.22086   0.98922   0.00000  Uiso   1.00
C689   C     0.84986   0.32159   0.75993   0.00000  Uiso   1.00
C690   C     0.81683   0.01174   0.74005   0.00000  Uiso   1.00
C691   C     0.79500   0.16293   0.83299   0.00000  Uiso   1.00
C692   C     0.87171   0.17075   0.66707   0.00000  Uiso   1.00
C693   C     0.77206   0.15856   0.88065   0.00000  Uiso   1.00
C694   C     0.89472   0.17815   0.61984   0.00000  Uiso   1.00
C695   C     0.69133   0.12699   0.94445   0.00000  Uiso   1.00
C696   C     0.97236   0.21926   0.55831   0.00000  Uiso   1.00
C697   C     0.70966   0.13603   0.89983   0.00000  Uiso   1.00
C698   C     0.95536   0.20585   0.60197   0.00000  Uiso   1.00
C699   C     0.81517   0.17395   0.90679   0.00000  Uiso   1.00
C700   C     0.85221   0.16227   0.59337   0.00000  Uiso   1.00
C701   C     0.79793   0.16562   0.95196   0.00000  Uiso   1.00
C702   C     0.86709   0.17726   0.54980   0.00000  Uiso   1.00
C703   C     0.73507   0.14066   0.97039   0.00000  Uiso   1.00
C704   C     0.92869   0.20566   0.53230   0.00000  Uiso   1.00
C705   C     0.84170   0.17973   0.97889   0.00000  Uiso   1.00
C706   C     0.82249   0.16548   0.52348   0.00000  Uiso   1.00
Cu707  Cu    0.77404   0.16108   0.74517   0.00000  Uiso   1.00
Cu708  Cu    0.89263   0.17225   0.75483   0.00000  Uiso   1.00
H709   H     0.66838   0.11021   0.52884   0.00000  Uiso   1.00
H710   H     0.99294   0.24282   0.97561   0.00000  Uiso   1.00
H711   H     0.80737   0.13867   0.60808   0.00000  Uiso   1.00
H712   H     0.86265   0.19070   0.89055   0.00000  Uiso   1.00
H713   H     0.98882   0.21867   0.62202   0.00000  Uiso   1.00
H714   H     0.67568   0.12357   0.88018   0.00000  Uiso   1.00
H715   H     0.97643   0.10838   0.95858   0.00000  Uiso   1.00
H716   H     0.68607   0.24112   0.54505   0.00000  Uiso   1.00
H717   H     0.73981   0.13130   0.57423   0.00000  Uiso   1.00
H718   H     0.92129   0.22237   0.93034   0.00000  Uiso   1.00
N719   N     0.98173   0.18068   0.76212   0.00000  Uiso   1.00
N720   N     0.68494   0.15265   0.73788   0.00000  Uiso   1.00
O721   O     0.79482   0.23809   0.74686   0.00000  Uiso   1.00
O722   O     0.87185   0.09524   0.75314   0.00000  Uiso   1.00
O723   O     0.89496   0.24753   0.75502   0.00000  Uiso   1.00
O724   O     0.77171   0.08580   0.74497   0.00000  Uiso   1.00
O725   O     0.75518   0.15930   0.80855   0.00000  Uiso   1.00
O726   O     0.91149   0.17403   0.69145   0.00000  Uiso   1.00
O727   O     0.85532   0.16874   0.81671   0.00000  Uiso   1.00
O728   O     0.81134   0.16460   0.68329   0.00000  Uiso   1.00
C729   C     0.88367   0.01532   0.79466   0.00000  Uiso   1.00
H730   H     0.89456   0.32004   0.81355   0.00000  Uiso   1.00
H731   H     0.92889   0.04093   0.77907   0.00000  Uiso   1.00
H732   H     0.85375   0.03834   0.81885   0.00000  Uiso   1.00
C733   C     0.78304   0.31801   0.70531   0.00000  Uiso   1.00
H734   H     0.77216   0.01329   0.68641   0.00000  Uiso   1.00
H735   H     0.81297   0.29500   0.68112   0.00000  Uiso   1.00
H736   H     0.73782   0.29239   0.72088   0.00000  Uiso   1.00
C737   C     0.99103   0.20105   0.80459   0.00000  Uiso   1.00
H738   H     0.95776   0.22697   0.81870   0.00000  Uiso   1.00
H739   H     0.98029   0.16870   0.82712   0.00000  Uiso   1.00
H740   H     0.70414   0.22660   0.80263   0.00000  Uiso   1.00
C741   C     0.67567   0.13241   0.69536   0.00000  Uiso   1.00
H742   H     0.68622   0.16483   0.67289   0.00000  Uiso   1.00
H743   H     0.70902   0.10660   0.68115   0.00000  Uiso   1.00
H744   H     0.96261   0.10677   0.69732   0.00000  Uiso   1.00
C745   C     0.18073   0.59970   0.75237   0.00000  Uiso   1.00
C746   C     0.15261   0.40030   0.74762   0.00000  Uiso   1.00
C747   C     0.09237   0.47431   0.54048   0.00000  Uiso   1.00
C748   C     0.23709   0.54142   0.96290   0.00000  Uiso   1.00
C749   C     0.04979   0.46230   0.51437   0.00000  Uiso   1.00
C750   C     0.27938   0.55419   0.98922   0.00000  Uiso   1.00
C751   C     0.18319   0.65492   0.75993   0.00000  Uiso   1.00
C752   C     0.15016   0.34508   0.74005   0.00000  Uiso   1.00
C753   C     0.12833   0.49626   0.83299   0.00000  Uiso   1.00
C754   C     0.20504   0.50409   0.66707   0.00000  Uiso   1.00
C755   C     0.10540   0.49189   0.88065   0.00000  Uiso   1.00
C756   C     0.22805   0.51148   0.61984   0.00000  Uiso   1.00
C757   C     0.02466   0.46032   0.94445   0.00000  Uiso   1.00
C758   C     0.30570   0.55259   0.55831   0.00000  Uiso   1.00
C759   C     0.04299   0.46937   0.89983   0.00000  Uiso   1.00
C760   C     0.28870   0.53918   0.60197   0.00000  Uiso   1.00
C761   C     0.14850   0.50729   0.90679   0.00000  Uiso   1.00
C762   C     0.18554   0.49560   0.59337   0.00000  Uiso   1.00
C763   C     0.13127   0.49896   0.95196   0.00000  Uiso   1.00
C764   C     0.20042   0.51060   0.54980   0.00000  Uiso   1.00
C765   C     0.06841   0.47400   0.97039   0.00000  Uiso   1.00
C766   C     0.26202   0.53899   0.53230   0.00000  Uiso   1.00
C767   C     0.17504   0.51306   0.97889   0.00000  Uiso   1.00
C768   C     0.15582   0.49881   0.52348   0.00000  Uiso   1.00
Cu769  Cu    0.10737   0.49441   0.74517   0.00000  Uiso   1.00
Cu770  Cu    0.22596   0.50559   0.75483   0.00000  Uiso   1.00
H771   H     0.00171   0.44354   0.52884   0.00000  Uiso   1.00
H772   H     0.32628   0.57615   0.97561   0.00000  Uiso   1.00
H773   H     0.14070   0.47200   0.60808   0.00000  Uiso   1.00
H774   H     0.19598   0.52403   0.89055   0.00000  Uiso   1.00
H775   H     0.32215   0.55200   0.62202   0.00000  Uiso   1.00
H776   H     0.00902   0.45690   0.88018   0.00000  Uiso   1.00
H777   H     0.30976   0.44172   0.95858   0.00000  Uiso   1.00
H778   H     0.01940   0.57446   0.54505   0.00000  Uiso   1.00
H779   H     0.07315   0.46464   0.57423   0.00000  Uiso   1.00
H780   H     0.25462   0.55571   0.93034   0.00000  Uiso   1.00
N781   N     0.31506   0.51401   0.76212   0.00000  Uiso   1.00
N782   N     0.01827   0.48599   0.73788   0.00000  Uiso   1.00
O783   O     0.12815   0.57142   0.74686   0.00000  Uiso   1.00
O784   O     0.20518   0.42858   0.75314   0.00000  Uiso   1.00
O785   O     0.22829   0.58086   0.75502   0.00000  Uiso   1.00
O786   O     0.10504   0.41914   0.74497   0.00000  Uiso   1.00
O787   O     0.08851   0.49263   0.80855   0.00000  Uiso   1.00
O788   O     0.24482   0.50737   0.69145   0.00000  Uiso   1.00
O789   O     0.18866   0.50207   0.81671   0.00000  Uiso   1.00
O790   O     0.14468   0.49793   0.68329   0.00000  Uiso   1.00
C791   C     0.21700   0.34865   0.79466   0.00000  Uiso   1.00
H792   H     0.22789   0.65338   0.81355   0.00000  Uiso   1.00
H793   H     0.26223   0.37427   0.77907   0.00000  Uiso   1.00
H794   H     0.18708   0.37167   0.81885   0.00000  Uiso   1.00
C795   C     0.11637   0.65135   0.70531   0.00000  Uiso   1.00
H796   H     0.10549   0.34662   0.68641   0.00000  Uiso   1.00
H797   H     0.14631   0.62833   0.68112   0.00000  Uiso   1.00
H798   H     0.07115   0.62572   0.72088   0.00000  Uiso   1.00
C799   C     0.32436   0.53439   0.80459   0.00000  Uiso   1.00
H800   H     0.29110   0.56030   0.81870   0.00000  Uiso   1.00
H801   H     0.31363   0.50203   0.82712   0.00000  Uiso   1.00
H802   H     0.03747   0.55993   0.80263   0.00000  Uiso   1.00
C803   C     0.00900   0.46574   0.69536   0.00000  Uiso   1.00
H804   H     0.01956   0.49817   0.67289   0.00000  Uiso   1.00
H805   H     0.04236   0.43993   0.68115   0.00000  Uiso   1.00
H806   H     0.29594   0.44010   0.69732   0.00000  Uiso   1.00
C807   C     0.51407   0.59970   0.75237   0.00000  Uiso   1.00
C808   C     0.48594   0.40030   0.74762   0.00000  Uiso   1.00
C809   C     0.42570   0.47431   0.54048   0.00000  Uiso   1.00
C810   C     0.57043   0.54142   0.96290   0.00000  Uiso   1.00
C811   C     0.38313   0.46230   0.51437   0.00000  Uiso   1.00
C812   C     0.61271   0.55419   0.98922   0.00000  Uiso   1.00
C813   C     0.51653   0.65492   0.75993   0.00000  Uiso   1.00
C814   C     0.48349   0.34508   0.74005   0.00000  Uiso   1.00
C815   C     0.46166   0.49626   0.83299   0.00000  Uiso   1.00
C816   C     0.53837   0.50409   0.66707   0.00000  Uiso   1.00
C817   C     0.43873   0.49189   0.88065   0.00000  Uiso   1.00
C818   C     0.56139   0.51148   0.61984   0.00000  Uiso   1.00
C819   C     0.35800   0.46032   0.94445   0.00000  Uiso   1.00
C820   C     0.63903   0.55259   0.55831   0.00000  Uiso   1.00
C821   C     0.37633   0.46937   0.89983   0.00000  Uiso   1.00
C822   C     0.62203   0.53918   0.60197   0.00000  Uiso   1.00
C823   C     0.48183   0.50729   0.90679   0.00000  Uiso   1.00
C824   C     0.51888   0.49560   0.59337   0.00000  Uiso   1.00
C825   C     0.46460   0.49896   0.95196   0.00000  Uiso   1.00
C826   C     0.53375   0.51060   0.54980   0.00000  Uiso   1.00
C827   C     0.40174   0.47400   0.97039   0.00000  Uiso   1.00
C828   C     0.59536   0.53899   0.53230   0.00000  Uiso   1.00
C829   C     0.50837   0.51306   0.97889   0.00000  Uiso   1.00
C830   C     0.48915   0.49881   0.52348   0.00000  Uiso   1.00
Cu831  Cu    0.44071   0.49441   0.74517   0.00000  Uiso   1.00
Cu832  Cu    0.55929   0.50559   0.75483   0.00000  Uiso   1.00
H833   H     0.33505   0.44354   0.52884   0.00000  Uiso   1.00
H834   H     0.65961   0.57615   0.97561   0.00000  Uiso   1.00
H835   H     0.47403   0.47200   0.60808   0.00000  Uiso   1.00
H836   H     0.52932   0.52403   0.89055   0.00000  Uiso   1.00
H837   H     0.65548   0.55200   0.62202   0.00000  Uiso   1.00
H838   H     0.34235   0.45690   0.88018   0.00000  Uiso   1.00
H839   H     0.64310   0.44172   0.95858   0.00000  Uiso   1.00
H840   H     0.35274   0.57446   0.54505   0.00000  Uiso   1.00
H841   H     0.40648   0.46464   0.57423   0.00000  Uiso   1.00
H842   H     0.58796   0.55571   0.93034   0.00000  Uiso   1.00
N843   N     0.64839   0.51401   0.76212   0.00000  Uiso   1.00
N844   N     0.35161   0.48599   0.73788   0.00000  Uiso   1.00
O845   O     0.46148   0.57142   0.74686   0.00000  Uiso   1.00
O846   O     0.53852   0.42858   0.75314   0.00000  Uiso   1.00
O847   O     0.56163   0.58086   0.75502   0.00000  Uiso   1.00
O848   O     0.43837   0.41914   0.74497   0.00000  Uiso   1.00
O849   O     0.42185   0.49263   0.80855   0.00000  Uiso   1.00
O850   O     0.57815   0.50737   0.69145   0.00000  Uiso   1.00
O851   O     0.52199   0.50207   0.81671   0.00000  Uiso   1.00
O852   O     0.47801   0.49793   0.68329   0.00000  Uiso   1.00
C853   C     0.55034   0.34865   0.79466   0.00000  Uiso   1.00
H854   H     0.56123   0.65338   0.81355   0.00000  Uiso   1.00
H855   H     0.59556   0.37427   0.77907   0.00000  Uiso   1.00
H856   H     0.52042   0.37167   0.81885   0.00000  Uiso   1.00
C857   C     0.44971   0.65135   0.70531   0.00000  Uiso   1.00
H858   H     0.43882   0.34662   0.68641   0.00000  Uiso   1.00
H859   H     0.47964   0.62833   0.68112   0.00000  Uiso   1.00
H860   H     0.40448   0.62572   0.72088   0.00000  Uiso   1.00
C861   C     0.65769   0.53439   0.80459   0.00000  Uiso   1.00
H862   H     0.62443   0.56030   0.81870   0.00000  Uiso   1.00
H863   H     0.64696   0.50203   0.82712   0.00000  Uiso   1.00
H864   H     0.37081   0.55993   0.80263   0.00000  Uiso   1.00
C865   C     0.34233   0.46574   0.69536   0.00000  Uiso   1.00
H866   H     0.35289   0.49817   0.67289   0.00000  Uiso   1.00
H867   H     0.37569   0.43993   0.68115   0.00000  Uiso   1.00
H868   H     0.62927   0.44010   0.69732   0.00000  Uiso   1.00
C869   C     0.84740   0.59970   0.75237   0.00000  Uiso   1.00
C870   C     0.81927   0.40030   0.74762   0.00000  Uiso   1.00
C871   C     0.75903   0.47431   0.54048   0.00000  Uiso   1.00
C872   C     0.90376   0.54142   0.96290   0.00000  Uiso   1.00
C873   C     0.71646   0.46230   0.51437   0.00000  Uiso   1.00
C874   C     0.94604   0.55419   0.98922   0.00000  Uiso   1.00
C875   C     0.84986   0.65492   0.75993   0.00000  Uiso   1.00
C876   C     0.81683   0.34508   0.74005   0.00000  Uiso   1.00
C877   C     0.79500   0.49626   0.83299   0.00000  Uiso   1.00
C878   C     0.87171   0.50409   0.66707   0.00000  Uiso   1.00
C879   C     0.77206   0.49189   0.88065   0.00000  Uiso   1.00
C880   C     0.89472   0.51148   0.61984   0.00000  Uiso   1.00
C881   C     0.69133   0.46032   0.94445   0.00000  Uiso   1.00
C882   C     0.97236   0.55259   0.55831   0.00000  Uiso   1.00
C883   C     0.70966   0.46937   0.89983   0.00000  Uiso   1.00
C884   C     0.95536   0.53918   0.60197   0.00000  Uiso   1.00
C885   C     0.81517   0.50729   0.90679   0.00000  Uiso   1.00
C886   C     0.85221   0.49560   0.59337   0.00000  Uiso   1.00
C887   C     0.79793   0.49896   0.95196   0.00000  Uiso   1.00
C888   C     0.86709   0.51060   0.54980   0.00000  Uiso   1.00
C889   C     0.73507   0.47400   0.97039   0.00000  Uiso   1.00
C890   C     0.92869   0.53899   0.53230   0.00000  Uiso   1.00
C891   C     0.84170   0.51306   0.97889   0.00000  Uiso   1.00
C892   C     0.82249   0.49881   0.52348   0.00000  Uiso   1.00
Cu893  Cu    0.77404   0.49441   0.74517   0.00000  Uiso   1.00
Cu894  Cu    0.89263   0.50559   0.75483   0.00000  Uiso   1.00
H895   H     0.66838   0.44354   0.52884   0.00000  Uiso   1.00
H896   H     0.99294   0.57615   0.97561   0.00000  Uiso   1.00
H897   H     0.80737   0.47200   0.60808   0.00000  Uiso   1.00
H898   H     0.86265   0.52403   0.89055   0.00000  Uiso   1.00
H899   H     0.98882   0.55200   0.62202   0.00000  Uiso   1.00
H900   H     0.67568   0.45690   0.88018   0.00000  Uiso   1.00
H901   H     0.97643   0.44172   0.95858   0.00000  Uiso   1.00
H902   H     0.68607   0.57446   0.54505   0.00000  Uiso   1.00
H903   H     0.73981   0.46464   0.57423   0.00000  Uiso   1.00
H904   H     0.92129   0.55571   0.93034   0.00000  Uiso   1.00
N905   N     0.98173   0.51401   0.76212   0.00000  Uiso   1.00
N906   N     0.68494   0.48599   0.73788   0.00000  Uiso   1.00
O907   O     0.79482   0.57142   0.74686   0.00000  Uiso   1.00
O908   O     0.87185   0.42858   0.75314   0.00000  Uiso   1.00
O909   O     0.89496   0.58086   0.75502   0.00000  Uiso   1.00
O910   O     0.77171   0.41914   0.74497   0.00000  Uiso   1.00
O911   O     0.75518   0.49263   0.80855   0.00000  Uiso   1.00
O912   O     0.91149   0.50737   0.69145   0.00000  Uiso   1.00
O913   O     0.85532   0.50207   0.81671   0.00000  Uiso   1.00
O914   O     0.81134   0.49793   0.68329   0.00000  Uiso   1.00
C915   C     0.88367   0.34865   0.79466   0.00000  Uiso   1.00
H916   H     0.89456   0.65338   0.81355   0.00000  Uiso   1.00
H917   H     0.92889   0.37427   0.77907   0.00000  Uiso   1.00
H918   H     0.85375   0.37167   0.81885   0.00000  Uiso   1.00
C919   C     0.78304   0.65135   0.70531   0.00000  Uiso   1.00
H920   H     0.77216   0.34662   0.68641   0.00000  Uiso   1.00
H921   H     0.81297   0.62833   0.68112   0.00000  Uiso   1.00
H922   H     0.73782   0.62572   0.72088   0.00000  Uiso   1.00
C923   C     0.99103   0.53439   0.80459   0.00000  Uiso   1.00
H924   H     0.95776   0.56030   0.81870   0.00000  Uiso   1.00
H925   H     0.98029   0.50203   0.82712   0.00000  Uiso   1.00
H926   H     0.70414   0.55993   0.80263   0.00000  Uiso   1.00
C927   C     0.67567   0.46574   0.69536   0.00000  Uiso   1.00
H928   H     0.68622   0.49817   0.67289   0.00000  Uiso   1.00
H929   H     0.70902   0.43993   0.68115   0.00000  Uiso   1.00
H930   H     0.96261   0.44010   0.69732   0.00000  Uiso   1.00
C931   C     0.18073   0.93303   0.75237   0.00000  Uiso   1.00
C932   C     0.15261   0.73364   0.74762   0.00000  Uiso   1.00
C933   C     0.09237   0.80765   0.54048   0.00000  Uiso   1.00
C934   C     0.23709   0.87475   0.96290   0.00000  Uiso   1.00
C935   C     0.04979   0.79564   0.51437   0.00000  Uiso   1.00
C936   C     0.27938   0.88753   0.98922   0.00000  Uiso   1.00
C937   C     0.18319   0.98826   0.75993   0.00000  Uiso   1.00
C938   C     0.15016   0.67841   0.74005   0.00000  Uiso   1.00
C939   C     0.12833   0.82960   0.83299   0.00000  Uiso   1.00
C940   C     0.20504   0.83742   0.66707   0.00000  Uiso   1.00
C941   C     0.10540   0.82523   0.88065   0.00000  Uiso   1.00
C942   C     0.22805   0.84481   0.61984   0.00000  Uiso   1.00
C943   C     0.02466   0.79366   0.94445   0.00000  Uiso   1.00
C944   C     0.30570   0.88592   0.55831   0.00000  Uiso   1.00
C945   C     0.04299   0.80270   0.89983   0.00000  Uiso   1.00
C946   C     0.28870   0.87252   0.60197   0.00000  Uiso   1.00
C947   C     0.14850   0.84062   0.90679   0.00000  Uiso   1.00
C948   C     0.18554   0.82894   0.59337   0.00000  Uiso   1.00
C949   C     0.13127   0.83229   0.95196   0.00000  Uiso   1.00
C950   C     0.20042   0.84393   0.54980   0.00000  Uiso   1.00
C951   C     0.06841   0.80733   0.97039   0.00000  Uiso   1.00
C952   C     0.26202   0.87232   0.53230   0.00000  Uiso   1.00
C953   C     0.17504   0.84639   0.97889   0.00000  Uiso   1.00
C954   C     0.15582   0.83215   0.52348   0.00000  Uiso   1.00
Cu955  Cu    0.10737   0.82775   0.74517   0.00000  Uiso   1.00
Cu956  Cu    0.22596   0.83892   0.75483   0.00000  Uiso   1.00
H957   H     0.00171   0.77688   0.52884   0.00000  Uiso   1.00
H958   H     0.32628   0.90948   0.97561   0.00000  Uiso   1.00
H959   H     0.14070   0.80534   0.60808   0.00000  Uiso   1.00
H960   H     0.19598   0.85737   0.89055   0.00000  Uiso   1.00
H961   H     0.32215   0.88534   0.62202   0.00000  Uiso   1.00
H962   H     0.00902   0.79023   0.88018   0.00000  Uiso   1.00
H963   H     0.30976   0.77505   0.95858   0.00000  Uiso   1.00
H964   H     0.01940   0.90779   0.54505   0.00000  Uiso   1.00
H965   H     0.07315   0.79797   0.57423   0.00000  Uiso   1.00
H966   H     0.25462   0.88904   0.93034   0.00000  Uiso   1.00
N967   N     0.31506   0.84735   0.76212   0.00000  Uiso   1.00
N968   N     0.01827   0.81932   0.73788   0.00000  Uiso   1.00
O969   O     0.12815   0.90476   0.74686   0.00000  Uiso   1.00
O970   O     0.20518   0.76191   0.75314   0.00000  Uiso   1.00
O971   O     0.22829   0.91420   0.75502   0.00000  Uiso   1.00
O972   O     0.10504   0.75247   0.74497   0.00000  Uiso   1.00
O973   O     0.08851   0.82597   0.80855   0.00000  Uiso   1.00
O974   O     0.24482   0.84070   0.69145   0.00000  Uiso   1.00
O975   O     0.18866   0.83540   0.81671   0.00000  Uiso   1.00
O976   O     0.14468   0.83126   0.68329   0.00000  Uiso   1.00
C977   C     0.21700   0.68198   0.79466   0.00000  Uiso   1.00
H978   H     0.22789   0.98671   0.81355   0.00000  Uiso   1.00
H979   H     0.26223   0.70760   0.77907   0.00000  Uiso   1.00
H980   H     0.18708   0.70500   0.81885   0.00000  Uiso   1.00
C981   C     0.11637   0.98468   0.70531   0.00000  Uiso   1.00
H982   H     0.10549   0.67996   0.68641   0.00000  Uiso   1.00
H983   H     0.14631   0.96167   0.68112   0.00000  Uiso   1.00
H984   H     0.07115   0.95906   0.72088   0.00000  Uiso   1.00
C985   C     0.32436   0.86772   0.80459   0.00000  Uiso   1.00
H986   H     0.29110   0.89364   0.81870   0.00000  Uiso   1.00
H987   H     0.31363   0.83537   0.82712   0.00000  Uiso   1.00
H988   H     0.03747   0.89326   0.80263   0.00000  Uiso   1.00
C989   C     0.00900   0.79908   0.69536   0.00000  Uiso   1.00
H990   H     0.01956   0.83150   0.67289   0.00000  Uiso   1.00
H991   H     0.04236   0.77327   0.68115   0.00000  Uiso   1.00
H992   H     0.29594   0.77343   0.69732   0.00000  Uiso   1.00
C993   C     0.51407   0.93303   0.75237   0.00000  Uiso   1.00
C994   C     0.48594   0.73364   0.74762   0.00000  Uiso   1.00
C995   C     0.42570   0.80765   0.54048   0.00000  Uiso   1.00
C996   C     0.57043   0.87475   0.96290   0.00000  Uiso   1.00
C997   C     0.38313   0.79564   0.51437   0.00000  Uiso   1.00
C998   C     0.61271   0.88753   0.98922   0.00000  Uiso   1.00
C999   C     0.51653   0.98826   0.75993   0.00000  Uiso   1.00
C1000  C     0.48349   0.67841   0.74005   0.00000  Uiso   1.00
C1001  C     0.46166   0.82960   0.83299   0.00000  Uiso   1.00
C1002  C     0.53837   0.83742   0.66707   0.00000  Uiso   1.00
C1003  C     0.43873   0.82523   0.88065   0.00000  Uiso   1.00
C1004  C     0.56139   0.84481   0.61984   0.00000  Uiso   1.00
C1005  C     0.35800   0.79366   0.94445   0.00000  Uiso   1.00
C1006  C     0.63903   0.88592   0.55831   0.00000  Uiso   1.00
C1007  C     0.37633   0.80270   0.89983   0.00000  Uiso   1.00
C1008  C     0.62203   0.87252   0.60197   0.00000  Uiso   1.00
C1009  C     0.48183   0.84062   0.90679   0.00000  Uiso   1.00
C1010  C     0.51888   0.82894   0.59337   0.00000  Uiso   1.00
C1011  C     0.46460   0.83229   0.95196   0.00000  Uiso   1.00
C1012  C     0.53375   0.84393   0.54980   0.00000  Uiso   1.00
C1013  C     0.40174   0.80733   0.97039   0.00000  Uiso   1.00
C1014  C     0.59536   0.87232   0.53230   0.00000  Uiso   1.00
C1015  C     0.50837   0.84639   0.97889   0.00000  Uiso   1.00
C1016  C     0.48915   0.83215   0.52348   0.00000  Uiso   1.00
Cu1017 Cu    0.44071   0.82775   0.74517   0.00000  Uiso   1.00
Cu1018 Cu    0.55929   0.83892   0.75483   0.00000  Uiso   1.00
H1019  H     0.33505   0.77688   0.52884   0.00000  Uiso   1.00
H1020  H     0.65961   0.90948   0.97561   0.00000  Uiso   1.00
H1021  H     0.47403   0.80534   0.60808   0.00000  Uiso   1.00
H1022  H     0.52932   0.85737   0.89055   0.00000  Uiso   1.00
H1023  H     0.65548   0.88534   0.62202   0.00000  Uiso   1.00
H1024  H     0.34235   0.79023   0.88018   0.00000  Uiso   1.00
H1025  H     0.64310   0.77505   0.95858   0.00000  Uiso   1.00
H1026  H     0.35274   0.90779   0.54505   0.00000  Uiso   1.00
H1027  H     0.40648   0.79797   0.57423   0.00000  Uiso   1.00
H1028  H     0.58796   0.88904   0.93034   0.00000  Uiso   1.00
N1029  N     0.64839   0.84735   0.76212   0.00000  Uiso   1.00
N1030  N     0.35161   0.81932   0.73788   0.00000  Uiso   1.00
O1031  O     0.46148   0.90476   0.74686   0.00000  Uiso   1.00
O1032  O     0.53852   0.76191   0.75314   0.00000  Uiso   1.00
O1033  O     0.56163   0.91420   0.75502   0.00000  Uiso   1.00
O1034  O     0.43837   0.75247   0.74497   0.00000  Uiso   1.00
O1035  O     0.42185   0.82597   0.80855   0.00000  Uiso   1.00
O1036  O     0.57815   0.84070   0.69145   0.00000  Uiso   1.00
O1037  O     0.52199   0.83540   0.81671   0.00000  Uiso   1.00
O1038  O     0.47801   0.83126   0.68329   0.00000  Uiso   1.00
C1039  C     0.55034   0.68198   0.79466   0.00000  Uiso   1.00
H1040  H     0.56123   0.98671   0.81355   0.00000  Uiso   1.00
H1041  H     0.59556   0.70760   0.77907   0.00000  Uiso   1.00
H1042  H     0.52042   0.70500   0.81885   0.00000  Uiso   1.00
C1043  C     0.44971   0.98468   0.70531   0.00000  Uiso   1.00
H1044  H     0.43882   0.67996   0.68641   0.00000  Uiso   1.00
H1045  H     0.47964   0.96167   0.68112   0.00000  Uiso   1.00
H1046  H     0.40448   0.95906   0.72088   0.00000  Uiso   1.00
C1047  C     0.65769   0.86772   0.80459   0.00000  Uiso   1.00
H1048  H     0.62443   0.89364   0.81870   0.00000  Uiso   1.00
H1049  H     0.64696   0.83537   0.82712   0.00000  Uiso   1.00
H1050  H     0.37081   0.89326   0.80263   0.00000  Uiso   1.00
C1051  C     0.34233   0.79908   0.69536   0.00000  Uiso   1.00
H1052  H     0.35289   0.83150   0.67289   0.00000  Uiso   1.00
H1053  H     0.37569   0.77327   0.68115   0.00000  Uiso   1.00
H1054  H     0.62927   0.77343   0.69732   0.00000  Uiso   1.00
C1055  C     0.84740   0.93303   0.75237   0.00000  Uiso   1.00
C1056  C     0.81927   0.73364   0.74762   0.00000  Uiso   1.00
C1057  C     0.75903   0.80765   0.54048   0.00000  Uiso   1.00
C1058  C     0.90376   0.87475   0.96290   0.00000  Uiso   1.00
C1059  C     0.71646   0.79564   0.51437   0.00000  Uiso   1.00
C1060  C     0.94604   0.88753   0.98922   0.00000  Uiso   1.00
C1061  C     0.84986   0.98826   0.75993   0.00000  Uiso   1.00
C1062  C     0.81683   0.67841   0.74005   0.00000  Uiso   1.00
C1063  C     0.79500   0.82960   0.83299   0.00000  Uiso   1.00
C1064  C     0.87171   0.83742   0.66707   0.00000  Uiso   1.00
C1065  C     0.77206   0.82523   0.88065   0.00000  Uiso   1.00
C1066  C     0.89472   0.84481   0.61984   0.00000  Uiso   1.00
C1067  C     0.69133   0.79366   0.94445   0.00000  Uiso   1.00
C1068  C     0.97236   0.88592   0.55831   0.00000  Uiso   1.00
C1069  C     0.70966   0.80270   0.89983   0.00000  Uiso   1.00
C1070  C     0.95536   0.87252   0.60197   0.00000  Uiso   1.00
C1071  C     0.81517   0.84062   0.90679   0.00000  Uiso   1.00
C1072  C     0.85221   0.82894   0.59337   0.00000  Uiso   1.00
C1073  C     0.79793   0.83229   0.95196   0.00000  Uiso   1.00
C1074  C     0.86709   0.84393   0.54980   0.00000  Uiso   1.00
C1075  C     0.73507   0.80733   0.97039   0.00000  Uiso   1.00
C1076  C     0.92869   0.87232   0.53230   0.00000  Uiso   1.00
C1077  C     0.84170   0.84639   0.97889   0.00000  Uiso   1.00
C1078  C     0.82249   0.83215   0.52348   0.00000  Uiso   1.00
Cu1079 Cu    0.77404   0.82775   0.74517   0.00000  Uiso   1.00
Cu1080 Cu    0.89263   0.83892   0.75483   0.00000  Uiso   1.00
H1081  H     0.66838   0.77688   0.52884   0.00000  Uiso   1.00
H1082  H     0.99294   0.90948   0.97561   0.00000  Uiso   1.00
H1083  H     0.80737   0.80534   0.60808   0.00000  Uiso   1.00
H1084  H     0.86265   0.85737   0.89055   0.00000  Uiso   1.00
H1085  H     0.98882   0.88534   0.62202   0.00000  Uiso   1.00
H1086  H     0.67568   0.79023   0.88018   0.00000  Uiso   1.00
H1087  H     0.97643   0.77505   0.95858   0.00000  Uiso   1.00
H1088  H     0.68607   0.90779   0.54505   0.00000  Uiso   1.00
H1089  H     0.73981   0.79797   0.57423   0.00000  Uiso   1.00
H1090  H     0.92129   0.88904   0.93034   0.00000  Uiso   1.00
N1091  N     0.98173   0.84735   0.76212   0.00000  Uiso   1.00
N1092  N     0.68494   0.81932   0.73788   0.00000  Uiso   1.00
O1093  O     0.79482   0.90476   0.74686   0.00000  Uiso   1.00
O1094  O     0.87185   0.76191   0.75314   0.00000  Uiso   1.00
O1095  O     0.89496   0.91420   0.75502   0.00000  Uiso   1.00
O1096  O     0.77171   0.75247   0.74497   0.00000  Uiso   1.00
O1097  O     0.75518   0.82597   0.80855   0.00000  Uiso   1.00
O1098  O     0.91149   0.84070   0.69145   0.00000  Uiso   1.00
O1099  O     0.85532   0.83540   0.81671   0.00000  Uiso   1.00
O1100  O     0.81134   0.83126   0.68329   0.00000  Uiso   1.00
C1101  C     0.88367   0.68198   0.79466   0.00000  Uiso   1.00
H1102  H     0.89456   0.98671   0.81355   0.00000  Uiso   1.00
H1103  H     0.92889   0.70760   0.77907   0.00000  Uiso   1.00
H1104  H     0.85375   0.70500   0.81885   0.00000  Uiso   1.00
C1105  C     0.78304   0.98468   0.70531   0.00000  Uiso   1.00
H1106  H     0.77216   0.67996   0.68641   0.00000  Uiso   1.00
H1107  H     0.81297   0.96167   0.68112   0.00000  Uiso   1.00
H1108  H     0.73782   0.95906   0.72088   0.00000  Uiso   1.00
C1109  C     0.99103   0.86772   0.80459   0.00000  Uiso   1.00
H1110  H     0.95776   0.89364   0.81870   0.00000  Uiso   1.00
H1111  H     0.98029   0.83537   0.82712   0.00000  Uiso   1.00
H1112  H     0.70414   0.89326   0.80263   0.00000  Uiso   1.00
C1113  C     0.67567   0.79908   0.69536   0.00000  Uiso   1.00
H1114  H     0.68622   0.83150   0.67289   0.00000  Uiso   1.00
H1115  H     0.70902   0.77327   0.68115   0.00000  Uiso   1.00
H1116  H     0.96261   0.77343   0.69732   0.00000  Uiso   1.00
loop_
_geom_bond_atom_site_label_1
_geom_bond_atom_site_label_2
_geom_bond_distance
_geom_bond_site_symmetry_2
_ccdc_geom_bond_type
C1     C7      1.438   .     S
C1     O41     1.306   .     A
C1     O39     1.292   .     A
C2     O42     1.306   .     A
C2     O40     1.292   .     A
C2     C8      1.438   .     S
C3     H35     1.076   .     S
C3     C24     1.417   .     A
C3     C5      1.386   .     A
C4     H36     1.076   .     S
C4     C6      1.386   .     A
C4     C23     1.417   .     A
C5     H27     1.085   .     S
C5     C579    1.389   1_554 S
C6     H28     1.085   .     S
C6     C580    1.389   .     S
C7     C194    1.365   .     S
C7     C233    1.522   .     S
C8     C379    1.365   1_545 S
C8     C423    1.522   1_545 S
C9     O45     1.305   .     A
C9     C11     1.468   .     S
C9     O43     1.311   .     A
C10    C12     1.466   .     S
C10    O46     1.305   .     A
C10    O44     1.310   .     A
C11    C15     1.398   .     A
C11    C17     1.400   .     A
C12    C18     1.398   .     A
C12    C16     1.398   .     A
C13    C15     1.392   .     A
C13    C21     1.404   .     A
C13    H157    1.084   1_455 S
C14    C22     1.405   .     A
C14    C16     1.392   .     A
C14    H96     1.084   .     S
C15    H32     1.082   .     S
C16    H31     1.083   .     S
C17    H30     1.074   .     S
C17    C19     1.405   .     A
C18    H29     1.075   .     S
C18    C20     1.405   .     A
C19    C23     1.428   .     A
C19    C21     1.418   .     A
C20    C22     1.418   .     A
C20    C24     1.428   .     A
C21    C563    1.389   .     S
C22    C564    1.389   1_554 S
C23    C582    1.425   .     S
C24    C581    1.425   1_554 S
Cu25   O42     1.968   .     S
Cu25   N38     2.044   .     S
Cu25   O43     1.940   .     S
Cu25   O39     1.970   .     S
Cu25   Cu26    2.720   .     S
Cu25   O46     1.922   .     S
Cu26   N37     2.044   .     S
Cu26   O40     1.970   .     S
Cu26   O44     1.940   .     S
Cu26   O45     1.922   .     S
Cu26   O41     1.968   .     S
H33    C75     1.084   .     S
H34    C138    1.084   1_455 S
N37    C55     1.442   .     S
N37    N100    1.284   .     S
N38    C59     1.442   .     S
N38    N161    1.284   1_455 S
C47    H49     1.110   .     S
C47    H50     1.111   .     S
C47    C379    1.522   1_545 S
C47    H420    1.111   1_545 S
H48    C233    1.111   .     S
C51    H54     1.110   .     S
C51    H53     1.111   .     S
C51    C194    1.522   .     S
C51    H238    1.111   .     S
H52    C423    1.111   1_545 S
C55    H56     1.108   .     S
C55    H57     1.109   .     S
C55    H120    1.099   .     S
H58    C179    1.099   1_455 S
C59    H60     1.110   .     S
C59    H61     1.108   .     S
C59    H186    1.099   1_455 S
H62    C121    1.099   .     S
C63    C69     1.438   .     S
C63    O103    1.306   .     A
C63    O101    1.292   .     A
C64    O104    1.306   .     A
C64    O102    1.292   .     A
C64    C70     1.438   .     S
C65    H97     1.076   .     S
C65    C86     1.417   .     A
C65    C67     1.386   .     A
C66    H98     1.076   .     S
C66    C68     1.386   .     A
C66    C85     1.417   .     A
C67    H89     1.085   .     S
C67    C641    1.389   1_554 S
C68    H90     1.085   .     S
C68    C642    1.389   .     S
C69    C256    1.365   .     S
C69    C295    1.522   .     S
C70    C441    1.365   1_545 S
C70    C485    1.522   1_545 S
C71    O107    1.305   .     A
C71    C73     1.468   .     S
C71    O105    1.311   .     A
C72    C74     1.466   .     S
C72    O108    1.305   .     A
C72    O106    1.310   .     A
C73    C77     1.398   .     A
C73    C79     1.400   .     A
C74    C80     1.398   .     A
C74    C78     1.398   .     A
C75    C77     1.392   .     A
C75    C83     1.404   .     A
C76    C84     1.405   .     A
C76    C78     1.392   .     A
C76    H158    1.084   .     S
C77    H94     1.082   .     S
C78    H93     1.083   .     S
C79    H92     1.074   .     S
C79    C81     1.405   .     A
C80    H91     1.075   .     S
C80    C82     1.405   .     A
C81    C85     1.428   .     A
C81    C83     1.418   .     A
C82    C84     1.418   .     A
C82    C86     1.428   .     A
C83    C625    1.389   .     S
C84    C626    1.389   1_554 S
C85    C644    1.425   .     S
C86    C643    1.425   1_554 S
Cu87   O104    1.968   .     S
Cu87   N100    2.044   .     S
Cu87   O105    1.940   .     S
Cu87   O101    1.970   .     S
Cu87   Cu88    2.720   .     S
Cu87   O108    1.922   .     S
Cu88   N99     2.044   .     S
Cu88   O102    1.970   .     S
Cu88   O106    1.940   .     S
Cu88   O107    1.922   .     S
Cu88   O103    1.968   .     S
H95    C137    1.084   .     S
N99    C117    1.442   .     S
N99    N162    1.284   .     S
N100   C121    1.442   .     S
C109   H111    1.110   .     S
C109   H112    1.111   .     S
C109   C441    1.522   1_545 S
C109   H482    1.111   1_545 S
H110   C295    1.111   .     S
C113   H116    1.110   .     S
C113   H115    1.111   .     S
C113   C256    1.522   .     S
C113   H300    1.111   .     S
H114   C485    1.111   1_545 S
C117   H118    1.108   .     S
C117   H119    1.109   .     S
C117   H182    1.099   .     S
C121   H122    1.110   .     S
C121   H123    1.108   .     S
H124   C183    1.099   .     S
C125   C131    1.438   .     S
C125   O165    1.306   .     A
C125   O163    1.292   .     A
C126   O166    1.306   .     A
C126   O164    1.292   .     A
C126   C132    1.438   .     S
C127   H159    1.076   .     S
C127   C148    1.417   .     A
C127   C129    1.386   .     A
C128   H160    1.076   .     S
C128   C130    1.386   .     A
C128   C147    1.417   .     A
C129   H151    1.085   .     S
C129   C703    1.389   1_554 S
C130   H152    1.085   .     S
C130   C704    1.389   .     S
C131   C318    1.365   .     S
C131   C357    1.522   .     S
C132   C503    1.365   1_545 S
C132   C547    1.522   1_545 S
C133   O169    1.305   .     A
C133   C135    1.468   .     S
C133   O167    1.311   .     A
C134   C136    1.466   .     S
C134   O170    1.305   .     A
C134   O168    1.310   .     A
C135   C139    1.398   .     A
C135   C141    1.400   .     A
C136   C142    1.398   .     A
C136   C140    1.398   .     A
C137   C139    1.392   .     A
C137   C145    1.404   .     A
C138   C146    1.405   .     A
C138   C140    1.392   .     A
C138   H34     1.084   1_655 S
C139   H156    1.082   .     S
C140   H155    1.083   .     S
C141   H154    1.074   .     S
C141   C143    1.405   .     A
C142   H153    1.075   .     S
C142   C144    1.405   .     A
C143   C147    1.428   .     A
C143   C145    1.418   .     A
C144   C146    1.418   .     A
C144   C148    1.428   .     A
C145   C687    1.389   .     S
C146   C688    1.389   1_554 S
C147   C706    1.425   .     S
C148   C705    1.425   1_554 S
Cu149  O166    1.968   .     S
Cu149  N162    2.044   .     S
Cu149  O167    1.940   .     S
Cu149  O163    1.970   .     S
Cu149  Cu150   2.720   .     S
Cu149  O170    1.922   .     S
Cu150  N161    2.044   .     S
Cu150  O164    1.970   .     S
Cu150  O168    1.940   .     S
Cu150  O169    1.922   .     S
Cu150  O165    1.968   .     S
H157   C13     1.084   1_655 S
N161   C179    1.442   .     S
N161   N38     1.284   1_655 S
N162   C183    1.442   .     S
C171   H173    1.110   .     S
C171   H174    1.111   .     S
C171   C503    1.522   1_545 S
C171   H544    1.111   1_545 S
H172   C357    1.111   .     S
C175   H178    1.110   .     S
C175   H177    1.111   .     S
C175   C318    1.522   .     S
C175   H362    1.111   .     S
H176   C547    1.111   1_545 S
C179   H180    1.108   .     S
C179   H181    1.109   .     S
C179   H58     1.099   1_655 S
C183   H184    1.110   .     S
C183   H185    1.108   .     S
H186   C59     1.099   1_655 S
C187   C193    1.438   .     S
C187   O227    1.306   .     A
C187   O225    1.292   .     A
C188   O228    1.306   .     A
C188   O226    1.292   .     A
C188   C194    1.438   .     S
C189   H221    1.076   .     S
C189   C210    1.417   .     A
C189   C191    1.386   .     A
C190   H222    1.076   .     S
C190   C192    1.386   .     A
C190   C209    1.417   .     A
C191   H213    1.085   .     S
C191   C765    1.389   1_554 S
C192   H214    1.085   .     S
C192   C766    1.389   .     S
C193   C380    1.365   .     S
C193   C419    1.522   .     S
C195   O231    1.305   .     A
C195   C197    1.468   .     S
C195   O229    1.311   .     A
C196   C198    1.466   .     S
C196   O232    1.305   .     A
C196   O230    1.310   .     A
C197   C201    1.398   .     A
C197   C203    1.400   .     A
C198   C204    1.398   .     A
C198   C202    1.398   .     A
C199   C201    1.392   .     A
C199   C207    1.404   .     A
C199   H343    1.084   1_455 S
C200   C208    1.405   .     A
C200   C202    1.392   .     A
C200   H282    1.084   .     S
C201   H218    1.082   .     S
C202   H217    1.083   .     S
C203   H216    1.074   .     S
C203   C205    1.405   .     A
C204   H215    1.075   .     S
C204   C206    1.405   .     A
C205   C209    1.428   .     A
C205   C207    1.418   .     A
C206   C208    1.418   .     A
C206   C210    1.428   .     A
C207   C749    1.389   .     S
C208   C750    1.389   1_554 S
C209   C768    1.425   .     S
C210   C767    1.425   1_554 S
Cu211  O228    1.968   .     S
Cu211  N224    2.044   .     S
Cu211  O229    1.940   .     S
Cu211  O225    1.970   .     S
Cu211  Cu212   2.720   .     S
Cu211  O232    1.922   .     S
Cu212  N223    2.044   .     S
Cu212  O226    1.970   .     S
Cu212  O230    1.940   .     S
Cu212  O231    1.922   .     S
Cu212  O227    1.968   .     S
H219   C261    1.084   .     S
H220   C324    1.084   1_455 S
N223   C241    1.442   .     S
N223   N286    1.284   .     S
N224   C245    1.442   .     S
N224   N347    1.284   1_455 S
C233   H235    1.110   .     S
C233   H236    1.111   .     S
H234   C419    1.111   .     S
C237   H240    1.110   .     S
C237   H239    1.111   .     S
C237   C380    1.522   .     S
C237   H424    1.111   .     S
C241   H242    1.108   .     S
C241   H243    1.109   .     S
C241   H306    1.099   .     S
H244   C365    1.099   1_455 S
C245   H246    1.110   .     S
C245   H247    1.108   .     S
C245   H372    1.099   1_455 S
H248   C307    1.099   .     S
C249   C255    1.438   .     S
C249   O289    1.306   .     A
C249   O287    1.292   .     A
C250   O290    1.306   .     A
C250   O288    1.292   .     A
C250   C256    1.438   .     S
C251   H283    1.076   .     S
C251   C272    1.417   .     A
C251   C253    1.386   .     A
C252   H284    1.076   .     S
C252   C254    1.386   .     A
C252   C271    1.417   .     A
C253   H275    1.085   .     S
C253   C827    1.389   1_554 S
C254   H276    1.085   .     S
C254   C828    1.389   .     S
C255   C442    1.365   .     S
C255   C481    1.522   .     S
C257   O293    1.305   .     A
C257   C259    1.468   .     S
C257   O291    1.311   .     A
C258   C260    1.466   .     S
C258   O294    1.305   .     A
C258   O292    1.310   .     A
C259   C263    1.398   .     A
C259   C265    1.400   .     A
C260   C266    1.398   .     A
C260   C264    1.398   .     A
C261   C263    1.392   .     A
C261   C269    1.404   .     A
C262   C270    1.405   .     A
C262   C264    1.392   .     A
C262   H344    1.084   .     S
C263   H280    1.082   .     S
C264   H279    1.083   .     S
C265   H278    1.074   .     S
C265   C267    1.405   .     A
C266   H277    1.075   .     S
C266   C268    1.405   .     A
C267   C271    1.428   .     A
C267   C269    1.418   .     A
C268   C270    1.418   .     A
C268   C272    1.428   .     A
C269   C811    1.389   .     S
C270   C812    1.389   1_554 S
C271   C830    1.425   .     S
C272   C829    1.425   1_554 S
Cu273  O290    1.968   .     S
Cu273  N286    2.044   .     S
Cu273  O291    1.940   .     S
Cu273  O287    1.970   .     S
Cu273  Cu274   2.720   .     S
Cu273  O294    1.922   .     S
Cu274  N285    2.044   .     S
Cu274  O288    1.970   .     S
Cu274  O292    1.940   .     S
Cu274  O293    1.922   .     S
Cu274  O289    1.968   .     S
H281   C323    1.084   .     S
N285   C303    1.442   .     S
N285   N348    1.284   .     S
N286   C307    1.442   .     S
C295   H297    1.110   .     S
C295   H298    1.111   .     S
H296   C481    1.111   .     S
C299   H302    1.110   .     S
C299   H301    1.111   .     S
C299   C442    1.522   .     S
C299   H486    1.111   .     S
C303   H304    1.108   .     S
C303   H305    1.109   .     S
C303   H368    1.099   .     S
C307   H308    1.110   .     S
C307   H309    1.108   .     S
H310   C369    1.099   .     S
C311   C317    1.438   .     S
C311   O351    1.306   .     A
C311   O349    1.292   .     A
C312   O352    1.306   .     A
C312   O350    1.292   .     A
C312   C318    1.438   .     S
C313   H345    1.076   .     S
C313   C334    1.417   .     A
C313   C315    1.386   .     A
C314   H346    1.076   .     S
C314   C316    1.386   .     A
C314   C333    1.417   .     A
C315   H337    1.085   .     S
C315   C889    1.389   1_554 S
C316   H338    1.085   .     S
C316   C890    1.389   .     S
C317   C504    1.365   .     S
C317   C543    1.522   .     S
C319   O355    1.305   .     A
C319   C321    1.468   .     S
C319   O353    1.311   .     A
C320   C322    1.466   .     S
C320   O356    1.305   .     A
C320   O354    1.310   .     A
C321   C325    1.398   .     A
C321   C327    1.400   .     A
C322   C328    1.398   .     A
C322   C326    1.398   .     A
C323   C325    1.392   .     A
C323   C331    1.404   .     A
C324   C332    1.405   .     A
C324   C326    1.392   .     A
C324   H220    1.084   1_655 S
C325   H342    1.082   .     S
C326   H341    1.083   .     S
C327   H340    1.074   .     S
C327   C329    1.405   .     A
C328   H339    1.075   .     S
C328   C330    1.405   .     A
C329   C333    1.428   .     A
C329   C331    1.418   .     A
C330   C332    1.418   .     A
C330   C334    1.428   .     A
C331   C873    1.389   .     S
C332   C874    1.389   1_554 S
C333   C892    1.425   .     S
C334   C891    1.425   1_554 S
Cu335  O352    1.968   .     S
Cu335  N348    2.044   .     S
Cu335  O353    1.940   .     S
Cu335  O349    1.970   .     S
Cu335  Cu336   2.720   .     S
Cu335  O356    1.922   .     S
Cu336  N347    2.044   .     S
Cu336  O350    1.970   .     S
Cu336  O354    1.940   .     S
Cu336  O355    1.922   .     S
Cu336  O351    1.968   .     S
H343   C199    1.084   1_655 S
N347   C365    1.442   .     S
N347   N224    1.284   1_655 S
N348   C369    1.442   .     S
C357   H359    1.110   .     S
C357   H360    1.111   .     S
H358   C543    1.111   .     S
C361   H364    1.110   .     S
C361   H363    1.111   .     S
C361   C504    1.522   .     S
C361   H548    1.111   .     S
C365   H366    1.108   .     S
C365   H367    1.109   .     S
C365   H244    1.099   1_655 S
C369   H370    1.110   .     S
C369   H371    1.108   .     S
H372   C245    1.099   1_655 S
C373   C379    1.438   .     S
C373   O413    1.306   .     A
C373   O411    1.292   .     A
C374   O414    1.306   .     A
C374   O412    1.292   .     A
C374   C380    1.438   .     S
C375   H407    1.076   .     S
C375   C396    1.417   .     A
C375   C377    1.386   .     A
C376   H408    1.076   .     S
C376   C378    1.386   .     A
C376   C395    1.417   .     A
C377   H399    1.085   .     S
C377   C951    1.389   1_554 S
C378   H400    1.085   .     S
C378   C952    1.389   .     S
C379   C8      1.365   1_565 S
C379   C47     1.522   1_565 S
C381   O417    1.305   .     A
C381   C383    1.468   .     S
C381   O415    1.311   .     A
C382   C384    1.466   .     S
C382   O418    1.305   .     A
C382   O416    1.310   .     A
C383   C387    1.398   .     A
C383   C389    1.400   .     A
C384   C390    1.398   .     A
C384   C388    1.398   .     A
C385   C387    1.392   .     A
C385   C393    1.404   .     A
C385   H529    1.084   1_455 S
C386   C394    1.405   .     A
C386   C388    1.392   .     A
C386   H468    1.084   .     S
C387   H404    1.082   .     S
C388   H403    1.083   .     S
C389   H402    1.074   .     S
C389   C391    1.405   .     A
C390   H401    1.075   .     S
C390   C392    1.405   .     A
C391   C395    1.428   .     A
C391   C393    1.418   .     A
C392   C394    1.418   .     A
C392   C396    1.428   .     A
C393   C935    1.389   .     S
C394   C936    1.389   1_554 S
C395   C954    1.425   .     S
C396   C953    1.425   1_554 S
Cu397  O414    1.968   .     S
Cu397  N410    2.044   .     S
Cu397  O415    1.940   .     S
Cu397  O411    1.970   .     S
Cu397  Cu398   2.720   .     S
Cu397  O418    1.922   .     S
Cu398  N409    2.044   .     S
Cu398  O412    1.970   .     S
Cu398  O416    1.940   .     S
Cu398  O417    1.922   .     S
Cu398  O413    1.968   .     S
H405   C447    1.084   .     S
H406   C510    1.084   1_455 S
N409   C427    1.442   .     S
N409   N472    1.284   .     S
N410   C431    1.442   .     S
N410   N533    1.284   1_455 S
C419   H421    1.110   .     S
C419   H422    1.111   .     S
H420   C47     1.111   1_565 S
C423   H426    1.110   .     S
C423   H425    1.111   .     S
C423   C8      1.522   1_565 S
C423   H52     1.111   1_565 S
C427   H428    1.108   .     S
C427   H429    1.109   .     S
C427   H492    1.099   .     S
H430   C551    1.099   1_455 S
C431   H432    1.110   .     S
C431   H433    1.108   .     S
C431   H558    1.099   1_455 S
H434   C493    1.099   .     S
C435   C441    1.438   .     S
C435   O475    1.306   .     A
C435   O473    1.292   .     A
C436   O476    1.306   .     A
C436   O474    1.292   .     A
C436   C442    1.438   .     S
C437   H469    1.076   .     S
C437   C458    1.417   .     A
C437   C439    1.386   .     A
C438   H470    1.076   .     S
C438   C440    1.386   .     A
C438   C457    1.417   .     A
C439   H461    1.085   .     S
C439   C1013   1.389   1_554 S
C440   H462    1.085   .     S
C440   C1014   1.389   .     S
C441   C70     1.365   1_565 S
C441   C109    1.522   1_565 S
C443   O479    1.305   .     A
C443   C445    1.468   .     S
C443   O477    1.311   .     A
C444   C446    1.466   .     S
C444   O480    1.305   .     A
C444   O478    1.310   .     A
C445   C449    1.398   .     A
C445   C451    1.400   .     A
C446   C452    1.398   .     A
C446   C450    1.398   .     A
C447   C449    1.392   .     A
C447   C455    1.404   .     A
C448   C456    1.405   .     A
C448   C450    1.392   .     A
C448   H530    1.084   .     S
C449   H466    1.082   .     S
C450   H465    1.083   .     S
C451   H464    1.074   .     S
C451   C453    1.405   .     A
C452   H463    1.075   .     S
C452   C454    1.405   .     A
C453   C457    1.428   .     A
C453   C455    1.418   .     A
C454   C456    1.418   .     A
C454   C458    1.428   .     A
C455   C997    1.389   .     S
C456   C998    1.389   1_554 S
C457   C1016   1.425   .     S
C458   C1015   1.425   1_554 S
Cu459  O476    1.968   .     S
Cu459  N472    2.044   .     S
Cu459  O477    1.940   .     S
Cu459  O473    1.970   .     S
Cu459  Cu460   2.720   .     S
Cu459  O480    1.922   .     S
Cu460  N471    2.044   .     S
Cu460  O474    1.970   .     S
Cu460  O478    1.940   .     S
Cu460  O479    1.922   .     S
Cu460  O475    1.968   .     S
H467   C509    1.084   .     S
N471   C489    1.442   .     S
N471   N534    1.284   .     S
N472   C493    1.442   .     S
C481   H483    1.110   .     S
C481   H484    1.111   .     S
H482   C109    1.111   1_565 S
C485   H488    1.110   .     S
C485   H487    1.111   .     S
C485   C70     1.522   1_565 S
C485   H114    1.111   1_565 S
C489   H490    1.108   .     S
C489   H491    1.109   .     S
C489   H554    1.099   .     S
C493   H494    1.110   .     S
C493   H495    1.108   .     S
H496   C555    1.099   .     S
C497   C503    1.438   .     S
C497   O537    1.306   .     A
C497   O535    1.292   .     A
C498   O538    1.306   .     A
C498   O536    1.292   .     A
C498   C504    1.438   .     S
C499   H531    1.076   .     S
C499   C520    1.417   .     A
C499   C501    1.386   .     A
C500   H532    1.076   .     S
C500   C502    1.386   .     A
C500   C519    1.417   .     A
C501   H523    1.085   .     S
C501   C1075   1.389   1_554 S
C502   H524    1.085   .     S
C502   C1076   1.389   .     S
C503   C132    1.365   1_565 S
C503   C171    1.522   1_565 S
C505   O541    1.305   .     A
C505   C507    1.468   .     S
C505   O539    1.311   .     A
C506   C508    1.466   .     S
C506   O542    1.305   .     A
C506   O540    1.310   .     A
C507   C511    1.398   .     A
C507   C513    1.400   .     A
C508   C514    1.398   .     A
C508   C512    1.398   .     A
C509   C511    1.392   .     A
C509   C517    1.404   .     A
C510   C518    1.405   .     A
C510   C512    1.392   .     A
C510   H406    1.084   1_655 S
C511   H528    1.082   .     S
C512   H527    1.083   .     S
C513   H526    1.074   .     S
C513   C515    1.405   .     A
C514   H525    1.075   .     S
C514   C516    1.405   .     A
C515   C519    1.428   .     A
C515   C517    1.418   .     A
C516   C518    1.418   .     A
C516   C520    1.428   .     A
C517   C1059   1.389   .     S
C518   C1060   1.389   1_554 S
C519   C1078   1.425   .     S
C520   C1077   1.425   1_554 S
Cu521  O538    1.968   .     S
Cu521  N534    2.044   .     S
Cu521  O539    1.940   .     S
Cu521  O535    1.970   .     S
Cu521  Cu522   2.720   .     S
Cu521  O542    1.922   .     S
Cu522  N533    2.044   .     S
Cu522  O536    1.970   .     S
Cu522  O540    1.940   .     S
Cu522  O541    1.922   .     S
Cu522  O537    1.968   .     S
H529   C385    1.084   1_655 S
N533   C551    1.442   .     S
N533   N410    1.284   1_655 S
N534   C555    1.442   .     S
C543   H545    1.110   .     S
C543   H546    1.111   .     S
H544   C171    1.111   1_565 S
C547   H550    1.110   .     S
C547   H549    1.111   .     S
C547   C132    1.522   1_565 S
C547   H176    1.111   1_565 S
C551   H552    1.108   .     S
C551   H553    1.109   .     S
C551   H430    1.099   1_655 S
C555   H556    1.110   .     S
C555   H557    1.108   .     S
H558   C431    1.099   1_655 S
C559   C565    1.438   .     S
C559   O599    1.306   .     A
C559   O597    1.292   .     A
C560   O600    1.306   .     A
C560   O598    1.292   .     A
C560   C566    1.438   .     S
C561   H593    1.076   .     S
C561   C582    1.417   .     A
C561   C563    1.386   .     A
C562   H594    1.076   .     S
C562   C564    1.386   .     A
C562   C581    1.417   .     A
C563   H585    1.085   .     S
C564   H586    1.085   .     S
C564   C22     1.389   1_556 S
C565   C752    1.365   .     S
C565   C791    1.522   .     S
C566   C937    1.365   1_545 S
C566   C981    1.522   1_545 S
C567   O603    1.305   .     A
C567   C569    1.468   .     S
C567   O601    1.311   .     A
C568   C570    1.466   .     S
C568   O604    1.305   .     A
C568   O602    1.310   .     A
C569   C573    1.398   .     A
C569   C575    1.400   .     A
C570   C576    1.398   .     A
C570   C574    1.398   .     A
C571   C573    1.392   .     A
C571   C579    1.404   .     A
C571   H715    1.084   1_455 S
C572   C580    1.405   .     A
C572   C574    1.392   .     A
C572   H654    1.084   .     S
C573   H590    1.082   .     S
C574   H589    1.083   .     S
C575   H588    1.074   .     S
C575   C577    1.405   .     A
C576   H587    1.075   .     S
C576   C578    1.405   .     A
C577   C581    1.428   .     A
C577   C579    1.418   .     A
C578   C580    1.418   .     A
C578   C582    1.428   .     A
C579   C5      1.389   1_556 S
C581   C24     1.425   1_556 S
Cu583  O600    1.968   .     S
Cu583  N596    2.044   .     S
Cu583  O601    1.940   .     S
Cu583  O597    1.970   .     S
Cu583  Cu584   2.720   .     S
Cu583  O604    1.922   .     S
Cu584  N595    2.044   .     S
Cu584  O598    1.970   .     S
Cu584  O602    1.940   .     S
Cu584  O603    1.922   .     S
Cu584  O599    1.968   .     S
H591   C633    1.084   .     S
H592   C696    1.084   1_455 S
N595   C613    1.442   .     S
N595   N658    1.284   .     S
N596   C617    1.442   .     S
N596   N719    1.284   1_455 S
C605   H607    1.110   .     S
C605   H608    1.111   .     S
C605   C937    1.522   1_545 S
C605   H978    1.111   1_545 S
H606   C791    1.111   .     S
C609   H612    1.110   .     S
C609   H611    1.111   .     S
C609   C752    1.522   .     S
C609   H796    1.111   .     S
H610   C981    1.111   1_545 S
C613   H614    1.108   .     S
C613   H615    1.109   .     S
C613   H678    1.099   .     S
H616   C737    1.099   1_455 S
C617   H618    1.110   .     S
C617   H619    1.108   .     S
C617   H744    1.099   1_455 S
H620   C679    1.099   .     S
C621   C627    1.438   .     S
C621   O661    1.306   .     A
C621   O659    1.292   .     A
C622   O662    1.306   .     A
C622   O660    1.292   .     A
C622   C628    1.438   .     S
C623   H655    1.076   .     S
C623   C644    1.417   .     A
C623   C625    1.386   .     A
C624   H656    1.076   .     S
C624   C626    1.386   .     A
C624   C643    1.417   .     A
C625   H647    1.085   .     S
C626   H648    1.085   .     S
C626   C84     1.389   1_556 S
C627   C814    1.365   .     S
C627   C853    1.522   .     S
C628   C999    1.365   1_545 S
C628   C1043   1.522   1_545 S
C629   O665    1.305   .     A
C629   C631    1.468   .     S
C629   O663    1.311   .     A
C630   C632    1.466   .     S
C630   O666    1.305   .     A
C630   O664    1.310   .     A
C631   C635    1.398   .     A
C631   C637    1.400   .     A
C632   C638    1.398   .     A
C632   C636    1.398   .     A
C633   C635    1.392   .     A
C633   C641    1.404   .     A
C634   C642    1.405   .     A
C634   C636    1.392   .     A
C634   H716    1.084   .     S
C635   H652    1.082   .     S
C636   H651    1.083   .     S
C637   H650    1.074   .     S
C637   C639    1.405   .     A
C638   H649    1.075   .     S
C638   C640    1.405   .     A
C639   C643    1.428   .     A
C639   C641    1.418   .     A
C640   C642    1.418   .     A
C640   C644    1.428   .     A
C641   C67     1.389   1_556 S
C643   C86     1.425   1_556 S
Cu645  O662    1.968   .     S
Cu645  N658    2.044   .     S
Cu645  O663    1.940   .     S
Cu645  O659    1.970   .     S
Cu645  Cu646   2.720   .     S
Cu645  O666    1.922   .     S
Cu646  N657    2.044   .     S
Cu646  O660    1.970   .     S
Cu646  O664    1.940   .     S
Cu646  O665    1.922   .     S
Cu646  O661    1.968   .     S
H653   C695    1.084   .     S
N657   C675    1.442   .     S
N657   N720    1.284   .     S
N658   C679    1.442   .     S
C667   H669    1.110   .     S
C667   H670    1.111   .     S
C667   C999    1.522   1_545 S
C667   H1040   1.111   1_545 S
H668   C853    1.111   .     S
C671   H674    1.110   .     S
C671   H673    1.111   .     S
C671   C814    1.522   .     S
C671   H858    1.111   .     S
H672   C1043   1.111   1_545 S
C675   H676    1.108   .     S
C675   H677    1.109   .     S
C675   H740    1.099   .     S
C679   H680    1.110   .     S
C679   H681    1.108   .     S
H682   C741    1.099   .     S
C683   C689    1.438   .     S
C683   O723    1.306   .     A
C683   O721    1.292   .     A
C684   O724    1.306   .     A
C684   O722    1.292   .     A
C684   C690    1.438   .     S
C685   H717    1.076   .     S
C685   C706    1.417   .     A
C685   C687    1.386   .     A
C686   H718    1.076   .     S
C686   C688    1.386   .     A
C686   C705    1.417   .     A
C687   H709    1.085   .     S
C688   H710    1.085   .     S
C688   C146    1.389   1_556 S
C689   C876    1.365   .     S
C689   C915    1.522   .     S
C690   C1061   1.365   1_545 S
C690   C1105   1.522   1_545 S
C691   O727    1.305   .     A
C691   C693    1.468   .     S
C691   O725    1.311   .     A
C692   C694    1.466   .     S
C692   O728    1.305   .     A
C692   O726    1.310   .     A
C693   C697    1.398   .     A
C693   C699    1.400   .     A
C694   C700    1.398   .     A
C694   C698    1.398   .     A
C695   C697    1.392   .     A
C695   C703    1.404   .     A
C696   C704    1.405   .     A
C696   C698    1.392   .     A
C696   H592    1.084   1_655 S
C697   H714    1.082   .     S
C698   H713    1.083   .     S
C699   H712    1.074   .     S
C699   C701    1.405   .     A
C700   H711    1.075   .     S
C700   C702    1.405   .     A
C701   C705    1.428   .     A
C701   C703    1.418   .     A
C702   C704    1.418   .     A
C702   C706    1.428   .     A
C703   C129    1.389   1_556 S
C705   C148    1.425   1_556 S
Cu707  O724    1.968   .     S
Cu707  N720    2.044   .     S
Cu707  O725    1.940   .     S
Cu707  O721    1.970   .     S
Cu707  Cu708   2.720   .     S
Cu707  O728    1.922   .     S
Cu708  N719    2.044   .     S
Cu708  O722    1.970   .     S
Cu708  O726    1.940   .     S
Cu708  O727    1.922   .     S
Cu708  O723    1.968   .     S
H715   C571    1.084   1_655 S
N719   C737    1.442   .     S
N719   N596    1.284   1_655 S
N720   C741    1.442   .     S
C729   H731    1.110   .     S
C729   H732    1.111   .     S
C729   C1061   1.522   1_545 S
C729   H1102   1.111   1_545 S
H730   C915    1.111   .     S
C733   H736    1.110   .     S
C733   H735    1.111   .     S
C733   C876    1.522   .     S
C733   H920    1.111   .     S
H734   C1105   1.111   1_545 S
C737   H738    1.108   .     S
C737   H739    1.109   .     S
C737   H616    1.099   1_655 S
C741   H742    1.110   .     S
C741   H743    1.108   .     S
H744   C617    1.099   1_655 S
C745   C751    1.438   .     S
C745   O785    1.306   .     A
C745   O783    1.292   .     A
C746   O786    1.306   .     A
C746   O784    1.292   .     A
C746   C752    1.438   .     S
C747   H779    1.076   .     S
C747   C768    1.417   .     A
C747   C749    1.386   .     A
C748   H780    1.076   .     S
C748   C750    1.386   .     A
C748   C767    1.417   .     A
C749   H771    1.085   .     S
C750   H772    1.085   .     S
C750   C208    1.389   1_556 S
C751   C938    1.365   .     S
C751   C977    1.522   .     S
C753   O789    1.305   .     A
C753   C755    1.468   .     S
C753   O787    1.311   .     A
C754   C756    1.466   .     S
C754   O790    1.305   .     A
C754   O788    1.310   .     A
C755   C759    1.398   .     A
C755   C761    1.400   .     A
C756   C762    1.398   .     A
C756   C760    1.398   .     A
C757   C759    1.392   .     A
C757   C765    1.404   .     A
C757   H901    1.084   1_455 S
C758   C766    1.405   .     A
C758   C760    1.392   .     A
C758   H840    1.084   .     S
C759   H776    1.082   .     S
C760   H775    1.083   .     S
C761   H774    1.074   .     S
C761   C763    1.405   .     A
C762   H773    1.075   .     S
C762   C764    1.405   .     A
C763   C767    1.428   .     A
C763   C765    1.418   .     A
C764   C766    1.418   .     A
C764   C768    1.428   .     A
C765   C191    1.389   1_556 S
C767   C210    1.425   1_556 S
Cu769  O786    1.968   .     S
Cu769  N782    2.044   .     S
Cu769  O787    1.940   .     S
Cu769  O783    1.970   .     S
Cu769  Cu770   2.720   .     S
Cu769  O790    1.922   .     S
Cu770  N781    2.044   .     S
Cu770  O784    1.970   .     S
Cu770  O788    1.940   .     S
Cu770  O789    1.922   .     S
Cu770  O785    1.968   .     S
H777   C819    1.084   .     S
H778   C882    1.084   1_455 S
N781   C799    1.442   .     S
N781   N844    1.284   .     S
N782   C803    1.442   .     S
N782   N905    1.284   1_455 S
C791   H793    1.110   .     S
C791   H794    1.111   .     S
H792   C977    1.111   .     S
C795   H798    1.110   .     S
C795   H797    1.111   .     S
C795   C938    1.522   .     S
C795   H982    1.111   .     S
C799   H800    1.108   .     S
C799   H801    1.109   .     S
C799   H864    1.099   .     S
H802   C923    1.099   1_455 S
C803   H804    1.110   .     S
C803   H805    1.108   .     S
C803   H930    1.099   1_455 S
H806   C865    1.099   .     S
C807   C813    1.438   .     S
C807   O847    1.306   .     A
C807   O845    1.292   .     A
C808   O848    1.306   .     A
C808   O846    1.292   .     A
C808   C814    1.438   .     S
C809   H841    1.076   .     S
C809   C830    1.417   .     A
C809   C811    1.386   .     A
C810   H842    1.076   .     S
C810   C812    1.386   .     A
C810   C829    1.417   .     A
C811   H833    1.085   .     S
C812   H834    1.085   .     S
C812   C270    1.389   1_556 S
C813   C1000   1.365   .     S
C813   C1039   1.522   .     S
C815   O851    1.305   .     A
C815   C817    1.468   .     S
C815   O849    1.311   .     A
C816   C818    1.466   .     S
C816   O852    1.305   .     A
C816   O850    1.310   .     A
C817   C821    1.398   .     A
C817   C823    1.400   .     A
C818   C824    1.398   .     A
C818   C822    1.398   .     A
C819   C821    1.392   .     A
C819   C827    1.404   .     A
C820   C828    1.405   .     A
C820   C822    1.392   .     A
C820   H902    1.084   .     S
C821   H838    1.082   .     S
C822   H837    1.083   .     S
C823   H836    1.074   .     S
C823   C825    1.405   .     A
C824   H835    1.075   .     S
C824   C826    1.405   .     A
C825   C829    1.428   .     A
C825   C827    1.418   .     A
C826   C828    1.418   .     A
C826   C830    1.428   .     A
C827   C253    1.389   1_556 S
C829   C272    1.425   1_556 S
Cu831  O848    1.968   .     S
Cu831  N844    2.044   .     S
Cu831  O849    1.940   .     S
Cu831  O845    1.970   .     S
Cu831  Cu832   2.720   .     S
Cu831  O852    1.922   .     S
Cu832  N843    2.044   .     S
Cu832  O846    1.970   .     S
Cu832  O850    1.940   .     S
Cu832  O851    1.922   .     S
Cu832  O847    1.968   .     S
H839   C881    1.084   .     S
N843   C861    1.442   .     S
N843   N906    1.284   .     S
N844   C865    1.442   .     S
C853   H855    1.110   .     S
C853   H856    1.111   .     S
H854   C1039   1.111   .     S
C857   H860    1.110   .     S
C857   H859    1.111   .     S
C857   C1000   1.522   .     S
C857   H1044   1.111   .     S
C861   H862    1.108   .     S
C861   H863    1.109   .     S
C861   H926    1.099   .     S
C865   H866    1.110   .     S
C865   H867    1.108   .     S
H868   C927    1.099   .     S
C869   C875    1.438   .     S
C869   O909    1.306   .     A
C869   O907    1.292   .     A
C870   O910    1.306   .     A
C870   O908    1.292   .     A
C870   C876    1.438   .     S
C871   H903    1.076   .     S
C871   C892    1.417   .     A
C871   C873    1.386   .     A
C872   H904    1.076   .     S
C872   C874    1.386   .     A
C872   C891    1.417   .     A
C873   H895    1.085   .     S
C874   H896    1.085   .     S
C874   C332    1.389   1_556 S
C875   C1062   1.365   .     S
C875   C1101   1.522   .     S
C877   O913    1.305   .     A
C877   C879    1.468   .     S
C877   O911    1.311   .     A
C878   C880    1.466   .     S
C878   O914    1.305   .     A
C878   O912    1.310   .     A
C879   C883    1.398   .     A
C879   C885    1.400   .     A
C880   C886    1.398   .     A
C880   C884    1.398   .     A
C881   C883    1.392   .     A
C881   C889    1.404   .     A
C882   C890    1.405   .     A
C882   C884    1.392   .     A
C882   H778    1.084   1_655 S
C883   H900    1.082   .     S
C884   H899    1.083   .     S
C885   H898    1.074   .     S
C885   C887    1.405   .     A
C886   H897    1.075   .     S
C886   C888    1.405   .     A
C887   C891    1.428   .     A
C887   C889    1.418   .     A
C888   C890    1.418   .     A
C888   C892    1.428   .     A
C889   C315    1.389   1_556 S
C891   C334    1.425   1_556 S
Cu893  O910    1.968   .     S
Cu893  N906    2.044   .     S
Cu893  O911    1.940   .     S
Cu893  O907    1.970   .     S
Cu893  Cu894   2.720   .     S
Cu893  O914    1.922   .     S
Cu894  N905    2.044   .     S
Cu894  O908    1.970   .     S
Cu894  O912    1.940   .     S
Cu894  O913    1.922   .     S
Cu894  O909    1.968   .     S
H901   C757    1.084   1_655 S
N905   C923    1.442   .     S
N905   N782    1.284   1_655 S
N906   C927    1.442   .     S
C915   H917    1.110   .     S
C915   H918    1.111   .     S
H916   C1101   1.111   .     S
C919   H922    1.110   .     S
C919   H921    1.111   .     S
C919   C1062   1.522   .     S
C919   H1106   1.111   .     S
C923   H924    1.108   .     S
C923   H925    1.109   .     S
C923   H802    1.099   1_655 S
C927   H928    1.110   .     S
C927   H929    1.108   .     S
H930   C803    1.099   1_655 S
C931   C937    1.438   .     S
C931   O971    1.306   .     A
C931   O969    1.292   .     A
C932   O972    1.306   .     A
C932   O970    1.292   .     A
C932   C938    1.438   .     S
C933   H965    1.076   .     S
C933   C954    1.417   .     A
C933   C935    1.386   .     A
C934   H966    1.076   .     S
C934   C936    1.386   .     A
C934   C953    1.417   .     A
C935   H957    1.085   .     S
C936   H958    1.085   .     S
C936   C394    1.389   1_556 S
C937   C566    1.365   1_565 S
C937   C605    1.522   1_565 S
C939   O975    1.305   .     A
C939   C941    1.468   .     S
C939   O973    1.311   .     A
C940   C942    1.466   .     S
C940   O976    1.305   .     A
C940   O974    1.310   .     A
C941   C945    1.398   .     A
C941   C947    1.400   .     A
C942   C948    1.398   .     A
C942   C946    1.398   .     A
C943   C945    1.392   .     A
C943   C951    1.404   .     A
C943   H1087   1.084   1_455 S
C944   C952    1.405   .     A
C944   C946    1.392   .     A
C944   H1026   1.084   .     S
C945   H962    1.082   .     S
C946   H961    1.083   .     S
C947   H960    1.074   .     S
C947   C949    1.405   .     A
C948   H959    1.075   .     S
C948   C950    1.405   .     A
C949   C953    1.428   .     A
C949   C951    1.418   .     A
C950   C952    1.418   .     A
C950   C954    1.428   .     A
C951   C377    1.389   1_556 S
C953   C396    1.425   1_556 S
Cu955  O972    1.968   .     S
Cu955  N968    2.044   .     S
Cu955  O973    1.940   .     S
Cu955  O969    1.970   .     S
Cu955  Cu956   2.720   .     S
Cu955  O976    1.922   .     S
Cu956  N967    2.044   .     S
Cu956  O970    1.970   .     S
Cu956  O974    1.940   .     S
Cu956  O975    1.922   .     S
Cu956  O971    1.968   .     S
H963   C1005   1.084   .     S
H964   C1068   1.084   1_455 S
N967   C985    1.442   .     S
N967   N1030   1.284   .     S
N968   C989    1.442   .     S
N968   N1091   1.284   1_455 S
C977   H979    1.110   .     S
C977   H980    1.111   .     S
H978   C605    1.111   1_565 S
C981   H984    1.110   .     S
C981   H983    1.111   .     S
C981   C566    1.522   1_565 S
C981   H610    1.111   1_565 S
C985   H986    1.108   .     S
C985   H987    1.109   .     S
C985   H1050   1.099   .     S
H988   C1109   1.099   1_455 S
C989   H990    1.110   .     S
C989   H991    1.108   .     S
C989   H1116   1.099   1_455 S
H992   C1051   1.099   .     S
C993   C999    1.438   .     S
C993   O1033   1.306   .     A
C993   O1031   1.292   .     A
C994   O1034   1.306   .     A
C994   O1032   1.292   .     A
C994   C1000   1.438   .     S
C995   H1027   1.076   .     S
C995   C1016   1.417   .     A
C995   C997    1.386   .     A
C996   H1028   1.076   .     S
C996   C998    1.386   .     A
C996   C1015   1.417   .     A
C997   H1019   1.085   .     S
C998   H1020   1.085   .     S
C998   C456    1.389   1_556 S
C999   C628    1.365   1_565 S
C999   C667    1.522   1_565 S
C1001  O1037   1.305   .     A
C1001  C1003   1.468   .     S
C1001  O1035   1.311   .     A
C1002  C1004   1.466   .     S
C1002  O1038   1.305   .     A
C1002  O1036   1.310   .     A
C1003  C1007   1.398   .     A
C1003  C1009   1.400   .     A
C1004  C1010   1.398   .     A
C1004  C1008   1.398   .     A
C1005  C1007   1.392   .     A
C1005  C1013   1.404   .     A
C1006  C1014   1.405   .     A
C1006  C1008   1.392   .     A
C1006  H1088   1.084   .     S
C1007  H1024   1.082   .     S
C1008  H1023   1.083   .     S
C1009  H1022   1.074   .     S
C1009  C1011   1.405   .     A
C1010  H1021   1.075   .     S
C1010  C1012   1.405   .     A
C1011  C1015   1.428   .     A
C1011  C1013   1.418   .     A
C1012  C1014   1.418   .     A
C1012  C1016   1.428   .     A
C1013  C439    1.389   1_556 S
C1015  C458    1.425   1_556 S
Cu1017 O1034   1.968   .     S
Cu1017 N1030   2.044   .     S
Cu1017 O1035   1.940   .     S
Cu1017 O1031   1.970   .     S
Cu1017 Cu1018  2.720   .     S
Cu1017 O1038   1.922   .     S
Cu1018 N1029   2.044   .     S
Cu1018 O1032   1.970   .     S
Cu1018 O1036   1.940   .     S
Cu1018 O1037   1.922   .     S
Cu1018 O1033   1.968   .     S
H1025  C1067   1.084   .     S
N1029  C1047   1.442   .     S
N1029  N1092   1.284   .     S
N1030  C1051   1.442   .     S
C1039  H1041   1.110   .     S
C1039  H1042   1.111   .     S
H1040  C667    1.111   1_565 S
C1043  H1046   1.110   .     S
C1043  H1045   1.111   .     S
C1043  C628    1.522   1_565 S
C1043  H672    1.111   1_565 S
C1047  H1048   1.108   .     S
C1047  H1049   1.109   .     S
C1047  H1112   1.099   .     S
C1051  H1052   1.110   .     S
C1051  H1053   1.108   .     S
H1054  C1113   1.099   .     S
C1055  C1061   1.438   .     S
C1055  O1095   1.306   .     A
C1055  O1093   1.292   .     A
C1056  O1096   1.306   .     A
C1056  O1094   1.292   .     A
C1056  C1062   1.438   .     S
C1057  H1089   1.076   .     S
C1057  C1078   1.417   .     A
C1057  C1059   1.386   .     A
C1058  H1090   1.076   .     S
C1058  C1060   1.386   .     A
C1058  C1077   1.417   .     A
C1059  H1081   1.085   .     S
C1060  H1082   1.085   .     S
C1060  C518    1.389   1_556 S
C1061  C690    1.365   1_565 S
C1061  C729    1.522   1_565 S
C1063  O1099   1.305   .     A
C1063  C1065   1.468   .     S
C1063  O1097   1.311   .     A
C1064  C1066   1.466   .     S
C1064  O1100   1.305   .     A
C1064  O1098   1.310   .     A
C1065  C1069   1.398   .     A
C1065  C1071   1.400   .     A
C1066  C1072   1.398   .     A
C1066  C1070   1.398   .     A
C1067  C1069   1.392   .     A
C1067  C1075   1.404   .     A
C1068  C1076   1.405   .     A
C1068  C1070   1.392   .     A
C1068  H964    1.084   1_655 S
C1069  H1086   1.082   .     S
C1070  H1085   1.083   .     S
C1071  H1084   1.074   .     S
C1071  C1073   1.405   .     A
C1072  H1083   1.075   .     S
C1072  C1074   1.405   .     A
C1073  C1077   1.428   .     A
C1073  C1075   1.418   .     A
C1074  C1076   1.418   .     A
C1074  C1078   1.428   .     A
C1075  C501    1.389   1_556 S
C1077  C520    1.425   1_556 S
Cu1079 O1096   1.968   .     S
Cu1079 N1092   2.044   .     S
Cu1079 O1097   1.940   .     S
Cu1079 O1093   1.970   .     S
Cu1079 Cu1080  2.720   .     S
Cu1079 O1100   1.922   .     S
Cu1080 N1091   2.044   .     S
Cu1080 O1094   1.970   .     S
Cu1080 O1098   1.940   .     S
Cu1080 O1099   1.922   .     S
Cu1080 O1095   1.968   .     S
H1087  C943    1.084   1_655 S
N1091  C1109   1.442   .     S
N1091  N968    1.284   1_655 S
N1092  C1113   1.442   .     S
C1101  H1103   1.110   .     S
C1101  H1104   1.111   .     S
H1102  C729    1.111   1_565 S
C1105  H1108   1.110   .     S
C1105  H1107   1.111   .     S
C1105  C690    1.522   1_565 S
C1105  H734    1.111   1_565 S
C1109  H1110   1.108   .     S
C1109  H1111   1.109   .     S
C1109  H988    1.099   1_655 S
C1113  H1114   1.110   .     S
C1113  H1115   1.108   .     S
H1116  C989    1.099   1_655 S
