data_str_m2_o1_o10_pcu_sym.128
_audit_creation_date              2020-01-03
_audit_creation_method            'Materials Studio'
_symmetry_space_group_name_H-M    'P1'
_symmetry_Int_Tables_number       1
_symmetry_cell_setting            triclinic
loop_
_symmetry_equiv_pos_as_xyz
  x,y,z
_cell_length_a                    26.1569
_cell_length_b                    32.4694
_cell_length_c                    28.5938
_cell_angle_alpha                 90.6009
_cell_angle_beta                  97.8740
_cell_angle_gamma                 89.9331
loop_
_atom_site_label
_atom_site_type_symbol
_atom_site_fract_x
_atom_site_fract_y
_atom_site_fract_z
_atom_site_U_iso_or_equiv
_atom_site_adp_type
_atom_site_occupancy
C1     C     0.16599   0.08746   0.16637   0.00000  Uiso   1.00
C2     C     0.16568   0.24600   0.16696   0.00000  Uiso   1.00
C3     C     0.06793   0.16654   0.15458   0.00000  Uiso   1.00
C4     C     0.26541   0.16656   0.17874   0.00000  Uiso   1.00
C5     C     0.01265   0.16626   0.14791   0.00000  Uiso   1.00
C6     C     0.32069   0.16643   0.18539   0.00000  Uiso   1.00
C7     C     0.13965   0.02069   0.12642   0.00000  Uiso   1.00
C8     C     0.17816   0.31344   0.20990   0.00000  Uiso   1.00
C9     C     0.14363   0.31134   0.12637   0.00000  Uiso   1.00
C10    C     0.18259   0.02244   0.20744   0.00000  Uiso   1.00
C11    C     0.16314   0.29074   0.16783   0.00000  Uiso   1.00
C12    C     0.16338   0.04297   0.16610   0.00000  Uiso   1.00
C13    C     0.13171   0.14366   0.02011   0.00000  Uiso   1.00
C14    C     0.20185   0.18946   0.31324   0.00000  Uiso   1.00
C15    C     0.13170   0.14368   0.30388   0.00000  Uiso   1.00
C16    C     0.20173   0.18956   0.02946   0.00000  Uiso   1.00
Cu17   Cu    0.16667   0.16667   0.21355   0.00000  Uiso   1.00
Cu18   Cu    0.16667   0.16666   0.11978   0.00000  Uiso   1.00
H19    H     0.12849   0.29425   0.09477   0.00000  Uiso   1.00
H20    H     0.19879   0.03936   0.23887   0.00000  Uiso   1.00
N21    N     0.16668   0.16668   0.28403   0.00000  Uiso   1.00
N22    N     0.16665   0.16666   0.04931   0.00000  Uiso   1.00
O23    O     0.16666   0.10655   0.20625   0.00000  Uiso   1.00
O24    O     0.16667   0.22678   0.12709   0.00000  Uiso   1.00
O25    O     0.16666   0.10654   0.12706   0.00000  Uiso   1.00
O26    O     0.16667   0.22679   0.20628   0.00000  Uiso   1.00
O27    O     0.09161   0.16667   0.19712   0.00000  Uiso   1.00
O28    O     0.24172   0.16666   0.13621   0.00000  Uiso   1.00
O29    O     0.09161   0.16666   0.11793   0.00000  Uiso   1.00
O30    O     0.24172   0.16667   0.21540   0.00000  Uiso   1.00
H31    H     0.32602   0.16601   0.11195   0.00000  Uiso   1.00
H32    H     0.00733   0.16661   0.22134   0.00000  Uiso   1.00
O33    O     0.11270   0.03967   0.08741   0.00000  Uiso   1.00
C34    C     0.06454   0.05450   0.09835   0.00000  Uiso   1.00
H35    H     0.04860   0.07547   0.06955   0.00000  Uiso   1.00
H36    H     0.06857   0.07328   0.13142   0.00000  Uiso   1.00
C37    C     0.02540   0.01962   0.10129   0.00000  Uiso   1.00
H38    H     0.02173   0.00053   0.06859   0.00000  Uiso   1.00
H39    H     0.03882   0.33287   0.13175   0.00000  Uiso   1.00
C40    C     0.30573   0.03680   0.10775   0.00000  Uiso   1.00
H41    H     0.30832   0.05569   0.14062   0.00000  Uiso   1.00
H42    H     0.27843   0.01101   0.11036   0.00000  Uiso   1.00
H43    H     0.29039   0.05611   0.07716   0.00000  Uiso   1.00
O44    O     0.18935   0.29502   0.25356   0.00000  Uiso   1.00
C45    C     0.14277   0.28955   0.27316   0.00000  Uiso   1.00
H46    H     0.14926   0.26462   0.29955   0.00000  Uiso   1.00
H47    H     0.11014   0.27907   0.24637   0.00000  Uiso   1.00
C48    C     0.12728   0.32859   0.29854   0.00000  Uiso   1.00
H49    H     0.15845   0.00390   0.32739   0.00000  Uiso   1.00
H50    H     0.12099   0.02121   0.27351   0.00000  Uiso   1.00
C51    C     0.07710   0.32189   0.31896   0.00000  Uiso   1.00
H52    H     0.04582   0.31219   0.29074   0.00000  Uiso   1.00
H53    H     0.06530   0.01789   0.00122   0.00000  Uiso   1.00
H54    H     0.08235   0.29797   0.01333   0.00000  Uiso   1.00
H55    H     0.10375   0.12518   0.03500   0.00000  Uiso   1.00
H56    H     0.22988   0.20791   0.29834   0.00000  Uiso   1.00
H57    H     0.10373   0.12516   0.28152   0.00000  Uiso   1.00
H58    H     0.22972   0.20805   0.05182   0.00000  Uiso   1.00
C59    C     0.49933   0.08746   0.16637   0.00000  Uiso   1.00
C60    C     0.49901   0.24600   0.16696   0.00000  Uiso   1.00
C61    C     0.40126   0.16654   0.15458   0.00000  Uiso   1.00
C62    C     0.59874   0.16656   0.17874   0.00000  Uiso   1.00
C63    C     0.34598   0.16626   0.14791   0.00000  Uiso   1.00
C64    C     0.65403   0.16643   0.18539   0.00000  Uiso   1.00
C65    C     0.47299   0.02069   0.12642   0.00000  Uiso   1.00
C66    C     0.51150   0.31344   0.20990   0.00000  Uiso   1.00
C67    C     0.47697   0.31134   0.12637   0.00000  Uiso   1.00
C68    C     0.51592   0.02244   0.20744   0.00000  Uiso   1.00
C69    C     0.49648   0.29074   0.16783   0.00000  Uiso   1.00
C70    C     0.49672   0.04297   0.16610   0.00000  Uiso   1.00
C71    C     0.46505   0.14366   0.02011   0.00000  Uiso   1.00
C72    C     0.53519   0.18946   0.31324   0.00000  Uiso   1.00
C73    C     0.46504   0.14368   0.30388   0.00000  Uiso   1.00
C74    C     0.53507   0.18956   0.02946   0.00000  Uiso   1.00
Cu75   Cu    0.50000   0.16667   0.21355   0.00000  Uiso   1.00
Cu76   Cu    0.50000   0.16666   0.11978   0.00000  Uiso   1.00
H77    H     0.46183   0.29425   0.09477   0.00000  Uiso   1.00
H78    H     0.53213   0.03936   0.23887   0.00000  Uiso   1.00
N79    N     0.50001   0.16668   0.28403   0.00000  Uiso   1.00
N80    N     0.49999   0.16666   0.04931   0.00000  Uiso   1.00
O81    O     0.50000   0.10655   0.20625   0.00000  Uiso   1.00
O82    O     0.50000   0.22678   0.12709   0.00000  Uiso   1.00
O83    O     0.50000   0.10654   0.12706   0.00000  Uiso   1.00
O84    O     0.50000   0.22679   0.20628   0.00000  Uiso   1.00
O85    O     0.42495   0.16667   0.19712   0.00000  Uiso   1.00
O86    O     0.57505   0.16666   0.13621   0.00000  Uiso   1.00
O87    O     0.42494   0.16666   0.11793   0.00000  Uiso   1.00
O88    O     0.57506   0.16667   0.21540   0.00000  Uiso   1.00
H89    H     0.65935   0.16601   0.11195   0.00000  Uiso   1.00
H90    H     0.34066   0.16661   0.22134   0.00000  Uiso   1.00
O91    O     0.44603   0.03967   0.08741   0.00000  Uiso   1.00
C92    C     0.39787   0.05450   0.09835   0.00000  Uiso   1.00
H93    H     0.38193   0.07547   0.06955   0.00000  Uiso   1.00
H94    H     0.40190   0.07328   0.13142   0.00000  Uiso   1.00
C95    C     0.35874   0.01962   0.10129   0.00000  Uiso   1.00
H96    H     0.35506   0.00053   0.06859   0.00000  Uiso   1.00
H97    H     0.37216   0.33287   0.13175   0.00000  Uiso   1.00
C98    C     0.63906   0.03680   0.10775   0.00000  Uiso   1.00
H99    H     0.64165   0.05569   0.14062   0.00000  Uiso   1.00
H100   H     0.61176   0.01101   0.11036   0.00000  Uiso   1.00
H101   H     0.62373   0.05611   0.07716   0.00000  Uiso   1.00
O102   O     0.52269   0.29502   0.25356   0.00000  Uiso   1.00
C103   C     0.47611   0.28955   0.27316   0.00000  Uiso   1.00
H104   H     0.48259   0.26462   0.29955   0.00000  Uiso   1.00
H105   H     0.44347   0.27907   0.24637   0.00000  Uiso   1.00
C106   C     0.46061   0.32859   0.29854   0.00000  Uiso   1.00
H107   H     0.49178   0.00390   0.32739   0.00000  Uiso   1.00
H108   H     0.45433   0.02121   0.27351   0.00000  Uiso   1.00
C109   C     0.41044   0.32189   0.31896   0.00000  Uiso   1.00
H110   H     0.37916   0.31219   0.29074   0.00000  Uiso   1.00
H111   H     0.39863   0.01789   0.00122   0.00000  Uiso   1.00
H112   H     0.41568   0.29797   0.01333   0.00000  Uiso   1.00
H113   H     0.43709   0.12518   0.03500   0.00000  Uiso   1.00
H114   H     0.56321   0.20791   0.29834   0.00000  Uiso   1.00
H115   H     0.43706   0.12516   0.28152   0.00000  Uiso   1.00
H116   H     0.56305   0.20805   0.05182   0.00000  Uiso   1.00
C117   C     0.83266   0.08746   0.16637   0.00000  Uiso   1.00
C118   C     0.83235   0.24600   0.16696   0.00000  Uiso   1.00
C119   C     0.73460   0.16654   0.15458   0.00000  Uiso   1.00
C120   C     0.93207   0.16656   0.17874   0.00000  Uiso   1.00
C121   C     0.67931   0.16626   0.14791   0.00000  Uiso   1.00
C122   C     0.98736   0.16643   0.18539   0.00000  Uiso   1.00
C123   C     0.80632   0.02069   0.12642   0.00000  Uiso   1.00
C124   C     0.84483   0.31344   0.20990   0.00000  Uiso   1.00
C125   C     0.81030   0.31134   0.12637   0.00000  Uiso   1.00
C126   C     0.84926   0.02244   0.20744   0.00000  Uiso   1.00
C127   C     0.82981   0.29074   0.16783   0.00000  Uiso   1.00
C128   C     0.83005   0.04297   0.16610   0.00000  Uiso   1.00
C129   C     0.79838   0.14366   0.02011   0.00000  Uiso   1.00
C130   C     0.86852   0.18946   0.31324   0.00000  Uiso   1.00
C131   C     0.79837   0.14368   0.30388   0.00000  Uiso   1.00
C132   C     0.86840   0.18956   0.02946   0.00000  Uiso   1.00
Cu133  Cu    0.83333   0.16667   0.21355   0.00000  Uiso   1.00
Cu134  Cu    0.83333   0.16666   0.11978   0.00000  Uiso   1.00
H135   H     0.79516   0.29425   0.09477   0.00000  Uiso   1.00
H136   H     0.86546   0.03936   0.23887   0.00000  Uiso   1.00
N137   N     0.83335   0.16668   0.28403   0.00000  Uiso   1.00
N138   N     0.83332   0.16666   0.04931   0.00000  Uiso   1.00
O139   O     0.83333   0.10655   0.20625   0.00000  Uiso   1.00
O140   O     0.83334   0.22678   0.12709   0.00000  Uiso   1.00
O141   O     0.83333   0.10654   0.12706   0.00000  Uiso   1.00
O142   O     0.83334   0.22679   0.20628   0.00000  Uiso   1.00
O143   O     0.75828   0.16667   0.19712   0.00000  Uiso   1.00
O144   O     0.90839   0.16666   0.13621   0.00000  Uiso   1.00
O145   O     0.75828   0.16666   0.11793   0.00000  Uiso   1.00
O146   O     0.90839   0.16667   0.21540   0.00000  Uiso   1.00
H147   H     0.99269   0.16601   0.11195   0.00000  Uiso   1.00
H148   H     0.67400   0.16661   0.22134   0.00000  Uiso   1.00
O149   O     0.77937   0.03967   0.08741   0.00000  Uiso   1.00
C150   C     0.73121   0.05450   0.09835   0.00000  Uiso   1.00
H151   H     0.71526   0.07547   0.06955   0.00000  Uiso   1.00
H152   H     0.73524   0.07328   0.13142   0.00000  Uiso   1.00
C153   C     0.69207   0.01962   0.10129   0.00000  Uiso   1.00
H154   H     0.68840   0.00053   0.06859   0.00000  Uiso   1.00
H155   H     0.70549   0.33287   0.13175   0.00000  Uiso   1.00
C156   C     0.97239   0.03680   0.10775   0.00000  Uiso   1.00
H157   H     0.97498   0.05569   0.14062   0.00000  Uiso   1.00
H158   H     0.94509   0.01101   0.11036   0.00000  Uiso   1.00
H159   H     0.95706   0.05611   0.07716   0.00000  Uiso   1.00
O160   O     0.85602   0.29502   0.25356   0.00000  Uiso   1.00
C161   C     0.80944   0.28955   0.27316   0.00000  Uiso   1.00
H162   H     0.81592   0.26462   0.29955   0.00000  Uiso   1.00
H163   H     0.77681   0.27907   0.24637   0.00000  Uiso   1.00
C164   C     0.79394   0.32859   0.29854   0.00000  Uiso   1.00
H165   H     0.82511   0.00390   0.32739   0.00000  Uiso   1.00
H166   H     0.78766   0.02121   0.27351   0.00000  Uiso   1.00
C167   C     0.74377   0.32189   0.31896   0.00000  Uiso   1.00
H168   H     0.71249   0.31219   0.29074   0.00000  Uiso   1.00
H169   H     0.73197   0.01789   0.00122   0.00000  Uiso   1.00
H170   H     0.74902   0.29797   0.01333   0.00000  Uiso   1.00
H171   H     0.77042   0.12518   0.03500   0.00000  Uiso   1.00
H172   H     0.89655   0.20791   0.29834   0.00000  Uiso   1.00
H173   H     0.77040   0.12516   0.28152   0.00000  Uiso   1.00
H174   H     0.89639   0.20805   0.05182   0.00000  Uiso   1.00
C175   C     0.16599   0.42080   0.16637   0.00000  Uiso   1.00
C176   C     0.16568   0.57934   0.16696   0.00000  Uiso   1.00
C177   C     0.06793   0.49987   0.15458   0.00000  Uiso   1.00
C178   C     0.26541   0.49989   0.17874   0.00000  Uiso   1.00
C179   C     0.01265   0.49960   0.14791   0.00000  Uiso   1.00
C180   C     0.32069   0.49976   0.18539   0.00000  Uiso   1.00
C181   C     0.13965   0.35402   0.12642   0.00000  Uiso   1.00
C182   C     0.17816   0.64677   0.20990   0.00000  Uiso   1.00
C183   C     0.14363   0.64467   0.12637   0.00000  Uiso   1.00
C184   C     0.18259   0.35577   0.20744   0.00000  Uiso   1.00
C185   C     0.16314   0.62407   0.16783   0.00000  Uiso   1.00
C186   C     0.16338   0.37631   0.16610   0.00000  Uiso   1.00
C187   C     0.13171   0.47699   0.02011   0.00000  Uiso   1.00
C188   C     0.20185   0.52279   0.31324   0.00000  Uiso   1.00
C189   C     0.13170   0.47701   0.30388   0.00000  Uiso   1.00
C190   C     0.20173   0.52289   0.02946   0.00000  Uiso   1.00
Cu191  Cu    0.16667   0.50001   0.21355   0.00000  Uiso   1.00
Cu192  Cu    0.16667   0.49999   0.11978   0.00000  Uiso   1.00
H193   H     0.12849   0.62758   0.09477   0.00000  Uiso   1.00
H194   H     0.19879   0.37270   0.23887   0.00000  Uiso   1.00
N195   N     0.16668   0.50001   0.28403   0.00000  Uiso   1.00
N196   N     0.16665   0.49999   0.04931   0.00000  Uiso   1.00
O197   O     0.16666   0.43989   0.20625   0.00000  Uiso   1.00
O198   O     0.16667   0.56011   0.12709   0.00000  Uiso   1.00
O199   O     0.16666   0.43988   0.12706   0.00000  Uiso   1.00
O200   O     0.16667   0.56012   0.20628   0.00000  Uiso   1.00
O201   O     0.09161   0.50000   0.19712   0.00000  Uiso   1.00
O202   O     0.24172   0.50000   0.13621   0.00000  Uiso   1.00
O203   O     0.09161   0.49999   0.11793   0.00000  Uiso   1.00
O204   O     0.24172   0.50001   0.21540   0.00000  Uiso   1.00
H205   H     0.32602   0.49935   0.11195   0.00000  Uiso   1.00
H206   H     0.00733   0.49994   0.22134   0.00000  Uiso   1.00
O207   O     0.11270   0.37300   0.08741   0.00000  Uiso   1.00
C208   C     0.06454   0.38783   0.09835   0.00000  Uiso   1.00
H209   H     0.04860   0.40881   0.06955   0.00000  Uiso   1.00
H210   H     0.06857   0.40661   0.13142   0.00000  Uiso   1.00
C211   C     0.02540   0.35295   0.10129   0.00000  Uiso   1.00
H212   H     0.02173   0.33386   0.06859   0.00000  Uiso   1.00
H213   H     0.03882   0.66621   0.13175   0.00000  Uiso   1.00
C214   C     0.30573   0.37013   0.10775   0.00000  Uiso   1.00
H215   H     0.30832   0.38902   0.14062   0.00000  Uiso   1.00
H216   H     0.27843   0.34435   0.11036   0.00000  Uiso   1.00
H217   H     0.29039   0.38945   0.07716   0.00000  Uiso   1.00
O218   O     0.18935   0.62836   0.25356   0.00000  Uiso   1.00
C219   C     0.14277   0.62288   0.27316   0.00000  Uiso   1.00
H220   H     0.14926   0.59796   0.29955   0.00000  Uiso   1.00
H221   H     0.11014   0.61241   0.24637   0.00000  Uiso   1.00
C222   C     0.12728   0.66192   0.29854   0.00000  Uiso   1.00
H223   H     0.15845   0.33723   0.32739   0.00000  Uiso   1.00
H224   H     0.12099   0.35454   0.27351   0.00000  Uiso   1.00
C225   C     0.07710   0.65522   0.31896   0.00000  Uiso   1.00
H226   H     0.04582   0.64552   0.29074   0.00000  Uiso   1.00
H227   H     0.06530   0.35122   0.00122   0.00000  Uiso   1.00
H228   H     0.08235   0.63131   0.01333   0.00000  Uiso   1.00
H229   H     0.10375   0.45851   0.03500   0.00000  Uiso   1.00
H230   H     0.22988   0.54125   0.29834   0.00000  Uiso   1.00
H231   H     0.10373   0.45850   0.28152   0.00000  Uiso   1.00
H232   H     0.22972   0.54138   0.05182   0.00000  Uiso   1.00
C233   C     0.49933   0.42080   0.16637   0.00000  Uiso   1.00
C234   C     0.49901   0.57934   0.16696   0.00000  Uiso   1.00
C235   C     0.40126   0.49987   0.15458   0.00000  Uiso   1.00
C236   C     0.59874   0.49989   0.17874   0.00000  Uiso   1.00
C237   C     0.34598   0.49960   0.14791   0.00000  Uiso   1.00
C238   C     0.65403   0.49976   0.18539   0.00000  Uiso   1.00
C239   C     0.47299   0.35402   0.12642   0.00000  Uiso   1.00
C240   C     0.51150   0.64677   0.20990   0.00000  Uiso   1.00
C241   C     0.47697   0.64467   0.12637   0.00000  Uiso   1.00
C242   C     0.51592   0.35577   0.20744   0.00000  Uiso   1.00
C243   C     0.49648   0.62407   0.16783   0.00000  Uiso   1.00
C244   C     0.49672   0.37631   0.16610   0.00000  Uiso   1.00
C245   C     0.46505   0.47699   0.02011   0.00000  Uiso   1.00
C246   C     0.53519   0.52279   0.31324   0.00000  Uiso   1.00
C247   C     0.46504   0.47701   0.30388   0.00000  Uiso   1.00
C248   C     0.53507   0.52289   0.02946   0.00000  Uiso   1.00
Cu249  Cu    0.50000   0.50001   0.21355   0.00000  Uiso   1.00
Cu250  Cu    0.50000   0.49999   0.11978   0.00000  Uiso   1.00
H251   H     0.46183   0.62758   0.09477   0.00000  Uiso   1.00
H252   H     0.53213   0.37270   0.23887   0.00000  Uiso   1.00
N253   N     0.50001   0.50001   0.28403   0.00000  Uiso   1.00
N254   N     0.49999   0.49999   0.04931   0.00000  Uiso   1.00
O255   O     0.50000   0.43989   0.20625   0.00000  Uiso   1.00
O256   O     0.50000   0.56011   0.12709   0.00000  Uiso   1.00
O257   O     0.50000   0.43988   0.12706   0.00000  Uiso   1.00
O258   O     0.50000   0.56012   0.20628   0.00000  Uiso   1.00
O259   O     0.42495   0.50000   0.19712   0.00000  Uiso   1.00
O260   O     0.57505   0.50000   0.13621   0.00000  Uiso   1.00
O261   O     0.42494   0.49999   0.11793   0.00000  Uiso   1.00
O262   O     0.57506   0.50001   0.21540   0.00000  Uiso   1.00
H263   H     0.65935   0.49935   0.11195   0.00000  Uiso   1.00
H264   H     0.34066   0.49994   0.22134   0.00000  Uiso   1.00
O265   O     0.44603   0.37300   0.08741   0.00000  Uiso   1.00
C266   C     0.39787   0.38783   0.09835   0.00000  Uiso   1.00
H267   H     0.38193   0.40881   0.06955   0.00000  Uiso   1.00
H268   H     0.40190   0.40661   0.13142   0.00000  Uiso   1.00
C269   C     0.35874   0.35295   0.10129   0.00000  Uiso   1.00
H270   H     0.35506   0.33386   0.06859   0.00000  Uiso   1.00
H271   H     0.37216   0.66621   0.13175   0.00000  Uiso   1.00
C272   C     0.63906   0.37013   0.10775   0.00000  Uiso   1.00
H273   H     0.64165   0.38902   0.14062   0.00000  Uiso   1.00
H274   H     0.61176   0.34435   0.11036   0.00000  Uiso   1.00
H275   H     0.62373   0.38945   0.07716   0.00000  Uiso   1.00
O276   O     0.52269   0.62836   0.25356   0.00000  Uiso   1.00
C277   C     0.47611   0.62288   0.27316   0.00000  Uiso   1.00
H278   H     0.48259   0.59796   0.29955   0.00000  Uiso   1.00
H279   H     0.44347   0.61241   0.24637   0.00000  Uiso   1.00
C280   C     0.46061   0.66192   0.29854   0.00000  Uiso   1.00
H281   H     0.49178   0.33723   0.32739   0.00000  Uiso   1.00
H282   H     0.45433   0.35454   0.27351   0.00000  Uiso   1.00
C283   C     0.41044   0.65522   0.31896   0.00000  Uiso   1.00
H284   H     0.37916   0.64552   0.29074   0.00000  Uiso   1.00
H285   H     0.39863   0.35122   0.00122   0.00000  Uiso   1.00
H286   H     0.41568   0.63131   0.01333   0.00000  Uiso   1.00
H287   H     0.43709   0.45851   0.03500   0.00000  Uiso   1.00
H288   H     0.56321   0.54125   0.29834   0.00000  Uiso   1.00
H289   H     0.43706   0.45850   0.28152   0.00000  Uiso   1.00
H290   H     0.56305   0.54138   0.05182   0.00000  Uiso   1.00
C291   C     0.83266   0.42080   0.16637   0.00000  Uiso   1.00
C292   C     0.83235   0.57934   0.16696   0.00000  Uiso   1.00
C293   C     0.73460   0.49987   0.15458   0.00000  Uiso   1.00
C294   C     0.93207   0.49989   0.17874   0.00000  Uiso   1.00
C295   C     0.67931   0.49960   0.14791   0.00000  Uiso   1.00
C296   C     0.98736   0.49976   0.18539   0.00000  Uiso   1.00
C297   C     0.80632   0.35402   0.12642   0.00000  Uiso   1.00
C298   C     0.84483   0.64677   0.20990   0.00000  Uiso   1.00
C299   C     0.81030   0.64467   0.12637   0.00000  Uiso   1.00
C300   C     0.84926   0.35577   0.20744   0.00000  Uiso   1.00
C301   C     0.82981   0.62407   0.16783   0.00000  Uiso   1.00
C302   C     0.83005   0.37631   0.16610   0.00000  Uiso   1.00
C303   C     0.79838   0.47699   0.02011   0.00000  Uiso   1.00
C304   C     0.86852   0.52279   0.31324   0.00000  Uiso   1.00
C305   C     0.79837   0.47701   0.30388   0.00000  Uiso   1.00
C306   C     0.86840   0.52289   0.02946   0.00000  Uiso   1.00
Cu307  Cu    0.83333   0.50001   0.21355   0.00000  Uiso   1.00
Cu308  Cu    0.83333   0.49999   0.11978   0.00000  Uiso   1.00
H309   H     0.79516   0.62758   0.09477   0.00000  Uiso   1.00
H310   H     0.86546   0.37270   0.23887   0.00000  Uiso   1.00
N311   N     0.83335   0.50001   0.28403   0.00000  Uiso   1.00
N312   N     0.83332   0.49999   0.04931   0.00000  Uiso   1.00
O313   O     0.83333   0.43989   0.20625   0.00000  Uiso   1.00
O314   O     0.83334   0.56011   0.12709   0.00000  Uiso   1.00
O315   O     0.83333   0.43988   0.12706   0.00000  Uiso   1.00
O316   O     0.83334   0.56012   0.20628   0.00000  Uiso   1.00
O317   O     0.75828   0.50000   0.19712   0.00000  Uiso   1.00
O318   O     0.90839   0.50000   0.13621   0.00000  Uiso   1.00
O319   O     0.75828   0.49999   0.11793   0.00000  Uiso   1.00
O320   O     0.90839   0.50001   0.21540   0.00000  Uiso   1.00
H321   H     0.99269   0.49935   0.11195   0.00000  Uiso   1.00
H322   H     0.67400   0.49994   0.22134   0.00000  Uiso   1.00
O323   O     0.77937   0.37300   0.08741   0.00000  Uiso   1.00
C324   C     0.73121   0.38783   0.09835   0.00000  Uiso   1.00
H325   H     0.71526   0.40881   0.06955   0.00000  Uiso   1.00
H326   H     0.73524   0.40661   0.13142   0.00000  Uiso   1.00
C327   C     0.69207   0.35295   0.10129   0.00000  Uiso   1.00
H328   H     0.68840   0.33386   0.06859   0.00000  Uiso   1.00
H329   H     0.70549   0.66621   0.13175   0.00000  Uiso   1.00
C330   C     0.97239   0.37013   0.10775   0.00000  Uiso   1.00
H331   H     0.97498   0.38902   0.14062   0.00000  Uiso   1.00
H332   H     0.94509   0.34435   0.11036   0.00000  Uiso   1.00
H333   H     0.95706   0.38945   0.07716   0.00000  Uiso   1.00
O334   O     0.85602   0.62836   0.25356   0.00000  Uiso   1.00
C335   C     0.80944   0.62288   0.27316   0.00000  Uiso   1.00
H336   H     0.81592   0.59796   0.29955   0.00000  Uiso   1.00
H337   H     0.77681   0.61241   0.24637   0.00000  Uiso   1.00
C338   C     0.79394   0.66192   0.29854   0.00000  Uiso   1.00
H339   H     0.82511   0.33723   0.32739   0.00000  Uiso   1.00
H340   H     0.78766   0.35454   0.27351   0.00000  Uiso   1.00
C341   C     0.74377   0.65522   0.31896   0.00000  Uiso   1.00
H342   H     0.71249   0.64552   0.29074   0.00000  Uiso   1.00
H343   H     0.73197   0.35122   0.00122   0.00000  Uiso   1.00
H344   H     0.74902   0.63131   0.01333   0.00000  Uiso   1.00
H345   H     0.77042   0.45851   0.03500   0.00000  Uiso   1.00
H346   H     0.89655   0.54125   0.29834   0.00000  Uiso   1.00
H347   H     0.77040   0.45850   0.28152   0.00000  Uiso   1.00
H348   H     0.89639   0.54138   0.05182   0.00000  Uiso   1.00
C349   C     0.16599   0.75413   0.16637   0.00000  Uiso   1.00
C350   C     0.16568   0.91267   0.16696   0.00000  Uiso   1.00
C351   C     0.06793   0.83320   0.15458   0.00000  Uiso   1.00
C352   C     0.26541   0.83323   0.17874   0.00000  Uiso   1.00
C353   C     0.01265   0.83293   0.14791   0.00000  Uiso   1.00
C354   C     0.32069   0.83310   0.18539   0.00000  Uiso   1.00
C355   C     0.13965   0.68735   0.12642   0.00000  Uiso   1.00
C356   C     0.17816   0.98010   0.20990   0.00000  Uiso   1.00
C357   C     0.14363   0.97800   0.12637   0.00000  Uiso   1.00
C358   C     0.18259   0.68911   0.20744   0.00000  Uiso   1.00
C359   C     0.16314   0.95741   0.16783   0.00000  Uiso   1.00
C360   C     0.16338   0.70964   0.16610   0.00000  Uiso   1.00
C361   C     0.13171   0.81032   0.02011   0.00000  Uiso   1.00
C362   C     0.20185   0.85612   0.31324   0.00000  Uiso   1.00
C363   C     0.13170   0.81034   0.30388   0.00000  Uiso   1.00
C364   C     0.20173   0.85622   0.02946   0.00000  Uiso   1.00
Cu365  Cu    0.16667   0.83334   0.21355   0.00000  Uiso   1.00
Cu366  Cu    0.16667   0.83333   0.11978   0.00000  Uiso   1.00
H367   H     0.12849   0.96092   0.09477   0.00000  Uiso   1.00
H368   H     0.19879   0.70603   0.23887   0.00000  Uiso   1.00
N369   N     0.16668   0.83334   0.28403   0.00000  Uiso   1.00
N370   N     0.16665   0.83332   0.04931   0.00000  Uiso   1.00
O371   O     0.16666   0.77322   0.20625   0.00000  Uiso   1.00
O372   O     0.16667   0.89345   0.12709   0.00000  Uiso   1.00
O373   O     0.16666   0.77321   0.12706   0.00000  Uiso   1.00
O374   O     0.16667   0.89346   0.20628   0.00000  Uiso   1.00
O375   O     0.09161   0.83334   0.19712   0.00000  Uiso   1.00
O376   O     0.24172   0.83333   0.13621   0.00000  Uiso   1.00
O377   O     0.09161   0.83333   0.11793   0.00000  Uiso   1.00
O378   O     0.24172   0.83334   0.21540   0.00000  Uiso   1.00
H379   H     0.32602   0.83268   0.11195   0.00000  Uiso   1.00
H380   H     0.00733   0.83327   0.22134   0.00000  Uiso   1.00
O381   O     0.11270   0.70633   0.08741   0.00000  Uiso   1.00
C382   C     0.06454   0.72117   0.09835   0.00000  Uiso   1.00
H383   H     0.04860   0.74214   0.06955   0.00000  Uiso   1.00
H384   H     0.06857   0.73995   0.13142   0.00000  Uiso   1.00
C385   C     0.02540   0.68629   0.10129   0.00000  Uiso   1.00
H386   H     0.02173   0.66720   0.06859   0.00000  Uiso   1.00
H387   H     0.03882   0.99954   0.13175   0.00000  Uiso   1.00
C388   C     0.30573   0.70347   0.10775   0.00000  Uiso   1.00
H389   H     0.30832   0.72236   0.14062   0.00000  Uiso   1.00
H390   H     0.27843   0.67768   0.11036   0.00000  Uiso   1.00
H391   H     0.29039   0.72278   0.07716   0.00000  Uiso   1.00
O392   O     0.18935   0.96169   0.25356   0.00000  Uiso   1.00
C393   C     0.14277   0.95622   0.27316   0.00000  Uiso   1.00
H394   H     0.14926   0.93129   0.29955   0.00000  Uiso   1.00
H395   H     0.11014   0.94574   0.24637   0.00000  Uiso   1.00
C396   C     0.12728   0.99525   0.29854   0.00000  Uiso   1.00
H397   H     0.15845   0.67056   0.32739   0.00000  Uiso   1.00
H398   H     0.12099   0.68787   0.27351   0.00000  Uiso   1.00
C399   C     0.07710   0.98856   0.31896   0.00000  Uiso   1.00
H400   H     0.04582   0.97886   0.29074   0.00000  Uiso   1.00
H401   H     0.06530   0.68456   0.00122   0.00000  Uiso   1.00
H402   H     0.08235   0.96464   0.01333   0.00000  Uiso   1.00
H403   H     0.10375   0.79185   0.03500   0.00000  Uiso   1.00
H404   H     0.22988   0.87458   0.29834   0.00000  Uiso   1.00
H405   H     0.10373   0.79183   0.28152   0.00000  Uiso   1.00
H406   H     0.22972   0.87472   0.05182   0.00000  Uiso   1.00
C407   C     0.49933   0.75413   0.16637   0.00000  Uiso   1.00
C408   C     0.49901   0.91267   0.16696   0.00000  Uiso   1.00
C409   C     0.40126   0.83320   0.15458   0.00000  Uiso   1.00
C410   C     0.59874   0.83323   0.17874   0.00000  Uiso   1.00
C411   C     0.34598   0.83293   0.14791   0.00000  Uiso   1.00
C412   C     0.65403   0.83310   0.18539   0.00000  Uiso   1.00
C413   C     0.47299   0.68735   0.12642   0.00000  Uiso   1.00
C414   C     0.51150   0.98010   0.20990   0.00000  Uiso   1.00
C415   C     0.47697   0.97800   0.12637   0.00000  Uiso   1.00
C416   C     0.51592   0.68911   0.20744   0.00000  Uiso   1.00
C417   C     0.49648   0.95741   0.16783   0.00000  Uiso   1.00
C418   C     0.49672   0.70964   0.16610   0.00000  Uiso   1.00
C419   C     0.46505   0.81032   0.02011   0.00000  Uiso   1.00
C420   C     0.53519   0.85612   0.31324   0.00000  Uiso   1.00
C421   C     0.46504   0.81034   0.30388   0.00000  Uiso   1.00
C422   C     0.53507   0.85622   0.02946   0.00000  Uiso   1.00
Cu423  Cu    0.50000   0.83334   0.21355   0.00000  Uiso   1.00
Cu424  Cu    0.50000   0.83333   0.11978   0.00000  Uiso   1.00
H425   H     0.46183   0.96092   0.09477   0.00000  Uiso   1.00
H426   H     0.53213   0.70603   0.23887   0.00000  Uiso   1.00
N427   N     0.50001   0.83334   0.28403   0.00000  Uiso   1.00
N428   N     0.49999   0.83332   0.04931   0.00000  Uiso   1.00
O429   O     0.50000   0.77322   0.20625   0.00000  Uiso   1.00
O430   O     0.50000   0.89345   0.12709   0.00000  Uiso   1.00
O431   O     0.50000   0.77321   0.12706   0.00000  Uiso   1.00
O432   O     0.50000   0.89346   0.20628   0.00000  Uiso   1.00
O433   O     0.42495   0.83334   0.19712   0.00000  Uiso   1.00
O434   O     0.57505   0.83333   0.13621   0.00000  Uiso   1.00
O435   O     0.42494   0.83333   0.11793   0.00000  Uiso   1.00
O436   O     0.57506   0.83334   0.21540   0.00000  Uiso   1.00
H437   H     0.65935   0.83268   0.11195   0.00000  Uiso   1.00
H438   H     0.34066   0.83327   0.22134   0.00000  Uiso   1.00
O439   O     0.44603   0.70633   0.08741   0.00000  Uiso   1.00
C440   C     0.39787   0.72117   0.09835   0.00000  Uiso   1.00
H441   H     0.38193   0.74214   0.06955   0.00000  Uiso   1.00
H442   H     0.40190   0.73995   0.13142   0.00000  Uiso   1.00
C443   C     0.35874   0.68629   0.10129   0.00000  Uiso   1.00
H444   H     0.35506   0.66720   0.06859   0.00000  Uiso   1.00
H445   H     0.37216   0.99954   0.13175   0.00000  Uiso   1.00
C446   C     0.63906   0.70347   0.10775   0.00000  Uiso   1.00
H447   H     0.64165   0.72236   0.14062   0.00000  Uiso   1.00
H448   H     0.61176   0.67768   0.11036   0.00000  Uiso   1.00
H449   H     0.62373   0.72278   0.07716   0.00000  Uiso   1.00
O450   O     0.52269   0.96169   0.25356   0.00000  Uiso   1.00
C451   C     0.47611   0.95622   0.27316   0.00000  Uiso   1.00
H452   H     0.48259   0.93129   0.29955   0.00000  Uiso   1.00
H453   H     0.44347   0.94574   0.24637   0.00000  Uiso   1.00
C454   C     0.46061   0.99525   0.29854   0.00000  Uiso   1.00
H455   H     0.49178   0.67056   0.32739   0.00000  Uiso   1.00
H456   H     0.45433   0.68787   0.27351   0.00000  Uiso   1.00
C457   C     0.41044   0.98856   0.31896   0.00000  Uiso   1.00
H458   H     0.37916   0.97886   0.29074   0.00000  Uiso   1.00
H459   H     0.39863   0.68456   0.00122   0.00000  Uiso   1.00
H460   H     0.41568   0.96464   0.01333   0.00000  Uiso   1.00
H461   H     0.43709   0.79185   0.03500   0.00000  Uiso   1.00
H462   H     0.56321   0.87458   0.29834   0.00000  Uiso   1.00
H463   H     0.43706   0.79183   0.28152   0.00000  Uiso   1.00
H464   H     0.56305   0.87472   0.05182   0.00000  Uiso   1.00
C465   C     0.83266   0.75413   0.16637   0.00000  Uiso   1.00
C466   C     0.83235   0.91267   0.16696   0.00000  Uiso   1.00
C467   C     0.73460   0.83320   0.15458   0.00000  Uiso   1.00
C468   C     0.93207   0.83323   0.17874   0.00000  Uiso   1.00
C469   C     0.67931   0.83293   0.14791   0.00000  Uiso   1.00
C470   C     0.98736   0.83310   0.18539   0.00000  Uiso   1.00
C471   C     0.80632   0.68735   0.12642   0.00000  Uiso   1.00
C472   C     0.84483   0.98010   0.20990   0.00000  Uiso   1.00
C473   C     0.81030   0.97800   0.12637   0.00000  Uiso   1.00
C474   C     0.84926   0.68911   0.20744   0.00000  Uiso   1.00
C475   C     0.82981   0.95741   0.16783   0.00000  Uiso   1.00
C476   C     0.83005   0.70964   0.16610   0.00000  Uiso   1.00
C477   C     0.79838   0.81032   0.02011   0.00000  Uiso   1.00
C478   C     0.86852   0.85612   0.31324   0.00000  Uiso   1.00
C479   C     0.79837   0.81034   0.30388   0.00000  Uiso   1.00
C480   C     0.86840   0.85622   0.02946   0.00000  Uiso   1.00
Cu481  Cu    0.83333   0.83334   0.21355   0.00000  Uiso   1.00
Cu482  Cu    0.83333   0.83333   0.11978   0.00000  Uiso   1.00
H483   H     0.79516   0.96092   0.09477   0.00000  Uiso   1.00
H484   H     0.86546   0.70603   0.23887   0.00000  Uiso   1.00
N485   N     0.83335   0.83334   0.28403   0.00000  Uiso   1.00
N486   N     0.83332   0.83332   0.04931   0.00000  Uiso   1.00
O487   O     0.83333   0.77322   0.20625   0.00000  Uiso   1.00
O488   O     0.83334   0.89345   0.12709   0.00000  Uiso   1.00
O489   O     0.83333   0.77321   0.12706   0.00000  Uiso   1.00
O490   O     0.83334   0.89346   0.20628   0.00000  Uiso   1.00
O491   O     0.75828   0.83334   0.19712   0.00000  Uiso   1.00
O492   O     0.90839   0.83333   0.13621   0.00000  Uiso   1.00
O493   O     0.75828   0.83333   0.11793   0.00000  Uiso   1.00
O494   O     0.90839   0.83334   0.21540   0.00000  Uiso   1.00
H495   H     0.99269   0.83268   0.11195   0.00000  Uiso   1.00
H496   H     0.67400   0.83327   0.22134   0.00000  Uiso   1.00
O497   O     0.77937   0.70633   0.08741   0.00000  Uiso   1.00
C498   C     0.73121   0.72117   0.09835   0.00000  Uiso   1.00
H499   H     0.71526   0.74214   0.06955   0.00000  Uiso   1.00
H500   H     0.73524   0.73995   0.13142   0.00000  Uiso   1.00
C501   C     0.69207   0.68629   0.10129   0.00000  Uiso   1.00
H502   H     0.68840   0.66720   0.06859   0.00000  Uiso   1.00
H503   H     0.70549   0.99954   0.13175   0.00000  Uiso   1.00
C504   C     0.97239   0.70347   0.10775   0.00000  Uiso   1.00
H505   H     0.97498   0.72236   0.14062   0.00000  Uiso   1.00
H506   H     0.94509   0.67768   0.11036   0.00000  Uiso   1.00
H507   H     0.95706   0.72278   0.07716   0.00000  Uiso   1.00
O508   O     0.85602   0.96169   0.25356   0.00000  Uiso   1.00
C509   C     0.80944   0.95622   0.27316   0.00000  Uiso   1.00
H510   H     0.81592   0.93129   0.29955   0.00000  Uiso   1.00
H511   H     0.77681   0.94574   0.24637   0.00000  Uiso   1.00
C512   C     0.79394   0.99525   0.29854   0.00000  Uiso   1.00
H513   H     0.82511   0.67056   0.32739   0.00000  Uiso   1.00
H514   H     0.78766   0.68787   0.27351   0.00000  Uiso   1.00
C515   C     0.74377   0.98856   0.31896   0.00000  Uiso   1.00
H516   H     0.71249   0.97886   0.29074   0.00000  Uiso   1.00
H517   H     0.73197   0.68456   0.00122   0.00000  Uiso   1.00
H518   H     0.74902   0.96464   0.01333   0.00000  Uiso   1.00
H519   H     0.77042   0.79185   0.03500   0.00000  Uiso   1.00
H520   H     0.89655   0.87458   0.29834   0.00000  Uiso   1.00
H521   H     0.77040   0.79183   0.28152   0.00000  Uiso   1.00
H522   H     0.89639   0.87472   0.05182   0.00000  Uiso   1.00
C523   C     0.16599   0.08746   0.49970   0.00000  Uiso   1.00
C524   C     0.16568   0.24600   0.50030   0.00000  Uiso   1.00
C525   C     0.06793   0.16654   0.48792   0.00000  Uiso   1.00
C526   C     0.26541   0.16656   0.51207   0.00000  Uiso   1.00
C527   C     0.01265   0.16626   0.48124   0.00000  Uiso   1.00
C528   C     0.32069   0.16643   0.51872   0.00000  Uiso   1.00
C529   C     0.13965   0.02069   0.45976   0.00000  Uiso   1.00
C530   C     0.17816   0.31344   0.54323   0.00000  Uiso   1.00
C531   C     0.14363   0.31134   0.45971   0.00000  Uiso   1.00
C532   C     0.18259   0.02244   0.54077   0.00000  Uiso   1.00
C533   C     0.16314   0.29074   0.50116   0.00000  Uiso   1.00
C534   C     0.16338   0.04297   0.49944   0.00000  Uiso   1.00
C535   C     0.13171   0.14366   0.35345   0.00000  Uiso   1.00
C536   C     0.20185   0.18946   0.64657   0.00000  Uiso   1.00
C537   C     0.13170   0.14368   0.63721   0.00000  Uiso   1.00
C538   C     0.20173   0.18956   0.36279   0.00000  Uiso   1.00
Cu539  Cu    0.16667   0.16667   0.54689   0.00000  Uiso   1.00
Cu540  Cu    0.16667   0.16666   0.45311   0.00000  Uiso   1.00
H541   H     0.12849   0.29425   0.42811   0.00000  Uiso   1.00
H542   H     0.19879   0.03936   0.57221   0.00000  Uiso   1.00
N543   N     0.16668   0.16668   0.61736   0.00000  Uiso   1.00
N544   N     0.16665   0.16666   0.38264   0.00000  Uiso   1.00
O545   O     0.16666   0.10655   0.53958   0.00000  Uiso   1.00
O546   O     0.16667   0.22678   0.46042   0.00000  Uiso   1.00
O547   O     0.16666   0.10654   0.46039   0.00000  Uiso   1.00
O548   O     0.16667   0.22679   0.53961   0.00000  Uiso   1.00
O549   O     0.09161   0.16667   0.53046   0.00000  Uiso   1.00
O550   O     0.24172   0.16666   0.46954   0.00000  Uiso   1.00
O551   O     0.09161   0.16666   0.45127   0.00000  Uiso   1.00
O552   O     0.24172   0.16667   0.54873   0.00000  Uiso   1.00
H553   H     0.32602   0.16601   0.44529   0.00000  Uiso   1.00
H554   H     0.00733   0.16661   0.55467   0.00000  Uiso   1.00
O555   O     0.11270   0.03967   0.42074   0.00000  Uiso   1.00
C556   C     0.06454   0.05450   0.43169   0.00000  Uiso   1.00
H557   H     0.04860   0.07547   0.40288   0.00000  Uiso   1.00
H558   H     0.06857   0.07328   0.46475   0.00000  Uiso   1.00
C559   C     0.02540   0.01962   0.43463   0.00000  Uiso   1.00
H560   H     0.02173   0.00053   0.40192   0.00000  Uiso   1.00
H561   H     0.03882   0.33287   0.46508   0.00000  Uiso   1.00
C562   C     0.30573   0.03680   0.44109   0.00000  Uiso   1.00
H563   H     0.30832   0.05569   0.47396   0.00000  Uiso   1.00
H564   H     0.27843   0.01101   0.44369   0.00000  Uiso   1.00
H565   H     0.29039   0.05611   0.41049   0.00000  Uiso   1.00
O566   O     0.18935   0.29502   0.58690   0.00000  Uiso   1.00
C567   C     0.14277   0.28955   0.60649   0.00000  Uiso   1.00
H568   H     0.14926   0.26462   0.63288   0.00000  Uiso   1.00
H569   H     0.11014   0.27907   0.57970   0.00000  Uiso   1.00
C570   C     0.12728   0.32859   0.63187   0.00000  Uiso   1.00
H571   H     0.15845   0.00390   0.66072   0.00000  Uiso   1.00
H572   H     0.12099   0.02121   0.60684   0.00000  Uiso   1.00
C573   C     0.07710   0.32189   0.65229   0.00000  Uiso   1.00
H574   H     0.04582   0.31219   0.62407   0.00000  Uiso   1.00
H575   H     0.06530   0.01789   0.33456   0.00000  Uiso   1.00
H576   H     0.08235   0.29797   0.34666   0.00000  Uiso   1.00
H577   H     0.10375   0.12518   0.36833   0.00000  Uiso   1.00
H578   H     0.22988   0.20791   0.63167   0.00000  Uiso   1.00
H579   H     0.10373   0.12516   0.61485   0.00000  Uiso   1.00
H580   H     0.22972   0.20805   0.38516   0.00000  Uiso   1.00
C581   C     0.49933   0.08746   0.49970   0.00000  Uiso   1.00
C582   C     0.49901   0.24600   0.50030   0.00000  Uiso   1.00
C583   C     0.40126   0.16654   0.48792   0.00000  Uiso   1.00
C584   C     0.59874   0.16656   0.51207   0.00000  Uiso   1.00
C585   C     0.34598   0.16626   0.48124   0.00000  Uiso   1.00
C586   C     0.65403   0.16643   0.51872   0.00000  Uiso   1.00
C587   C     0.47299   0.02069   0.45976   0.00000  Uiso   1.00
C588   C     0.51150   0.31344   0.54323   0.00000  Uiso   1.00
C589   C     0.47697   0.31134   0.45971   0.00000  Uiso   1.00
C590   C     0.51592   0.02244   0.54077   0.00000  Uiso   1.00
C591   C     0.49648   0.29074   0.50116   0.00000  Uiso   1.00
C592   C     0.49672   0.04297   0.49944   0.00000  Uiso   1.00
C593   C     0.46505   0.14366   0.35345   0.00000  Uiso   1.00
C594   C     0.53519   0.18946   0.64657   0.00000  Uiso   1.00
C595   C     0.46504   0.14368   0.63721   0.00000  Uiso   1.00
C596   C     0.53507   0.18956   0.36279   0.00000  Uiso   1.00
Cu597  Cu    0.50000   0.16667   0.54689   0.00000  Uiso   1.00
Cu598  Cu    0.50000   0.16666   0.45311   0.00000  Uiso   1.00
H599   H     0.46183   0.29425   0.42811   0.00000  Uiso   1.00
H600   H     0.53213   0.03936   0.57221   0.00000  Uiso   1.00
N601   N     0.50001   0.16668   0.61736   0.00000  Uiso   1.00
N602   N     0.49999   0.16666   0.38264   0.00000  Uiso   1.00
O603   O     0.50000   0.10655   0.53958   0.00000  Uiso   1.00
O604   O     0.50000   0.22678   0.46042   0.00000  Uiso   1.00
O605   O     0.50000   0.10654   0.46039   0.00000  Uiso   1.00
O606   O     0.50000   0.22679   0.53961   0.00000  Uiso   1.00
O607   O     0.42495   0.16667   0.53046   0.00000  Uiso   1.00
O608   O     0.57505   0.16666   0.46954   0.00000  Uiso   1.00
O609   O     0.42494   0.16666   0.45127   0.00000  Uiso   1.00
O610   O     0.57506   0.16667   0.54873   0.00000  Uiso   1.00
H611   H     0.65935   0.16601   0.44529   0.00000  Uiso   1.00
H612   H     0.34066   0.16661   0.55467   0.00000  Uiso   1.00
O613   O     0.44603   0.03967   0.42074   0.00000  Uiso   1.00
C614   C     0.39787   0.05450   0.43169   0.00000  Uiso   1.00
H615   H     0.38193   0.07547   0.40288   0.00000  Uiso   1.00
H616   H     0.40190   0.07328   0.46475   0.00000  Uiso   1.00
C617   C     0.35874   0.01962   0.43463   0.00000  Uiso   1.00
H618   H     0.35506   0.00053   0.40192   0.00000  Uiso   1.00
H619   H     0.37216   0.33287   0.46508   0.00000  Uiso   1.00
C620   C     0.63906   0.03680   0.44109   0.00000  Uiso   1.00
H621   H     0.64165   0.05569   0.47396   0.00000  Uiso   1.00
H622   H     0.61176   0.01101   0.44369   0.00000  Uiso   1.00
H623   H     0.62373   0.05611   0.41049   0.00000  Uiso   1.00
O624   O     0.52269   0.29502   0.58690   0.00000  Uiso   1.00
C625   C     0.47611   0.28955   0.60649   0.00000  Uiso   1.00
H626   H     0.48259   0.26462   0.63288   0.00000  Uiso   1.00
H627   H     0.44347   0.27907   0.57970   0.00000  Uiso   1.00
C628   C     0.46061   0.32859   0.63187   0.00000  Uiso   1.00
H629   H     0.49178   0.00390   0.66072   0.00000  Uiso   1.00
H630   H     0.45433   0.02121   0.60684   0.00000  Uiso   1.00
C631   C     0.41044   0.32189   0.65229   0.00000  Uiso   1.00
H632   H     0.37916   0.31219   0.62407   0.00000  Uiso   1.00
H633   H     0.39863   0.01789   0.33456   0.00000  Uiso   1.00
H634   H     0.41568   0.29797   0.34666   0.00000  Uiso   1.00
H635   H     0.43709   0.12518   0.36833   0.00000  Uiso   1.00
H636   H     0.56321   0.20791   0.63167   0.00000  Uiso   1.00
H637   H     0.43706   0.12516   0.61485   0.00000  Uiso   1.00
H638   H     0.56305   0.20805   0.38516   0.00000  Uiso   1.00
C639   C     0.83266   0.08746   0.49970   0.00000  Uiso   1.00
C640   C     0.83235   0.24600   0.50030   0.00000  Uiso   1.00
C641   C     0.73460   0.16654   0.48792   0.00000  Uiso   1.00
C642   C     0.93207   0.16656   0.51207   0.00000  Uiso   1.00
C643   C     0.67931   0.16626   0.48124   0.00000  Uiso   1.00
C644   C     0.98736   0.16643   0.51872   0.00000  Uiso   1.00
C645   C     0.80632   0.02069   0.45976   0.00000  Uiso   1.00
C646   C     0.84483   0.31344   0.54323   0.00000  Uiso   1.00
C647   C     0.81030   0.31134   0.45971   0.00000  Uiso   1.00
C648   C     0.84926   0.02244   0.54077   0.00000  Uiso   1.00
C649   C     0.82981   0.29074   0.50116   0.00000  Uiso   1.00
C650   C     0.83005   0.04297   0.49944   0.00000  Uiso   1.00
C651   C     0.79838   0.14366   0.35345   0.00000  Uiso   1.00
C652   C     0.86852   0.18946   0.64657   0.00000  Uiso   1.00
C653   C     0.79837   0.14368   0.63721   0.00000  Uiso   1.00
C654   C     0.86840   0.18956   0.36279   0.00000  Uiso   1.00
Cu655  Cu    0.83333   0.16667   0.54689   0.00000  Uiso   1.00
Cu656  Cu    0.83333   0.16666   0.45311   0.00000  Uiso   1.00
H657   H     0.79516   0.29425   0.42811   0.00000  Uiso   1.00
H658   H     0.86546   0.03936   0.57221   0.00000  Uiso   1.00
N659   N     0.83335   0.16668   0.61736   0.00000  Uiso   1.00
N660   N     0.83332   0.16666   0.38264   0.00000  Uiso   1.00
O661   O     0.83333   0.10655   0.53958   0.00000  Uiso   1.00
O662   O     0.83334   0.22678   0.46042   0.00000  Uiso   1.00
O663   O     0.83333   0.10654   0.46039   0.00000  Uiso   1.00
O664   O     0.83334   0.22679   0.53961   0.00000  Uiso   1.00
O665   O     0.75828   0.16667   0.53046   0.00000  Uiso   1.00
O666   O     0.90839   0.16666   0.46954   0.00000  Uiso   1.00
O667   O     0.75828   0.16666   0.45127   0.00000  Uiso   1.00
O668   O     0.90839   0.16667   0.54873   0.00000  Uiso   1.00
H669   H     0.99269   0.16601   0.44529   0.00000  Uiso   1.00
H670   H     0.67400   0.16661   0.55467   0.00000  Uiso   1.00
O671   O     0.77937   0.03967   0.42074   0.00000  Uiso   1.00
C672   C     0.73121   0.05450   0.43169   0.00000  Uiso   1.00
H673   H     0.71526   0.07547   0.40288   0.00000  Uiso   1.00
H674   H     0.73524   0.07328   0.46475   0.00000  Uiso   1.00
C675   C     0.69207   0.01962   0.43463   0.00000  Uiso   1.00
H676   H     0.68840   0.00053   0.40192   0.00000  Uiso   1.00
H677   H     0.70549   0.33287   0.46508   0.00000  Uiso   1.00
C678   C     0.97239   0.03680   0.44109   0.00000  Uiso   1.00
H679   H     0.97498   0.05569   0.47396   0.00000  Uiso   1.00
H680   H     0.94509   0.01101   0.44369   0.00000  Uiso   1.00
H681   H     0.95706   0.05611   0.41049   0.00000  Uiso   1.00
O682   O     0.85602   0.29502   0.58690   0.00000  Uiso   1.00
C683   C     0.80944   0.28955   0.60649   0.00000  Uiso   1.00
H684   H     0.81592   0.26462   0.63288   0.00000  Uiso   1.00
H685   H     0.77681   0.27907   0.57970   0.00000  Uiso   1.00
C686   C     0.79394   0.32859   0.63187   0.00000  Uiso   1.00
H687   H     0.82511   0.00390   0.66072   0.00000  Uiso   1.00
H688   H     0.78766   0.02121   0.60684   0.00000  Uiso   1.00
C689   C     0.74377   0.32189   0.65229   0.00000  Uiso   1.00
H690   H     0.71249   0.31219   0.62407   0.00000  Uiso   1.00
H691   H     0.73197   0.01789   0.33456   0.00000  Uiso   1.00
H692   H     0.74902   0.29797   0.34666   0.00000  Uiso   1.00
H693   H     0.77042   0.12518   0.36833   0.00000  Uiso   1.00
H694   H     0.89655   0.20791   0.63167   0.00000  Uiso   1.00
H695   H     0.77040   0.12516   0.61485   0.00000  Uiso   1.00
H696   H     0.89639   0.20805   0.38516   0.00000  Uiso   1.00
C697   C     0.16599   0.42080   0.49970   0.00000  Uiso   1.00
C698   C     0.16568   0.57934   0.50030   0.00000  Uiso   1.00
C699   C     0.06793   0.49987   0.48792   0.00000  Uiso   1.00
C700   C     0.26541   0.49989   0.51207   0.00000  Uiso   1.00
C701   C     0.01265   0.49960   0.48124   0.00000  Uiso   1.00
C702   C     0.32069   0.49976   0.51872   0.00000  Uiso   1.00
C703   C     0.13965   0.35402   0.45976   0.00000  Uiso   1.00
C704   C     0.17816   0.64677   0.54323   0.00000  Uiso   1.00
C705   C     0.14363   0.64467   0.45971   0.00000  Uiso   1.00
C706   C     0.18259   0.35577   0.54077   0.00000  Uiso   1.00
C707   C     0.16314   0.62407   0.50116   0.00000  Uiso   1.00
C708   C     0.16338   0.37631   0.49944   0.00000  Uiso   1.00
C709   C     0.13171   0.47699   0.35345   0.00000  Uiso   1.00
C710   C     0.20185   0.52279   0.64657   0.00000  Uiso   1.00
C711   C     0.13170   0.47701   0.63721   0.00000  Uiso   1.00
C712   C     0.20173   0.52289   0.36279   0.00000  Uiso   1.00
Cu713  Cu    0.16667   0.50001   0.54689   0.00000  Uiso   1.00
Cu714  Cu    0.16667   0.49999   0.45311   0.00000  Uiso   1.00
H715   H     0.12849   0.62758   0.42811   0.00000  Uiso   1.00
H716   H     0.19879   0.37270   0.57221   0.00000  Uiso   1.00
N717   N     0.16668   0.50001   0.61736   0.00000  Uiso   1.00
N718   N     0.16665   0.49999   0.38264   0.00000  Uiso   1.00
O719   O     0.16666   0.43989   0.53958   0.00000  Uiso   1.00
O720   O     0.16667   0.56011   0.46042   0.00000  Uiso   1.00
O721   O     0.16666   0.43988   0.46039   0.00000  Uiso   1.00
O722   O     0.16667   0.56012   0.53961   0.00000  Uiso   1.00
O723   O     0.09161   0.50000   0.53046   0.00000  Uiso   1.00
O724   O     0.24172   0.50000   0.46954   0.00000  Uiso   1.00
O725   O     0.09161   0.49999   0.45127   0.00000  Uiso   1.00
O726   O     0.24172   0.50001   0.54873   0.00000  Uiso   1.00
H727   H     0.32602   0.49935   0.44529   0.00000  Uiso   1.00
H728   H     0.00733   0.49994   0.55467   0.00000  Uiso   1.00
O729   O     0.11270   0.37300   0.42074   0.00000  Uiso   1.00
C730   C     0.06454   0.38783   0.43169   0.00000  Uiso   1.00
H731   H     0.04860   0.40881   0.40288   0.00000  Uiso   1.00
H732   H     0.06857   0.40661   0.46475   0.00000  Uiso   1.00
C733   C     0.02540   0.35295   0.43463   0.00000  Uiso   1.00
H734   H     0.02173   0.33386   0.40192   0.00000  Uiso   1.00
H735   H     0.03882   0.66621   0.46508   0.00000  Uiso   1.00
C736   C     0.30573   0.37013   0.44109   0.00000  Uiso   1.00
H737   H     0.30832   0.38902   0.47396   0.00000  Uiso   1.00
H738   H     0.27843   0.34435   0.44369   0.00000  Uiso   1.00
H739   H     0.29039   0.38945   0.41049   0.00000  Uiso   1.00
O740   O     0.18935   0.62836   0.58690   0.00000  Uiso   1.00
C741   C     0.14277   0.62288   0.60649   0.00000  Uiso   1.00
H742   H     0.14926   0.59796   0.63288   0.00000  Uiso   1.00
H743   H     0.11014   0.61241   0.57970   0.00000  Uiso   1.00
C744   C     0.12728   0.66192   0.63187   0.00000  Uiso   1.00
H745   H     0.15845   0.33723   0.66072   0.00000  Uiso   1.00
H746   H     0.12099   0.35454   0.60684   0.00000  Uiso   1.00
C747   C     0.07710   0.65522   0.65229   0.00000  Uiso   1.00
H748   H     0.04582   0.64552   0.62407   0.00000  Uiso   1.00
H749   H     0.06530   0.35122   0.33456   0.00000  Uiso   1.00
H750   H     0.08235   0.63131   0.34666   0.00000  Uiso   1.00
H751   H     0.10375   0.45851   0.36833   0.00000  Uiso   1.00
H752   H     0.22988   0.54125   0.63167   0.00000  Uiso   1.00
H753   H     0.10373   0.45850   0.61485   0.00000  Uiso   1.00
H754   H     0.22972   0.54138   0.38516   0.00000  Uiso   1.00
C755   C     0.49933   0.42080   0.49970   0.00000  Uiso   1.00
C756   C     0.49901   0.57934   0.50030   0.00000  Uiso   1.00
C757   C     0.40126   0.49987   0.48792   0.00000  Uiso   1.00
C758   C     0.59874   0.49989   0.51207   0.00000  Uiso   1.00
C759   C     0.34598   0.49960   0.48124   0.00000  Uiso   1.00
C760   C     0.65403   0.49976   0.51872   0.00000  Uiso   1.00
C761   C     0.47299   0.35402   0.45976   0.00000  Uiso   1.00
C762   C     0.51150   0.64677   0.54323   0.00000  Uiso   1.00
C763   C     0.47697   0.64467   0.45971   0.00000  Uiso   1.00
C764   C     0.51592   0.35577   0.54077   0.00000  Uiso   1.00
C765   C     0.49648   0.62407   0.50116   0.00000  Uiso   1.00
C766   C     0.49672   0.37631   0.49944   0.00000  Uiso   1.00
C767   C     0.46505   0.47699   0.35345   0.00000  Uiso   1.00
C768   C     0.53519   0.52279   0.64657   0.00000  Uiso   1.00
C769   C     0.46504   0.47701   0.63721   0.00000  Uiso   1.00
C770   C     0.53507   0.52289   0.36279   0.00000  Uiso   1.00
Cu771  Cu    0.50000   0.50001   0.54689   0.00000  Uiso   1.00
Cu772  Cu    0.50000   0.49999   0.45311   0.00000  Uiso   1.00
H773   H     0.46183   0.62758   0.42811   0.00000  Uiso   1.00
H774   H     0.53213   0.37270   0.57221   0.00000  Uiso   1.00
N775   N     0.50001   0.50001   0.61736   0.00000  Uiso   1.00
N776   N     0.49999   0.49999   0.38264   0.00000  Uiso   1.00
O777   O     0.50000   0.43989   0.53958   0.00000  Uiso   1.00
O778   O     0.50000   0.56011   0.46042   0.00000  Uiso   1.00
O779   O     0.50000   0.43988   0.46039   0.00000  Uiso   1.00
O780   O     0.50000   0.56012   0.53961   0.00000  Uiso   1.00
O781   O     0.42495   0.50000   0.53046   0.00000  Uiso   1.00
O782   O     0.57505   0.50000   0.46954   0.00000  Uiso   1.00
O783   O     0.42494   0.49999   0.45127   0.00000  Uiso   1.00
O784   O     0.57506   0.50001   0.54873   0.00000  Uiso   1.00
H785   H     0.65935   0.49935   0.44529   0.00000  Uiso   1.00
H786   H     0.34066   0.49994   0.55467   0.00000  Uiso   1.00
O787   O     0.44603   0.37300   0.42074   0.00000  Uiso   1.00
C788   C     0.39787   0.38783   0.43169   0.00000  Uiso   1.00
H789   H     0.38193   0.40881   0.40288   0.00000  Uiso   1.00
H790   H     0.40190   0.40661   0.46475   0.00000  Uiso   1.00
C791   C     0.35874   0.35295   0.43463   0.00000  Uiso   1.00
H792   H     0.35506   0.33386   0.40192   0.00000  Uiso   1.00
H793   H     0.37216   0.66621   0.46508   0.00000  Uiso   1.00
C794   C     0.63906   0.37013   0.44109   0.00000  Uiso   1.00
H795   H     0.64165   0.38902   0.47396   0.00000  Uiso   1.00
H796   H     0.61176   0.34435   0.44369   0.00000  Uiso   1.00
H797   H     0.62373   0.38945   0.41049   0.00000  Uiso   1.00
O798   O     0.52269   0.62836   0.58690   0.00000  Uiso   1.00
C799   C     0.47611   0.62288   0.60649   0.00000  Uiso   1.00
H800   H     0.48259   0.59796   0.63288   0.00000  Uiso   1.00
H801   H     0.44347   0.61241   0.57970   0.00000  Uiso   1.00
C802   C     0.46061   0.66192   0.63187   0.00000  Uiso   1.00
H803   H     0.49178   0.33723   0.66072   0.00000  Uiso   1.00
H804   H     0.45433   0.35454   0.60684   0.00000  Uiso   1.00
C805   C     0.41044   0.65522   0.65229   0.00000  Uiso   1.00
H806   H     0.37916   0.64552   0.62407   0.00000  Uiso   1.00
H807   H     0.39863   0.35122   0.33456   0.00000  Uiso   1.00
H808   H     0.41568   0.63131   0.34666   0.00000  Uiso   1.00
H809   H     0.43709   0.45851   0.36833   0.00000  Uiso   1.00
H810   H     0.56321   0.54125   0.63167   0.00000  Uiso   1.00
H811   H     0.43706   0.45850   0.61485   0.00000  Uiso   1.00
H812   H     0.56305   0.54138   0.38516   0.00000  Uiso   1.00
C813   C     0.83266   0.42080   0.49970   0.00000  Uiso   1.00
C814   C     0.83235   0.57934   0.50030   0.00000  Uiso   1.00
C815   C     0.73460   0.49987   0.48792   0.00000  Uiso   1.00
C816   C     0.93207   0.49989   0.51207   0.00000  Uiso   1.00
C817   C     0.67931   0.49960   0.48124   0.00000  Uiso   1.00
C818   C     0.98736   0.49976   0.51872   0.00000  Uiso   1.00
C819   C     0.80632   0.35402   0.45976   0.00000  Uiso   1.00
C820   C     0.84483   0.64677   0.54323   0.00000  Uiso   1.00
C821   C     0.81030   0.64467   0.45971   0.00000  Uiso   1.00
C822   C     0.84926   0.35577   0.54077   0.00000  Uiso   1.00
C823   C     0.82981   0.62407   0.50116   0.00000  Uiso   1.00
C824   C     0.83005   0.37631   0.49944   0.00000  Uiso   1.00
C825   C     0.79838   0.47699   0.35345   0.00000  Uiso   1.00
C826   C     0.86852   0.52279   0.64657   0.00000  Uiso   1.00
C827   C     0.79837   0.47701   0.63721   0.00000  Uiso   1.00
C828   C     0.86840   0.52289   0.36279   0.00000  Uiso   1.00
Cu829  Cu    0.83333   0.50001   0.54689   0.00000  Uiso   1.00
Cu830  Cu    0.83333   0.49999   0.45311   0.00000  Uiso   1.00
H831   H     0.79516   0.62758   0.42811   0.00000  Uiso   1.00
H832   H     0.86546   0.37270   0.57221   0.00000  Uiso   1.00
N833   N     0.83335   0.50001   0.61736   0.00000  Uiso   1.00
N834   N     0.83332   0.49999   0.38264   0.00000  Uiso   1.00
O835   O     0.83333   0.43989   0.53958   0.00000  Uiso   1.00
O836   O     0.83334   0.56011   0.46042   0.00000  Uiso   1.00
O837   O     0.83333   0.43988   0.46039   0.00000  Uiso   1.00
O838   O     0.83334   0.56012   0.53961   0.00000  Uiso   1.00
O839   O     0.75828   0.50000   0.53046   0.00000  Uiso   1.00
O840   O     0.90839   0.50000   0.46954   0.00000  Uiso   1.00
O841   O     0.75828   0.49999   0.45127   0.00000  Uiso   1.00
O842   O     0.90839   0.50001   0.54873   0.00000  Uiso   1.00
H843   H     0.99269   0.49935   0.44529   0.00000  Uiso   1.00
H844   H     0.67400   0.49994   0.55467   0.00000  Uiso   1.00
O845   O     0.77937   0.37300   0.42074   0.00000  Uiso   1.00
C846   C     0.73121   0.38783   0.43169   0.00000  Uiso   1.00
H847   H     0.71526   0.40881   0.40288   0.00000  Uiso   1.00
H848   H     0.73524   0.40661   0.46475   0.00000  Uiso   1.00
C849   C     0.69207   0.35295   0.43463   0.00000  Uiso   1.00
H850   H     0.68840   0.33386   0.40192   0.00000  Uiso   1.00
H851   H     0.70549   0.66621   0.46508   0.00000  Uiso   1.00
C852   C     0.97239   0.37013   0.44109   0.00000  Uiso   1.00
H853   H     0.97498   0.38902   0.47396   0.00000  Uiso   1.00
H854   H     0.94509   0.34435   0.44369   0.00000  Uiso   1.00
H855   H     0.95706   0.38945   0.41049   0.00000  Uiso   1.00
O856   O     0.85602   0.62836   0.58690   0.00000  Uiso   1.00
C857   C     0.80944   0.62288   0.60649   0.00000  Uiso   1.00
H858   H     0.81592   0.59796   0.63288   0.00000  Uiso   1.00
H859   H     0.77681   0.61241   0.57970   0.00000  Uiso   1.00
C860   C     0.79394   0.66192   0.63187   0.00000  Uiso   1.00
H861   H     0.82511   0.33723   0.66072   0.00000  Uiso   1.00
H862   H     0.78766   0.35454   0.60684   0.00000  Uiso   1.00
C863   C     0.74377   0.65522   0.65229   0.00000  Uiso   1.00
H864   H     0.71249   0.64552   0.62407   0.00000  Uiso   1.00
H865   H     0.73197   0.35122   0.33456   0.00000  Uiso   1.00
H866   H     0.74902   0.63131   0.34666   0.00000  Uiso   1.00
H867   H     0.77042   0.45851   0.36833   0.00000  Uiso   1.00
H868   H     0.89655   0.54125   0.63167   0.00000  Uiso   1.00
H869   H     0.77040   0.45850   0.61485   0.00000  Uiso   1.00
H870   H     0.89639   0.54138   0.38516   0.00000  Uiso   1.00
C871   C     0.16599   0.75413   0.49970   0.00000  Uiso   1.00
C872   C     0.16568   0.91267   0.50030   0.00000  Uiso   1.00
C873   C     0.06793   0.83320   0.48792   0.00000  Uiso   1.00
C874   C     0.26541   0.83323   0.51207   0.00000  Uiso   1.00
C875   C     0.01265   0.83293   0.48124   0.00000  Uiso   1.00
C876   C     0.32069   0.83310   0.51872   0.00000  Uiso   1.00
C877   C     0.13965   0.68735   0.45976   0.00000  Uiso   1.00
C878   C     0.17816   0.98010   0.54323   0.00000  Uiso   1.00
C879   C     0.14363   0.97800   0.45971   0.00000  Uiso   1.00
C880   C     0.18259   0.68911   0.54077   0.00000  Uiso   1.00
C881   C     0.16314   0.95741   0.50116   0.00000  Uiso   1.00
C882   C     0.16338   0.70964   0.49944   0.00000  Uiso   1.00
C883   C     0.13171   0.81032   0.35345   0.00000  Uiso   1.00
C884   C     0.20185   0.85612   0.64657   0.00000  Uiso   1.00
C885   C     0.13170   0.81034   0.63721   0.00000  Uiso   1.00
C886   C     0.20173   0.85622   0.36279   0.00000  Uiso   1.00
Cu887  Cu    0.16667   0.83334   0.54689   0.00000  Uiso   1.00
Cu888  Cu    0.16667   0.83333   0.45311   0.00000  Uiso   1.00
H889   H     0.12849   0.96092   0.42811   0.00000  Uiso   1.00
H890   H     0.19879   0.70603   0.57221   0.00000  Uiso   1.00
N891   N     0.16668   0.83334   0.61736   0.00000  Uiso   1.00
N892   N     0.16665   0.83332   0.38264   0.00000  Uiso   1.00
O893   O     0.16666   0.77322   0.53958   0.00000  Uiso   1.00
O894   O     0.16667   0.89345   0.46042   0.00000  Uiso   1.00
O895   O     0.16666   0.77321   0.46039   0.00000  Uiso   1.00
O896   O     0.16667   0.89346   0.53961   0.00000  Uiso   1.00
O897   O     0.09161   0.83334   0.53046   0.00000  Uiso   1.00
O898   O     0.24172   0.83333   0.46954   0.00000  Uiso   1.00
O899   O     0.09161   0.83333   0.45127   0.00000  Uiso   1.00
O900   O     0.24172   0.83334   0.54873   0.00000  Uiso   1.00
H901   H     0.32602   0.83268   0.44529   0.00000  Uiso   1.00
H902   H     0.00733   0.83327   0.55467   0.00000  Uiso   1.00
O903   O     0.11270   0.70633   0.42074   0.00000  Uiso   1.00
C904   C     0.06454   0.72117   0.43169   0.00000  Uiso   1.00
H905   H     0.04860   0.74214   0.40288   0.00000  Uiso   1.00
H906   H     0.06857   0.73995   0.46475   0.00000  Uiso   1.00
C907   C     0.02540   0.68629   0.43463   0.00000  Uiso   1.00
H908   H     0.02173   0.66720   0.40192   0.00000  Uiso   1.00
H909   H     0.03882   0.99954   0.46508   0.00000  Uiso   1.00
C910   C     0.30573   0.70347   0.44109   0.00000  Uiso   1.00
H911   H     0.30832   0.72236   0.47396   0.00000  Uiso   1.00
H912   H     0.27843   0.67768   0.44369   0.00000  Uiso   1.00
H913   H     0.29039   0.72278   0.41049   0.00000  Uiso   1.00
O914   O     0.18935   0.96169   0.58690   0.00000  Uiso   1.00
C915   C     0.14277   0.95622   0.60649   0.00000  Uiso   1.00
H916   H     0.14926   0.93129   0.63288   0.00000  Uiso   1.00
H917   H     0.11014   0.94574   0.57970   0.00000  Uiso   1.00
C918   C     0.12728   0.99525   0.63187   0.00000  Uiso   1.00
H919   H     0.15845   0.67056   0.66072   0.00000  Uiso   1.00
H920   H     0.12099   0.68787   0.60684   0.00000  Uiso   1.00
C921   C     0.07710   0.98856   0.65229   0.00000  Uiso   1.00
H922   H     0.04582   0.97886   0.62407   0.00000  Uiso   1.00
H923   H     0.06530   0.68456   0.33456   0.00000  Uiso   1.00
H924   H     0.08235   0.96464   0.34666   0.00000  Uiso   1.00
H925   H     0.10375   0.79185   0.36833   0.00000  Uiso   1.00
H926   H     0.22988   0.87458   0.63167   0.00000  Uiso   1.00
H927   H     0.10373   0.79183   0.61485   0.00000  Uiso   1.00
H928   H     0.22972   0.87472   0.38516   0.00000  Uiso   1.00
C929   C     0.49933   0.75413   0.49970   0.00000  Uiso   1.00
C930   C     0.49901   0.91267   0.50030   0.00000  Uiso   1.00
C931   C     0.40126   0.83320   0.48792   0.00000  Uiso   1.00
C932   C     0.59874   0.83323   0.51207   0.00000  Uiso   1.00
C933   C     0.34598   0.83293   0.48124   0.00000  Uiso   1.00
C934   C     0.65403   0.83310   0.51872   0.00000  Uiso   1.00
C935   C     0.47299   0.68735   0.45976   0.00000  Uiso   1.00
C936   C     0.51150   0.98010   0.54323   0.00000  Uiso   1.00
C937   C     0.47697   0.97800   0.45971   0.00000  Uiso   1.00
C938   C     0.51592   0.68911   0.54077   0.00000  Uiso   1.00
C939   C     0.49648   0.95741   0.50116   0.00000  Uiso   1.00
C940   C     0.49672   0.70964   0.49944   0.00000  Uiso   1.00
C941   C     0.46505   0.81032   0.35345   0.00000  Uiso   1.00
C942   C     0.53519   0.85612   0.64657   0.00000  Uiso   1.00
C943   C     0.46504   0.81034   0.63721   0.00000  Uiso   1.00
C944   C     0.53507   0.85622   0.36279   0.00000  Uiso   1.00
Cu945  Cu    0.50000   0.83334   0.54689   0.00000  Uiso   1.00
Cu946  Cu    0.50000   0.83333   0.45311   0.00000  Uiso   1.00
H947   H     0.46183   0.96092   0.42811   0.00000  Uiso   1.00
H948   H     0.53213   0.70603   0.57221   0.00000  Uiso   1.00
N949   N     0.50001   0.83334   0.61736   0.00000  Uiso   1.00
N950   N     0.49999   0.83332   0.38264   0.00000  Uiso   1.00
O951   O     0.50000   0.77322   0.53958   0.00000  Uiso   1.00
O952   O     0.50000   0.89345   0.46042   0.00000  Uiso   1.00
O953   O     0.50000   0.77321   0.46039   0.00000  Uiso   1.00
O954   O     0.50000   0.89346   0.53961   0.00000  Uiso   1.00
O955   O     0.42495   0.83334   0.53046   0.00000  Uiso   1.00
O956   O     0.57505   0.83333   0.46954   0.00000  Uiso   1.00
O957   O     0.42494   0.83333   0.45127   0.00000  Uiso   1.00
O958   O     0.57506   0.83334   0.54873   0.00000  Uiso   1.00
H959   H     0.65935   0.83268   0.44529   0.00000  Uiso   1.00
H960   H     0.34066   0.83327   0.55467   0.00000  Uiso   1.00
O961   O     0.44603   0.70633   0.42074   0.00000  Uiso   1.00
C962   C     0.39787   0.72117   0.43169   0.00000  Uiso   1.00
H963   H     0.38193   0.74214   0.40288   0.00000  Uiso   1.00
H964   H     0.40190   0.73995   0.46475   0.00000  Uiso   1.00
C965   C     0.35874   0.68629   0.43463   0.00000  Uiso   1.00
H966   H     0.35506   0.66720   0.40192   0.00000  Uiso   1.00
H967   H     0.37216   0.99954   0.46508   0.00000  Uiso   1.00
C968   C     0.63906   0.70347   0.44109   0.00000  Uiso   1.00
H969   H     0.64165   0.72236   0.47396   0.00000  Uiso   1.00
H970   H     0.61176   0.67768   0.44369   0.00000  Uiso   1.00
H971   H     0.62373   0.72278   0.41049   0.00000  Uiso   1.00
O972   O     0.52269   0.96169   0.58690   0.00000  Uiso   1.00
C973   C     0.47611   0.95622   0.60649   0.00000  Uiso   1.00
H974   H     0.48259   0.93129   0.63288   0.00000  Uiso   1.00
H975   H     0.44347   0.94574   0.57970   0.00000  Uiso   1.00
C976   C     0.46061   0.99525   0.63187   0.00000  Uiso   1.00
H977   H     0.49178   0.67056   0.66072   0.00000  Uiso   1.00
H978   H     0.45433   0.68787   0.60684   0.00000  Uiso   1.00
C979   C     0.41044   0.98856   0.65229   0.00000  Uiso   1.00
H980   H     0.37916   0.97886   0.62407   0.00000  Uiso   1.00
H981   H     0.39863   0.68456   0.33456   0.00000  Uiso   1.00
H982   H     0.41568   0.96464   0.34666   0.00000  Uiso   1.00
H983   H     0.43709   0.79185   0.36833   0.00000  Uiso   1.00
H984   H     0.56321   0.87458   0.63167   0.00000  Uiso   1.00
H985   H     0.43706   0.79183   0.61485   0.00000  Uiso   1.00
H986   H     0.56305   0.87472   0.38516   0.00000  Uiso   1.00
C987   C     0.83266   0.75413   0.49970   0.00000  Uiso   1.00
C988   C     0.83235   0.91267   0.50030   0.00000  Uiso   1.00
C989   C     0.73460   0.83320   0.48792   0.00000  Uiso   1.00
C990   C     0.93207   0.83323   0.51207   0.00000  Uiso   1.00
C991   C     0.67931   0.83293   0.48124   0.00000  Uiso   1.00
C992   C     0.98736   0.83310   0.51872   0.00000  Uiso   1.00
C993   C     0.80632   0.68735   0.45976   0.00000  Uiso   1.00
C994   C     0.84483   0.98010   0.54323   0.00000  Uiso   1.00
C995   C     0.81030   0.97800   0.45971   0.00000  Uiso   1.00
C996   C     0.84926   0.68911   0.54077   0.00000  Uiso   1.00
C997   C     0.82981   0.95741   0.50116   0.00000  Uiso   1.00
C998   C     0.83005   0.70964   0.49944   0.00000  Uiso   1.00
C999   C     0.79838   0.81032   0.35345   0.00000  Uiso   1.00
C1000  C     0.86852   0.85612   0.64657   0.00000  Uiso   1.00
C1001  C     0.79837   0.81034   0.63721   0.00000  Uiso   1.00
C1002  C     0.86840   0.85622   0.36279   0.00000  Uiso   1.00
Cu1003 Cu    0.83333   0.83334   0.54689   0.00000  Uiso   1.00
Cu1004 Cu    0.83333   0.83333   0.45311   0.00000  Uiso   1.00
H1005  H     0.79516   0.96092   0.42811   0.00000  Uiso   1.00
H1006  H     0.86546   0.70603   0.57221   0.00000  Uiso   1.00
N1007  N     0.83335   0.83334   0.61736   0.00000  Uiso   1.00
N1008  N     0.83332   0.83332   0.38264   0.00000  Uiso   1.00
O1009  O     0.83333   0.77322   0.53958   0.00000  Uiso   1.00
O1010  O     0.83334   0.89345   0.46042   0.00000  Uiso   1.00
O1011  O     0.83333   0.77321   0.46039   0.00000  Uiso   1.00
O1012  O     0.83334   0.89346   0.53961   0.00000  Uiso   1.00
O1013  O     0.75828   0.83334   0.53046   0.00000  Uiso   1.00
O1014  O     0.90839   0.83333   0.46954   0.00000  Uiso   1.00
O1015  O     0.75828   0.83333   0.45127   0.00000  Uiso   1.00
O1016  O     0.90839   0.83334   0.54873   0.00000  Uiso   1.00
H1017  H     0.99269   0.83268   0.44529   0.00000  Uiso   1.00
H1018  H     0.67400   0.83327   0.55467   0.00000  Uiso   1.00
O1019  O     0.77937   0.70633   0.42074   0.00000  Uiso   1.00
C1020  C     0.73121   0.72117   0.43169   0.00000  Uiso   1.00
H1021  H     0.71526   0.74214   0.40288   0.00000  Uiso   1.00
H1022  H     0.73524   0.73995   0.46475   0.00000  Uiso   1.00
C1023  C     0.69207   0.68629   0.43463   0.00000  Uiso   1.00
H1024  H     0.68840   0.66720   0.40192   0.00000  Uiso   1.00
H1025  H     0.70549   0.99954   0.46508   0.00000  Uiso   1.00
C1026  C     0.97239   0.70347   0.44109   0.00000  Uiso   1.00
H1027  H     0.97498   0.72236   0.47396   0.00000  Uiso   1.00
H1028  H     0.94509   0.67768   0.44369   0.00000  Uiso   1.00
H1029  H     0.95706   0.72278   0.41049   0.00000  Uiso   1.00
O1030  O     0.85602   0.96169   0.58690   0.00000  Uiso   1.00
C1031  C     0.80944   0.95622   0.60649   0.00000  Uiso   1.00
H1032  H     0.81592   0.93129   0.63288   0.00000  Uiso   1.00
H1033  H     0.77681   0.94574   0.57970   0.00000  Uiso   1.00
C1034  C     0.79394   0.99525   0.63187   0.00000  Uiso   1.00
H1035  H     0.82511   0.67056   0.66072   0.00000  Uiso   1.00
H1036  H     0.78766   0.68787   0.60684   0.00000  Uiso   1.00
C1037  C     0.74377   0.98856   0.65229   0.00000  Uiso   1.00
H1038  H     0.71249   0.97886   0.62407   0.00000  Uiso   1.00
H1039  H     0.73197   0.68456   0.33456   0.00000  Uiso   1.00
H1040  H     0.74902   0.96464   0.34666   0.00000  Uiso   1.00
H1041  H     0.77042   0.79185   0.36833   0.00000  Uiso   1.00
H1042  H     0.89655   0.87458   0.63167   0.00000  Uiso   1.00
H1043  H     0.77040   0.79183   0.61485   0.00000  Uiso   1.00
H1044  H     0.89639   0.87472   0.38516   0.00000  Uiso   1.00
C1045  C     0.16599   0.08746   0.83304   0.00000  Uiso   1.00
C1046  C     0.16568   0.24600   0.83363   0.00000  Uiso   1.00
C1047  C     0.06793   0.16654   0.82125   0.00000  Uiso   1.00
C1048  C     0.26541   0.16656   0.84541   0.00000  Uiso   1.00
C1049  C     0.01265   0.16626   0.81458   0.00000  Uiso   1.00
C1050  C     0.32069   0.16643   0.85205   0.00000  Uiso   1.00
C1051  C     0.13965   0.02069   0.79309   0.00000  Uiso   1.00
C1052  C     0.17816   0.31344   0.87656   0.00000  Uiso   1.00
C1053  C     0.14363   0.31134   0.79304   0.00000  Uiso   1.00
C1054  C     0.18259   0.02244   0.87411   0.00000  Uiso   1.00
C1055  C     0.16314   0.29074   0.83449   0.00000  Uiso   1.00
C1056  C     0.16338   0.04297   0.83277   0.00000  Uiso   1.00
C1057  C     0.13171   0.14366   0.68678   0.00000  Uiso   1.00
C1058  C     0.20185   0.18946   0.97990   0.00000  Uiso   1.00
C1059  C     0.13170   0.14368   0.97055   0.00000  Uiso   1.00
C1060  C     0.20173   0.18956   0.69613   0.00000  Uiso   1.00
Cu1061 Cu    0.16667   0.16667   0.88022   0.00000  Uiso   1.00
Cu1062 Cu    0.16667   0.16666   0.78645   0.00000  Uiso   1.00
H1063  H     0.12849   0.29425   0.76144   0.00000  Uiso   1.00
H1064  H     0.19879   0.03936   0.90554   0.00000  Uiso   1.00
N1065  N     0.16668   0.16668   0.95069   0.00000  Uiso   1.00
N1066  N     0.16665   0.16666   0.71597   0.00000  Uiso   1.00
O1067  O     0.16666   0.10655   0.87291   0.00000  Uiso   1.00
O1068  O     0.16667   0.22678   0.79375   0.00000  Uiso   1.00
O1069  O     0.16666   0.10654   0.79372   0.00000  Uiso   1.00
O1070  O     0.16667   0.22679   0.87294   0.00000  Uiso   1.00
O1071  O     0.09161   0.16667   0.86379   0.00000  Uiso   1.00
O1072  O     0.24172   0.16666   0.80288   0.00000  Uiso   1.00
O1073  O     0.09161   0.16666   0.78460   0.00000  Uiso   1.00
O1074  O     0.24172   0.16667   0.88207   0.00000  Uiso   1.00
H1075  H     0.32602   0.16601   0.77862   0.00000  Uiso   1.00
H1076  H     0.00733   0.16661   0.88801   0.00000  Uiso   1.00
O1077  O     0.11270   0.03967   0.75407   0.00000  Uiso   1.00
C1078  C     0.06454   0.05450   0.76502   0.00000  Uiso   1.00
H1079  H     0.04860   0.07547   0.73622   0.00000  Uiso   1.00
H1080  H     0.06857   0.07328   0.79808   0.00000  Uiso   1.00
C1081  C     0.02540   0.01962   0.76796   0.00000  Uiso   1.00
H1082  H     0.02173   0.00053   0.73525   0.00000  Uiso   1.00
H1083  H     0.03882   0.33287   0.79842   0.00000  Uiso   1.00
C1084  C     0.30573   0.03680   0.77442   0.00000  Uiso   1.00
H1085  H     0.30832   0.05569   0.80729   0.00000  Uiso   1.00
H1086  H     0.27843   0.01101   0.77702   0.00000  Uiso   1.00
H1087  H     0.29039   0.05611   0.74383   0.00000  Uiso   1.00
O1088  O     0.18935   0.29502   0.92023   0.00000  Uiso   1.00
C1089  C     0.14277   0.28955   0.93982   0.00000  Uiso   1.00
H1090  H     0.14926   0.26462   0.96622   0.00000  Uiso   1.00
H1091  H     0.11014   0.27907   0.91304   0.00000  Uiso   1.00
C1092  C     0.12728   0.32859   0.96520   0.00000  Uiso   1.00
H1093  H     0.15845   0.00390   0.99406   0.00000  Uiso   1.00
H1094  H     0.12099   0.02121   0.94017   0.00000  Uiso   1.00
C1095  C     0.07710   0.32189   0.98563   0.00000  Uiso   1.00
H1096  H     0.04582   0.31219   0.95740   0.00000  Uiso   1.00
H1097  H     0.06530   0.01789   0.66789   0.00000  Uiso   1.00
H1098  H     0.08235   0.29797   0.68000   0.00000  Uiso   1.00
H1099  H     0.10375   0.12518   0.70166   0.00000  Uiso   1.00
H1100  H     0.22988   0.20791   0.96500   0.00000  Uiso   1.00
H1101  H     0.10373   0.12516   0.94818   0.00000  Uiso   1.00
H1102  H     0.22972   0.20805   0.71849   0.00000  Uiso   1.00
C1103  C     0.49933   0.08746   0.83304   0.00000  Uiso   1.00
C1104  C     0.49901   0.24600   0.83363   0.00000  Uiso   1.00
C1105  C     0.40126   0.16654   0.82125   0.00000  Uiso   1.00
C1106  C     0.59874   0.16656   0.84541   0.00000  Uiso   1.00
C1107  C     0.34598   0.16626   0.81458   0.00000  Uiso   1.00
C1108  C     0.65403   0.16643   0.85205   0.00000  Uiso   1.00
C1109  C     0.47299   0.02069   0.79309   0.00000  Uiso   1.00
C1110  C     0.51150   0.31344   0.87656   0.00000  Uiso   1.00
C1111  C     0.47697   0.31134   0.79304   0.00000  Uiso   1.00
C1112  C     0.51592   0.02244   0.87411   0.00000  Uiso   1.00
C1113  C     0.49648   0.29074   0.83449   0.00000  Uiso   1.00
C1114  C     0.49672   0.04297   0.83277   0.00000  Uiso   1.00
C1115  C     0.46505   0.14366   0.68678   0.00000  Uiso   1.00
C1116  C     0.53519   0.18946   0.97990   0.00000  Uiso   1.00
C1117  C     0.46504   0.14368   0.97055   0.00000  Uiso   1.00
C1118  C     0.53507   0.18956   0.69613   0.00000  Uiso   1.00
Cu1119 Cu    0.50000   0.16667   0.88022   0.00000  Uiso   1.00
Cu1120 Cu    0.50000   0.16666   0.78645   0.00000  Uiso   1.00
H1121  H     0.46183   0.29425   0.76144   0.00000  Uiso   1.00
H1122  H     0.53213   0.03936   0.90554   0.00000  Uiso   1.00
N1123  N     0.50001   0.16668   0.95069   0.00000  Uiso   1.00
N1124  N     0.49999   0.16666   0.71597   0.00000  Uiso   1.00
O1125  O     0.50000   0.10655   0.87291   0.00000  Uiso   1.00
O1126  O     0.50000   0.22678   0.79375   0.00000  Uiso   1.00
O1127  O     0.50000   0.10654   0.79372   0.00000  Uiso   1.00
O1128  O     0.50000   0.22679   0.87294   0.00000  Uiso   1.00
O1129  O     0.42495   0.16667   0.86379   0.00000  Uiso   1.00
O1130  O     0.57505   0.16666   0.80288   0.00000  Uiso   1.00
O1131  O     0.42494   0.16666   0.78460   0.00000  Uiso   1.00
O1132  O     0.57506   0.16667   0.88207   0.00000  Uiso   1.00
H1133  H     0.65935   0.16601   0.77862   0.00000  Uiso   1.00
H1134  H     0.34066   0.16661   0.88801   0.00000  Uiso   1.00
O1135  O     0.44603   0.03967   0.75407   0.00000  Uiso   1.00
C1136  C     0.39787   0.05450   0.76502   0.00000  Uiso   1.00
H1137  H     0.38193   0.07547   0.73622   0.00000  Uiso   1.00
H1138  H     0.40190   0.07328   0.79808   0.00000  Uiso   1.00
C1139  C     0.35874   0.01962   0.76796   0.00000  Uiso   1.00
H1140  H     0.35506   0.00053   0.73525   0.00000  Uiso   1.00
H1141  H     0.37216   0.33287   0.79842   0.00000  Uiso   1.00
C1142  C     0.63906   0.03680   0.77442   0.00000  Uiso   1.00
H1143  H     0.64165   0.05569   0.80729   0.00000  Uiso   1.00
H1144  H     0.61176   0.01101   0.77702   0.00000  Uiso   1.00
H1145  H     0.62373   0.05611   0.74383   0.00000  Uiso   1.00
O1146  O     0.52269   0.29502   0.92023   0.00000  Uiso   1.00
C1147  C     0.47611   0.28955   0.93982   0.00000  Uiso   1.00
H1148  H     0.48259   0.26462   0.96622   0.00000  Uiso   1.00
H1149  H     0.44347   0.27907   0.91304   0.00000  Uiso   1.00
C1150  C     0.46061   0.32859   0.96520   0.00000  Uiso   1.00
H1151  H     0.49178   0.00390   0.99406   0.00000  Uiso   1.00
H1152  H     0.45433   0.02121   0.94017   0.00000  Uiso   1.00
C1153  C     0.41044   0.32189   0.98563   0.00000  Uiso   1.00
H1154  H     0.37916   0.31219   0.95740   0.00000  Uiso   1.00
H1155  H     0.39863   0.01789   0.66789   0.00000  Uiso   1.00
H1156  H     0.41568   0.29797   0.68000   0.00000  Uiso   1.00
H1157  H     0.43709   0.12518   0.70166   0.00000  Uiso   1.00
H1158  H     0.56321   0.20791   0.96500   0.00000  Uiso   1.00
H1159  H     0.43706   0.12516   0.94818   0.00000  Uiso   1.00
H1160  H     0.56305   0.20805   0.71849   0.00000  Uiso   1.00
C1161  C     0.83266   0.08746   0.83304   0.00000  Uiso   1.00
C1162  C     0.83235   0.24600   0.83363   0.00000  Uiso   1.00
C1163  C     0.73460   0.16654   0.82125   0.00000  Uiso   1.00
C1164  C     0.93207   0.16656   0.84541   0.00000  Uiso   1.00
C1165  C     0.67931   0.16626   0.81458   0.00000  Uiso   1.00
C1166  C     0.98736   0.16643   0.85205   0.00000  Uiso   1.00
C1167  C     0.80632   0.02069   0.79309   0.00000  Uiso   1.00
C1168  C     0.84483   0.31344   0.87656   0.00000  Uiso   1.00
C1169  C     0.81030   0.31134   0.79304   0.00000  Uiso   1.00
C1170  C     0.84926   0.02244   0.87411   0.00000  Uiso   1.00
C1171  C     0.82981   0.29074   0.83449   0.00000  Uiso   1.00
C1172  C     0.83005   0.04297   0.83277   0.00000  Uiso   1.00
C1173  C     0.79838   0.14366   0.68678   0.00000  Uiso   1.00
C1174  C     0.86852   0.18946   0.97990   0.00000  Uiso   1.00
C1175  C     0.79837   0.14368   0.97055   0.00000  Uiso   1.00
C1176  C     0.86840   0.18956   0.69613   0.00000  Uiso   1.00
Cu1177 Cu    0.83333   0.16667   0.88022   0.00000  Uiso   1.00
Cu1178 Cu    0.83333   0.16666   0.78645   0.00000  Uiso   1.00
H1179  H     0.79516   0.29425   0.76144   0.00000  Uiso   1.00
H1180  H     0.86546   0.03936   0.90554   0.00000  Uiso   1.00
N1181  N     0.83335   0.16668   0.95069   0.00000  Uiso   1.00
N1182  N     0.83332   0.16666   0.71597   0.00000  Uiso   1.00
O1183  O     0.83333   0.10655   0.87291   0.00000  Uiso   1.00
O1184  O     0.83334   0.22678   0.79375   0.00000  Uiso   1.00
O1185  O     0.83333   0.10654   0.79372   0.00000  Uiso   1.00
O1186  O     0.83334   0.22679   0.87294   0.00000  Uiso   1.00
O1187  O     0.75828   0.16667   0.86379   0.00000  Uiso   1.00
O1188  O     0.90839   0.16666   0.80288   0.00000  Uiso   1.00
O1189  O     0.75828   0.16666   0.78460   0.00000  Uiso   1.00
O1190  O     0.90839   0.16667   0.88207   0.00000  Uiso   1.00
H1191  H     0.99269   0.16601   0.77862   0.00000  Uiso   1.00
H1192  H     0.67400   0.16661   0.88801   0.00000  Uiso   1.00
O1193  O     0.77937   0.03967   0.75407   0.00000  Uiso   1.00
C1194  C     0.73121   0.05450   0.76502   0.00000  Uiso   1.00
H1195  H     0.71526   0.07547   0.73622   0.00000  Uiso   1.00
H1196  H     0.73524   0.07328   0.79808   0.00000  Uiso   1.00
C1197  C     0.69207   0.01962   0.76796   0.00000  Uiso   1.00
H1198  H     0.68840   0.00053   0.73525   0.00000  Uiso   1.00
H1199  H     0.70549   0.33287   0.79842   0.00000  Uiso   1.00
C1200  C     0.97239   0.03680   0.77442   0.00000  Uiso   1.00
H1201  H     0.97498   0.05569   0.80729   0.00000  Uiso   1.00
H1202  H     0.94509   0.01101   0.77702   0.00000  Uiso   1.00
H1203  H     0.95706   0.05611   0.74383   0.00000  Uiso   1.00
O1204  O     0.85602   0.29502   0.92023   0.00000  Uiso   1.00
C1205  C     0.80944   0.28955   0.93982   0.00000  Uiso   1.00
H1206  H     0.81592   0.26462   0.96622   0.00000  Uiso   1.00
H1207  H     0.77681   0.27907   0.91304   0.00000  Uiso   1.00
C1208  C     0.79394   0.32859   0.96520   0.00000  Uiso   1.00
H1209  H     0.82511   0.00390   0.99406   0.00000  Uiso   1.00
H1210  H     0.78766   0.02121   0.94017   0.00000  Uiso   1.00
C1211  C     0.74377   0.32189   0.98563   0.00000  Uiso   1.00
H1212  H     0.71249   0.31219   0.95740   0.00000  Uiso   1.00
H1213  H     0.73197   0.01789   0.66789   0.00000  Uiso   1.00
H1214  H     0.74902   0.29797   0.68000   0.00000  Uiso   1.00
H1215  H     0.77042   0.12518   0.70166   0.00000  Uiso   1.00
H1216  H     0.89655   0.20791   0.96500   0.00000  Uiso   1.00
H1217  H     0.77040   0.12516   0.94818   0.00000  Uiso   1.00
H1218  H     0.89639   0.20805   0.71849   0.00000  Uiso   1.00
C1219  C     0.16599   0.42080   0.83304   0.00000  Uiso   1.00
C1220  C     0.16568   0.57934   0.83363   0.00000  Uiso   1.00
C1221  C     0.06793   0.49987   0.82125   0.00000  Uiso   1.00
C1222  C     0.26541   0.49989   0.84541   0.00000  Uiso   1.00
C1223  C     0.01265   0.49960   0.81458   0.00000  Uiso   1.00
C1224  C     0.32069   0.49976   0.85205   0.00000  Uiso   1.00
C1225  C     0.13965   0.35402   0.79309   0.00000  Uiso   1.00
C1226  C     0.17816   0.64677   0.87656   0.00000  Uiso   1.00
C1227  C     0.14363   0.64467   0.79304   0.00000  Uiso   1.00
C1228  C     0.18259   0.35577   0.87411   0.00000  Uiso   1.00
C1229  C     0.16314   0.62407   0.83449   0.00000  Uiso   1.00
C1230  C     0.16338   0.37631   0.83277   0.00000  Uiso   1.00
C1231  C     0.13171   0.47699   0.68678   0.00000  Uiso   1.00
C1232  C     0.20185   0.52279   0.97990   0.00000  Uiso   1.00
C1233  C     0.13170   0.47701   0.97055   0.00000  Uiso   1.00
C1234  C     0.20173   0.52289   0.69613   0.00000  Uiso   1.00
Cu1235 Cu    0.16667   0.50001   0.88022   0.00000  Uiso   1.00
Cu1236 Cu    0.16667   0.49999   0.78645   0.00000  Uiso   1.00
H1237  H     0.12849   0.62758   0.76144   0.00000  Uiso   1.00
H1238  H     0.19879   0.37270   0.90554   0.00000  Uiso   1.00
N1239  N     0.16668   0.50001   0.95069   0.00000  Uiso   1.00
N1240  N     0.16665   0.49999   0.71597   0.00000  Uiso   1.00
O1241  O     0.16666   0.43989   0.87291   0.00000  Uiso   1.00
O1242  O     0.16667   0.56011   0.79375   0.00000  Uiso   1.00
O1243  O     0.16666   0.43988   0.79372   0.00000  Uiso   1.00
O1244  O     0.16667   0.56012   0.87294   0.00000  Uiso   1.00
O1245  O     0.09161   0.50000   0.86379   0.00000  Uiso   1.00
O1246  O     0.24172   0.50000   0.80288   0.00000  Uiso   1.00
O1247  O     0.09161   0.49999   0.78460   0.00000  Uiso   1.00
O1248  O     0.24172   0.50001   0.88207   0.00000  Uiso   1.00
H1249  H     0.32602   0.49935   0.77862   0.00000  Uiso   1.00
H1250  H     0.00733   0.49994   0.88801   0.00000  Uiso   1.00
O1251  O     0.11270   0.37300   0.75407   0.00000  Uiso   1.00
C1252  C     0.06454   0.38783   0.76502   0.00000  Uiso   1.00
H1253  H     0.04860   0.40881   0.73622   0.00000  Uiso   1.00
H1254  H     0.06857   0.40661   0.79808   0.00000  Uiso   1.00
C1255  C     0.02540   0.35295   0.76796   0.00000  Uiso   1.00
H1256  H     0.02173   0.33386   0.73525   0.00000  Uiso   1.00
H1257  H     0.03882   0.66621   0.79842   0.00000  Uiso   1.00
C1258  C     0.30573   0.37013   0.77442   0.00000  Uiso   1.00
H1259  H     0.30832   0.38902   0.80729   0.00000  Uiso   1.00
H1260  H     0.27843   0.34435   0.77702   0.00000  Uiso   1.00
H1261  H     0.29039   0.38945   0.74383   0.00000  Uiso   1.00
O1262  O     0.18935   0.62836   0.92023   0.00000  Uiso   1.00
C1263  C     0.14277   0.62288   0.93982   0.00000  Uiso   1.00
H1264  H     0.14926   0.59796   0.96622   0.00000  Uiso   1.00
H1265  H     0.11014   0.61241   0.91304   0.00000  Uiso   1.00
C1266  C     0.12728   0.66192   0.96520   0.00000  Uiso   1.00
H1267  H     0.15845   0.33723   0.99406   0.00000  Uiso   1.00
H1268  H     0.12099   0.35454   0.94017   0.00000  Uiso   1.00
C1269  C     0.07710   0.65522   0.98563   0.00000  Uiso   1.00
H1270  H     0.04582   0.64552   0.95740   0.00000  Uiso   1.00
H1271  H     0.06530   0.35122   0.66789   0.00000  Uiso   1.00
H1272  H     0.08235   0.63131   0.68000   0.00000  Uiso   1.00
H1273  H     0.10375   0.45851   0.70166   0.00000  Uiso   1.00
H1274  H     0.22988   0.54125   0.96500   0.00000  Uiso   1.00
H1275  H     0.10373   0.45850   0.94818   0.00000  Uiso   1.00
H1276  H     0.22972   0.54138   0.71849   0.00000  Uiso   1.00
C1277  C     0.49933   0.42080   0.83304   0.00000  Uiso   1.00
C1278  C     0.49901   0.57934   0.83363   0.00000  Uiso   1.00
C1279  C     0.40126   0.49987   0.82125   0.00000  Uiso   1.00
C1280  C     0.59874   0.49989   0.84541   0.00000  Uiso   1.00
C1281  C     0.34598   0.49960   0.81458   0.00000  Uiso   1.00
C1282  C     0.65403   0.49976   0.85205   0.00000  Uiso   1.00
C1283  C     0.47299   0.35402   0.79309   0.00000  Uiso   1.00
C1284  C     0.51150   0.64677   0.87656   0.00000  Uiso   1.00
C1285  C     0.47697   0.64467   0.79304   0.00000  Uiso   1.00
C1286  C     0.51592   0.35577   0.87411   0.00000  Uiso   1.00
C1287  C     0.49648   0.62407   0.83449   0.00000  Uiso   1.00
C1288  C     0.49672   0.37631   0.83277   0.00000  Uiso   1.00
C1289  C     0.46505   0.47699   0.68678   0.00000  Uiso   1.00
C1290  C     0.53519   0.52279   0.97990   0.00000  Uiso   1.00
C1291  C     0.46504   0.47701   0.97055   0.00000  Uiso   1.00
C1292  C     0.53507   0.52289   0.69613   0.00000  Uiso   1.00
Cu1293 Cu    0.50000   0.50001   0.88022   0.00000  Uiso   1.00
Cu1294 Cu    0.50000   0.49999   0.78645   0.00000  Uiso   1.00
H1295  H     0.46183   0.62758   0.76144   0.00000  Uiso   1.00
H1296  H     0.53213   0.37270   0.90554   0.00000  Uiso   1.00
N1297  N     0.50001   0.50001   0.95069   0.00000  Uiso   1.00
N1298  N     0.49999   0.49999   0.71597   0.00000  Uiso   1.00
O1299  O     0.50000   0.43989   0.87291   0.00000  Uiso   1.00
O1300  O     0.50000   0.56011   0.79375   0.00000  Uiso   1.00
O1301  O     0.50000   0.43988   0.79372   0.00000  Uiso   1.00
O1302  O     0.50000   0.56012   0.87294   0.00000  Uiso   1.00
O1303  O     0.42495   0.50000   0.86379   0.00000  Uiso   1.00
O1304  O     0.57505   0.50000   0.80288   0.00000  Uiso   1.00
O1305  O     0.42494   0.49999   0.78460   0.00000  Uiso   1.00
O1306  O     0.57506   0.50001   0.88207   0.00000  Uiso   1.00
H1307  H     0.65935   0.49935   0.77862   0.00000  Uiso   1.00
H1308  H     0.34066   0.49994   0.88801   0.00000  Uiso   1.00
O1309  O     0.44603   0.37300   0.75407   0.00000  Uiso   1.00
C1310  C     0.39787   0.38783   0.76502   0.00000  Uiso   1.00
H1311  H     0.38193   0.40881   0.73622   0.00000  Uiso   1.00
H1312  H     0.40190   0.40661   0.79808   0.00000  Uiso   1.00
C1313  C     0.35874   0.35295   0.76796   0.00000  Uiso   1.00
H1314  H     0.35506   0.33386   0.73525   0.00000  Uiso   1.00
H1315  H     0.37216   0.66621   0.79842   0.00000  Uiso   1.00
C1316  C     0.63906   0.37013   0.77442   0.00000  Uiso   1.00
H1317  H     0.64165   0.38902   0.80729   0.00000  Uiso   1.00
H1318  H     0.61176   0.34435   0.77702   0.00000  Uiso   1.00
H1319  H     0.62373   0.38945   0.74383   0.00000  Uiso   1.00
O1320  O     0.52269   0.62836   0.92023   0.00000  Uiso   1.00
C1321  C     0.47611   0.62288   0.93982   0.00000  Uiso   1.00
H1322  H     0.48259   0.59796   0.96622   0.00000  Uiso   1.00
H1323  H     0.44347   0.61241   0.91304   0.00000  Uiso   1.00
C1324  C     0.46061   0.66192   0.96520   0.00000  Uiso   1.00
H1325  H     0.49178   0.33723   0.99406   0.00000  Uiso   1.00
H1326  H     0.45433   0.35454   0.94017   0.00000  Uiso   1.00
C1327  C     0.41044   0.65522   0.98563   0.00000  Uiso   1.00
H1328  H     0.37916   0.64552   0.95740   0.00000  Uiso   1.00
H1329  H     0.39863   0.35122   0.66789   0.00000  Uiso   1.00
H1330  H     0.41568   0.63131   0.68000   0.00000  Uiso   1.00
H1331  H     0.43709   0.45851   0.70166   0.00000  Uiso   1.00
H1332  H     0.56321   0.54125   0.96500   0.00000  Uiso   1.00
H1333  H     0.43706   0.45850   0.94818   0.00000  Uiso   1.00
H1334  H     0.56305   0.54138   0.71849   0.00000  Uiso   1.00
C1335  C     0.83266   0.42080   0.83304   0.00000  Uiso   1.00
C1336  C     0.83235   0.57934   0.83363   0.00000  Uiso   1.00
C1337  C     0.73460   0.49987   0.82125   0.00000  Uiso   1.00
C1338  C     0.93207   0.49989   0.84541   0.00000  Uiso   1.00
C1339  C     0.67931   0.49960   0.81458   0.00000  Uiso   1.00
C1340  C     0.98736   0.49976   0.85205   0.00000  Uiso   1.00
C1341  C     0.80632   0.35402   0.79309   0.00000  Uiso   1.00
C1342  C     0.84483   0.64677   0.87656   0.00000  Uiso   1.00
C1343  C     0.81030   0.64467   0.79304   0.00000  Uiso   1.00
C1344  C     0.84926   0.35577   0.87411   0.00000  Uiso   1.00
C1345  C     0.82981   0.62407   0.83449   0.00000  Uiso   1.00
C1346  C     0.83005   0.37631   0.83277   0.00000  Uiso   1.00
C1347  C     0.79838   0.47699   0.68678   0.00000  Uiso   1.00
C1348  C     0.86852   0.52279   0.97990   0.00000  Uiso   1.00
C1349  C     0.79837   0.47701   0.97055   0.00000  Uiso   1.00
C1350  C     0.86840   0.52289   0.69613   0.00000  Uiso   1.00
Cu1351 Cu    0.83333   0.50001   0.88022   0.00000  Uiso   1.00
Cu1352 Cu    0.83333   0.49999   0.78645   0.00000  Uiso   1.00
H1353  H     0.79516   0.62758   0.76144   0.00000  Uiso   1.00
H1354  H     0.86546   0.37270   0.90554   0.00000  Uiso   1.00
N1355  N     0.83335   0.50001   0.95069   0.00000  Uiso   1.00
N1356  N     0.83332   0.49999   0.71597   0.00000  Uiso   1.00
O1357  O     0.83333   0.43989   0.87291   0.00000  Uiso   1.00
O1358  O     0.83334   0.56011   0.79375   0.00000  Uiso   1.00
O1359  O     0.83333   0.43988   0.79372   0.00000  Uiso   1.00
O1360  O     0.83334   0.56012   0.87294   0.00000  Uiso   1.00
O1361  O     0.75828   0.50000   0.86379   0.00000  Uiso   1.00
O1362  O     0.90839   0.50000   0.80288   0.00000  Uiso   1.00
O1363  O     0.75828   0.49999   0.78460   0.00000  Uiso   1.00
O1364  O     0.90839   0.50001   0.88207   0.00000  Uiso   1.00
H1365  H     0.99269   0.49935   0.77862   0.00000  Uiso   1.00
H1366  H     0.67400   0.49994   0.88801   0.00000  Uiso   1.00
O1367  O     0.77937   0.37300   0.75407   0.00000  Uiso   1.00
C1368  C     0.73121   0.38783   0.76502   0.00000  Uiso   1.00
H1369  H     0.71526   0.40881   0.73622   0.00000  Uiso   1.00
H1370  H     0.73524   0.40661   0.79808   0.00000  Uiso   1.00
C1371  C     0.69207   0.35295   0.76796   0.00000  Uiso   1.00
H1372  H     0.68840   0.33386   0.73525   0.00000  Uiso   1.00
H1373  H     0.70549   0.66621   0.79842   0.00000  Uiso   1.00
C1374  C     0.97239   0.37013   0.77442   0.00000  Uiso   1.00
H1375  H     0.97498   0.38902   0.80729   0.00000  Uiso   1.00
H1376  H     0.94509   0.34435   0.77702   0.00000  Uiso   1.00
H1377  H     0.95706   0.38945   0.74383   0.00000  Uiso   1.00
O1378  O     0.85602   0.62836   0.92023   0.00000  Uiso   1.00
C1379  C     0.80944   0.62288   0.93982   0.00000  Uiso   1.00
H1380  H     0.81592   0.59796   0.96622   0.00000  Uiso   1.00
H1381  H     0.77681   0.61241   0.91304   0.00000  Uiso   1.00
C1382  C     0.79394   0.66192   0.96520   0.00000  Uiso   1.00
H1383  H     0.82511   0.33723   0.99406   0.00000  Uiso   1.00
H1384  H     0.78766   0.35454   0.94017   0.00000  Uiso   1.00
C1385  C     0.74377   0.65522   0.98563   0.00000  Uiso   1.00
H1386  H     0.71249   0.64552   0.95740   0.00000  Uiso   1.00
H1387  H     0.73197   0.35122   0.66789   0.00000  Uiso   1.00
H1388  H     0.74902   0.63131   0.68000   0.00000  Uiso   1.00
H1389  H     0.77042   0.45851   0.70166   0.00000  Uiso   1.00
H1390  H     0.89655   0.54125   0.96500   0.00000  Uiso   1.00
H1391  H     0.77040   0.45850   0.94818   0.00000  Uiso   1.00
H1392  H     0.89639   0.54138   0.71849   0.00000  Uiso   1.00
C1393  C     0.16599   0.75413   0.83304   0.00000  Uiso   1.00
C1394  C     0.16568   0.91267   0.83363   0.00000  Uiso   1.00
C1395  C     0.06793   0.83320   0.82125   0.00000  Uiso   1.00
C1396  C     0.26541   0.83323   0.84541   0.00000  Uiso   1.00
C1397  C     0.01265   0.83293   0.81458   0.00000  Uiso   1.00
C1398  C     0.32069   0.83310   0.85205   0.00000  Uiso   1.00
C1399  C     0.13965   0.68735   0.79309   0.00000  Uiso   1.00
C1400  C     0.17816   0.98010   0.87656   0.00000  Uiso   1.00
C1401  C     0.14363   0.97800   0.79304   0.00000  Uiso   1.00
C1402  C     0.18259   0.68911   0.87411   0.00000  Uiso   1.00
C1403  C     0.16314   0.95741   0.83449   0.00000  Uiso   1.00
C1404  C     0.16338   0.70964   0.83277   0.00000  Uiso   1.00
C1405  C     0.13171   0.81032   0.68678   0.00000  Uiso   1.00
C1406  C     0.20185   0.85612   0.97990   0.00000  Uiso   1.00
C1407  C     0.13170   0.81034   0.97055   0.00000  Uiso   1.00
C1408  C     0.20173   0.85622   0.69613   0.00000  Uiso   1.00
Cu1409 Cu    0.16667   0.83334   0.88022   0.00000  Uiso   1.00
Cu1410 Cu    0.16667   0.83333   0.78645   0.00000  Uiso   1.00
H1411  H     0.12849   0.96092   0.76144   0.00000  Uiso   1.00
H1412  H     0.19879   0.70603   0.90554   0.00000  Uiso   1.00
N1413  N     0.16668   0.83334   0.95069   0.00000  Uiso   1.00
N1414  N     0.16665   0.83332   0.71597   0.00000  Uiso   1.00
O1415  O     0.16666   0.77322   0.87291   0.00000  Uiso   1.00
O1416  O     0.16667   0.89345   0.79375   0.00000  Uiso   1.00
O1417  O     0.16666   0.77321   0.79372   0.00000  Uiso   1.00
O1418  O     0.16667   0.89346   0.87294   0.00000  Uiso   1.00
O1419  O     0.09161   0.83334   0.86379   0.00000  Uiso   1.00
O1420  O     0.24172   0.83333   0.80288   0.00000  Uiso   1.00
O1421  O     0.09161   0.83333   0.78460   0.00000  Uiso   1.00
O1422  O     0.24172   0.83334   0.88207   0.00000  Uiso   1.00
H1423  H     0.32602   0.83268   0.77862   0.00000  Uiso   1.00
H1424  H     0.00733   0.83327   0.88801   0.00000  Uiso   1.00
O1425  O     0.11270   0.70633   0.75407   0.00000  Uiso   1.00
C1426  C     0.06454   0.72117   0.76502   0.00000  Uiso   1.00
H1427  H     0.04860   0.74214   0.73622   0.00000  Uiso   1.00
H1428  H     0.06857   0.73995   0.79808   0.00000  Uiso   1.00
C1429  C     0.02540   0.68629   0.76796   0.00000  Uiso   1.00
H1430  H     0.02173   0.66720   0.73525   0.00000  Uiso   1.00
H1431  H     0.03882   0.99954   0.79842   0.00000  Uiso   1.00
C1432  C     0.30573   0.70347   0.77442   0.00000  Uiso   1.00
H1433  H     0.30832   0.72236   0.80729   0.00000  Uiso   1.00
H1434  H     0.27843   0.67768   0.77702   0.00000  Uiso   1.00
H1435  H     0.29039   0.72278   0.74383   0.00000  Uiso   1.00
O1436  O     0.18935   0.96169   0.92023   0.00000  Uiso   1.00
C1437  C     0.14277   0.95622   0.93982   0.00000  Uiso   1.00
H1438  H     0.14926   0.93129   0.96622   0.00000  Uiso   1.00
H1439  H     0.11014   0.94574   0.91304   0.00000  Uiso   1.00
C1440  C     0.12728   0.99525   0.96520   0.00000  Uiso   1.00
H1441  H     0.15845   0.67056   0.99406   0.00000  Uiso   1.00
H1442  H     0.12099   0.68787   0.94017   0.00000  Uiso   1.00
C1443  C     0.07710   0.98856   0.98563   0.00000  Uiso   1.00
H1444  H     0.04582   0.97886   0.95740   0.00000  Uiso   1.00
H1445  H     0.06530   0.68456   0.66789   0.00000  Uiso   1.00
H1446  H     0.08235   0.96464   0.68000   0.00000  Uiso   1.00
H1447  H     0.10375   0.79185   0.70166   0.00000  Uiso   1.00
H1448  H     0.22988   0.87458   0.96500   0.00000  Uiso   1.00
H1449  H     0.10373   0.79183   0.94818   0.00000  Uiso   1.00
H1450  H     0.22972   0.87472   0.71849   0.00000  Uiso   1.00
C1451  C     0.49933   0.75413   0.83304   0.00000  Uiso   1.00
C1452  C     0.49901   0.91267   0.83363   0.00000  Uiso   1.00
C1453  C     0.40126   0.83320   0.82125   0.00000  Uiso   1.00
C1454  C     0.59874   0.83323   0.84541   0.00000  Uiso   1.00
C1455  C     0.34598   0.83293   0.81458   0.00000  Uiso   1.00
C1456  C     0.65403   0.83310   0.85205   0.00000  Uiso   1.00
C1457  C     0.47299   0.68735   0.79309   0.00000  Uiso   1.00
C1458  C     0.51150   0.98010   0.87656   0.00000  Uiso   1.00
C1459  C     0.47697   0.97800   0.79304   0.00000  Uiso   1.00
C1460  C     0.51592   0.68911   0.87411   0.00000  Uiso   1.00
C1461  C     0.49648   0.95741   0.83449   0.00000  Uiso   1.00
C1462  C     0.49672   0.70964   0.83277   0.00000  Uiso   1.00
C1463  C     0.46505   0.81032   0.68678   0.00000  Uiso   1.00
C1464  C     0.53519   0.85612   0.97990   0.00000  Uiso   1.00
C1465  C     0.46504   0.81034   0.97055   0.00000  Uiso   1.00
C1466  C     0.53507   0.85622   0.69613   0.00000  Uiso   1.00
Cu1467 Cu    0.50000   0.83334   0.88022   0.00000  Uiso   1.00
Cu1468 Cu    0.50000   0.83333   0.78645   0.00000  Uiso   1.00
H1469  H     0.46183   0.96092   0.76144   0.00000  Uiso   1.00
H1470  H     0.53213   0.70603   0.90554   0.00000  Uiso   1.00
N1471  N     0.50001   0.83334   0.95069   0.00000  Uiso   1.00
N1472  N     0.49999   0.83332   0.71597   0.00000  Uiso   1.00
O1473  O     0.50000   0.77322   0.87291   0.00000  Uiso   1.00
O1474  O     0.50000   0.89345   0.79375   0.00000  Uiso   1.00
O1475  O     0.50000   0.77321   0.79372   0.00000  Uiso   1.00
O1476  O     0.50000   0.89346   0.87294   0.00000  Uiso   1.00
O1477  O     0.42495   0.83334   0.86379   0.00000  Uiso   1.00
O1478  O     0.57505   0.83333   0.80288   0.00000  Uiso   1.00
O1479  O     0.42494   0.83333   0.78460   0.00000  Uiso   1.00
O1480  O     0.57506   0.83334   0.88207   0.00000  Uiso   1.00
H1481  H     0.65935   0.83268   0.77862   0.00000  Uiso   1.00
H1482  H     0.34066   0.83327   0.88801   0.00000  Uiso   1.00
O1483  O     0.44603   0.70633   0.75407   0.00000  Uiso   1.00
C1484  C     0.39787   0.72117   0.76502   0.00000  Uiso   1.00
H1485  H     0.38193   0.74214   0.73622   0.00000  Uiso   1.00
H1486  H     0.40190   0.73995   0.79808   0.00000  Uiso   1.00
C1487  C     0.35874   0.68629   0.76796   0.00000  Uiso   1.00
H1488  H     0.35506   0.66720   0.73525   0.00000  Uiso   1.00
H1489  H     0.37216   0.99954   0.79842   0.00000  Uiso   1.00
C1490  C     0.63906   0.70347   0.77442   0.00000  Uiso   1.00
H1491  H     0.64165   0.72236   0.80729   0.00000  Uiso   1.00
H1492  H     0.61176   0.67768   0.77702   0.00000  Uiso   1.00
H1493  H     0.62373   0.72278   0.74383   0.00000  Uiso   1.00
O1494  O     0.52269   0.96169   0.92023   0.00000  Uiso   1.00
C1495  C     0.47611   0.95622   0.93982   0.00000  Uiso   1.00
H1496  H     0.48259   0.93129   0.96622   0.00000  Uiso   1.00
H1497  H     0.44347   0.94574   0.91304   0.00000  Uiso   1.00
C1498  C     0.46061   0.99525   0.96520   0.00000  Uiso   1.00
H1499  H     0.49178   0.67056   0.99406   0.00000  Uiso   1.00
H1500  H     0.45433   0.68787   0.94017   0.00000  Uiso   1.00
C1501  C     0.41044   0.98856   0.98563   0.00000  Uiso   1.00
H1502  H     0.37916   0.97886   0.95740   0.00000  Uiso   1.00
H1503  H     0.39863   0.68456   0.66789   0.00000  Uiso   1.00
H1504  H     0.41568   0.96464   0.68000   0.00000  Uiso   1.00
H1505  H     0.43709   0.79185   0.70166   0.00000  Uiso   1.00
H1506  H     0.56321   0.87458   0.96500   0.00000  Uiso   1.00
H1507  H     0.43706   0.79183   0.94818   0.00000  Uiso   1.00
H1508  H     0.56305   0.87472   0.71849   0.00000  Uiso   1.00
C1509  C     0.83266   0.75413   0.83304   0.00000  Uiso   1.00
C1510  C     0.83235   0.91267   0.83363   0.00000  Uiso   1.00
C1511  C     0.73460   0.83320   0.82125   0.00000  Uiso   1.00
C1512  C     0.93207   0.83323   0.84541   0.00000  Uiso   1.00
C1513  C     0.67931   0.83293   0.81458   0.00000  Uiso   1.00
C1514  C     0.98736   0.83310   0.85205   0.00000  Uiso   1.00
C1515  C     0.80632   0.68735   0.79309   0.00000  Uiso   1.00
C1516  C     0.84483   0.98010   0.87656   0.00000  Uiso   1.00
C1517  C     0.81030   0.97800   0.79304   0.00000  Uiso   1.00
C1518  C     0.84926   0.68911   0.87411   0.00000  Uiso   1.00
C1519  C     0.82981   0.95741   0.83449   0.00000  Uiso   1.00
C1520  C     0.83005   0.70964   0.83277   0.00000  Uiso   1.00
C1521  C     0.79838   0.81032   0.68678   0.00000  Uiso   1.00
C1522  C     0.86852   0.85612   0.97990   0.00000  Uiso   1.00
C1523  C     0.79837   0.81034   0.97055   0.00000  Uiso   1.00
C1524  C     0.86840   0.85622   0.69613   0.00000  Uiso   1.00
Cu1525 Cu    0.83333   0.83334   0.88022   0.00000  Uiso   1.00
Cu1526 Cu    0.83333   0.83333   0.78645   0.00000  Uiso   1.00
H1527  H     0.79516   0.96092   0.76144   0.00000  Uiso   1.00
H1528  H     0.86546   0.70603   0.90554   0.00000  Uiso   1.00
N1529  N     0.83335   0.83334   0.95069   0.00000  Uiso   1.00
N1530  N     0.83332   0.83332   0.71597   0.00000  Uiso   1.00
O1531  O     0.83333   0.77322   0.87291   0.00000  Uiso   1.00
O1532  O     0.83334   0.89345   0.79375   0.00000  Uiso   1.00
O1533  O     0.83333   0.77321   0.79372   0.00000  Uiso   1.00
O1534  O     0.83334   0.89346   0.87294   0.00000  Uiso   1.00
O1535  O     0.75828   0.83334   0.86379   0.00000  Uiso   1.00
O1536  O     0.90839   0.83333   0.80288   0.00000  Uiso   1.00
O1537  O     0.75828   0.83333   0.78460   0.00000  Uiso   1.00
O1538  O     0.90839   0.83334   0.88207   0.00000  Uiso   1.00
H1539  H     0.99269   0.83268   0.77862   0.00000  Uiso   1.00
H1540  H     0.67400   0.83327   0.88801   0.00000  Uiso   1.00
O1541  O     0.77937   0.70633   0.75407   0.00000  Uiso   1.00
C1542  C     0.73121   0.72117   0.76502   0.00000  Uiso   1.00
H1543  H     0.71526   0.74214   0.73622   0.00000  Uiso   1.00
H1544  H     0.73524   0.73995   0.79808   0.00000  Uiso   1.00
C1545  C     0.69207   0.68629   0.76796   0.00000  Uiso   1.00
H1546  H     0.68840   0.66720   0.73525   0.00000  Uiso   1.00
H1547  H     0.70549   0.99954   0.79842   0.00000  Uiso   1.00
C1548  C     0.97239   0.70347   0.77442   0.00000  Uiso   1.00
H1549  H     0.97498   0.72236   0.80729   0.00000  Uiso   1.00
H1550  H     0.94509   0.67768   0.77702   0.00000  Uiso   1.00
H1551  H     0.95706   0.72278   0.74383   0.00000  Uiso   1.00
O1552  O     0.85602   0.96169   0.92023   0.00000  Uiso   1.00
C1553  C     0.80944   0.95622   0.93982   0.00000  Uiso   1.00
H1554  H     0.81592   0.93129   0.96622   0.00000  Uiso   1.00
H1555  H     0.77681   0.94574   0.91304   0.00000  Uiso   1.00
C1556  C     0.79394   0.99525   0.96520   0.00000  Uiso   1.00
H1557  H     0.82511   0.67056   0.99406   0.00000  Uiso   1.00
H1558  H     0.78766   0.68787   0.94017   0.00000  Uiso   1.00
C1559  C     0.74377   0.98856   0.98563   0.00000  Uiso   1.00
H1560  H     0.71249   0.97886   0.95740   0.00000  Uiso   1.00
H1561  H     0.73197   0.68456   0.66789   0.00000  Uiso   1.00
H1562  H     0.74902   0.96464   0.68000   0.00000  Uiso   1.00
H1563  H     0.77042   0.79185   0.70166   0.00000  Uiso   1.00
H1564  H     0.89655   0.87458   0.96500   0.00000  Uiso   1.00
H1565  H     0.77040   0.79183   0.94818   0.00000  Uiso   1.00
H1566  H     0.89639   0.87472   0.71849   0.00000  Uiso   1.00
loop_
_geom_bond_atom_site_label_1
_geom_bond_atom_site_label_2
_geom_bond_distance
_geom_bond_site_symmetry_2
_ccdc_geom_bond_type
C1     O25     1.291   .     A
C1     C12     1.446   .     S
C1     O23     1.290   .     A
C2     O26     1.288   .     A
C2     C11     1.454   .     S
C2     O24     1.298   .     A
C3     O27     1.287   .     A
C3     O29     1.288   .     A
C3     C5      1.432   .     S
C4     O28     1.287   .     A
C4     C6      1.433   .     S
C4     O30     1.289   .     A
C5     C122    1.334   1_455 S
C5     H147    1.087   1_455 S
C6     C63     1.334   .     S
C6     H90     1.087   .     S
C7     O33     1.385   .     S
C7     C12     1.410   .     A
C7     C357    1.390   1_545 S
C8     C11     1.413   .     A
C8     O44     1.385   .     S
C8     C184    1.383   .     S
C9     C11     1.401   .     A
C9     H19     1.083   .     S
C9     C181    1.390   .     S
C10    C12     1.395   .     A
C10    H20     1.084   .     S
C10    C356    1.383   1_545 S
C13    N22     1.367   .     A
C13    H55     1.080   .     S
C13    C1059   1.417   1_554 S
C14    H56     1.082   .     S
C14    N21     1.367   .     A
C14    C538    1.417   .     S
C15    H57     1.082   .     S
C15    N21     1.367   .     A
C15    C535    1.417   .     S
C16    H58     1.082   .     S
C16    N22     1.367   .     A
C16    C1058   1.417   1_554 S
Cu17   Cu18    2.681   .     S
Cu17   O30     1.957   .     S
Cu17   O23     1.961   .     S
Cu17   O26     1.965   .     S
Cu17   O27     1.955   .     S
Cu17   N21     2.015   .     S
Cu18   O29     1.957   .     S
Cu18   O24     1.961   .     S
Cu18   O25     1.965   .     S
Cu18   O28     1.955   .     S
Cu18   N22     2.015   .     S
H31    C63     1.087   .     S
H32    C122    1.087   1_455 S
O33    C34     1.421   .     S
C34    C37     1.538   .     S
C34    H36     1.112   .     S
C34    H35     1.110   .     S
C37    H38     1.110   .     S
C37    H387    1.111   1_545 S
C37    C156    1.528   1_455 S
H39    C211    1.111   .     S
C40    H41     1.111   .     S
C40    H43     1.111   .     S
C40    H42     1.111   .     S
C40    C95     1.528   .     S
O44    C45     1.421   .     S
C45    H46     1.109   .     S
C45    C48     1.535   .     S
C45    H47     1.117   .     S
C48    C51     1.524   .     S
C48    H223    1.112   .     S
C48    H224    1.109   .     S
H49    C396    1.112   1_545 S
H50    C396    1.109   1_545 S
C51    H52     1.111   .     S
C51    H749    1.109   .     S
C51    H576    1.110   .     S
H53    C1443   1.109   1_544 S
H54    C1095   1.110   1_554 S
C59    O83     1.291   .     A
C59    C70     1.446   .     S
C59    O81     1.290   .     A
C60    O84     1.288   .     A
C60    C69     1.454   .     S
C60    O82     1.298   .     A
C61    O85     1.287   .     A
C61    O87     1.288   .     A
C61    C63     1.432   .     S
C62    O86     1.287   .     A
C62    C64     1.433   .     S
C62    O88     1.289   .     A
C64    C121    1.334   .     S
C64    H148    1.087   .     S
C65    O91     1.385   .     S
C65    C70     1.410   .     A
C65    C415    1.390   1_545 S
C66    C69     1.413   .     A
C66    O102    1.385   .     S
C66    C242    1.383   .     S
C67    C69     1.401   .     A
C67    H77     1.083   .     S
C67    C239    1.390   .     S
C68    C70     1.395   .     A
C68    H78     1.084   .     S
C68    C414    1.383   1_545 S
C71    N80     1.367   .     A
C71    H113    1.080   .     S
C71    C1117   1.417   1_554 S
C72    H114    1.082   .     S
C72    N79     1.367   .     A
C72    C596    1.417   .     S
C73    H115    1.082   .     S
C73    N79     1.367   .     A
C73    C593    1.417   .     S
C74    H116    1.082   .     S
C74    N80     1.367   .     A
C74    C1116   1.417   1_554 S
Cu75   Cu76    2.681   .     S
Cu75   O88     1.957   .     S
Cu75   O81     1.961   .     S
Cu75   O84     1.965   .     S
Cu75   O85     1.955   .     S
Cu75   N79     2.015   .     S
Cu76   O87     1.957   .     S
Cu76   O82     1.961   .     S
Cu76   O83     1.965   .     S
Cu76   O86     1.955   .     S
Cu76   N80     2.015   .     S
H89    C121    1.087   .     S
O91    C92     1.421   .     S
C92    C95     1.538   .     S
C92    H94     1.112   .     S
C92    H93     1.110   .     S
C95    H96     1.110   .     S
C95    H445    1.111   1_545 S
H97    C269    1.111   .     S
C98    H99     1.111   .     S
C98    H101    1.111   .     S
C98    H100    1.111   .     S
C98    C153    1.528   .     S
O102   C103    1.421   .     S
C103   H104    1.109   .     S
C103   C106    1.535   .     S
C103   H105    1.117   .     S
C106   C109    1.524   .     S
C106   H281    1.112   .     S
C106   H282    1.109   .     S
H107   C454    1.112   1_545 S
H108   C454    1.109   1_545 S
C109   H110    1.111   .     S
C109   H807    1.109   .     S
C109   H634    1.110   .     S
H111   C1501   1.109   1_544 S
H112   C1153   1.110   1_554 S
C117   O141    1.291   .     A
C117   C128    1.446   .     S
C117   O139    1.290   .     A
C118   O142    1.288   .     A
C118   C127    1.454   .     S
C118   O140    1.298   .     A
C119   O143    1.287   .     A
C119   O145    1.288   .     A
C119   C121    1.432   .     S
C120   O144    1.287   .     A
C120   C122    1.433   .     S
C120   O146    1.289   .     A
C122   C5      1.334   1_655 S
C122   H32     1.087   1_655 S
C123   O149    1.385   .     S
C123   C128    1.410   .     A
C123   C473    1.390   1_545 S
C124   C127    1.413   .     A
C124   O160    1.385   .     S
C124   C300    1.383   .     S
C125   C127    1.401   .     A
C125   H135    1.083   .     S
C125   C297    1.390   .     S
C126   C128    1.395   .     A
C126   H136    1.084   .     S
C126   C472    1.383   1_545 S
C129   N138    1.367   .     A
C129   H171    1.080   .     S
C129   C1175   1.417   1_554 S
C130   H172    1.082   .     S
C130   N137    1.367   .     A
C130   C654    1.417   .     S
C131   H173    1.082   .     S
C131   N137    1.367   .     A
C131   C651    1.417   .     S
C132   H174    1.082   .     S
C132   N138    1.367   .     A
C132   C1174   1.417   1_554 S
Cu133  Cu134   2.681   .     S
Cu133  O146    1.957   .     S
Cu133  O139    1.961   .     S
Cu133  O142    1.965   .     S
Cu133  O143    1.955   .     S
Cu133  N137    2.015   .     S
Cu134  O145    1.957   .     S
Cu134  O140    1.961   .     S
Cu134  O141    1.965   .     S
Cu134  O144    1.955   .     S
Cu134  N138    2.015   .     S
H147   C5      1.087   1_655 S
O149   C150    1.421   .     S
C150   C153    1.538   .     S
C150   H152    1.112   .     S
C150   H151    1.110   .     S
C153   H154    1.110   .     S
C153   H503    1.111   1_545 S
H155   C327    1.111   .     S
C156   H157    1.111   .     S
C156   H159    1.111   .     S
C156   H158    1.111   .     S
C156   C37     1.528   1_655 S
O160   C161    1.421   .     S
C161   H162    1.109   .     S
C161   C164    1.535   .     S
C161   H163    1.117   .     S
C164   C167    1.524   .     S
C164   H339    1.112   .     S
C164   H340    1.109   .     S
H165   C512    1.112   1_545 S
H166   C512    1.109   1_545 S
C167   H168    1.111   .     S
C167   H865    1.109   .     S
C167   H692    1.110   .     S
H169   C1559   1.109   1_544 S
H170   C1211   1.110   1_554 S
C175   O199    1.291   .     A
C175   C186    1.446   .     S
C175   O197    1.290   .     A
C176   O200    1.288   .     A
C176   C185    1.454   .     S
C176   O198    1.298   .     A
C177   O201    1.287   .     A
C177   O203    1.288   .     A
C177   C179    1.432   .     S
C178   O202    1.287   .     A
C178   C180    1.433   .     S
C178   O204    1.289   .     A
C179   C296    1.334   1_455 S
C179   H321    1.087   1_455 S
C180   C237    1.334   .     S
C180   H264    1.087   .     S
C181   O207    1.385   .     S
C181   C186    1.410   .     A
C182   C185    1.413   .     A
C182   O218    1.385   .     S
C182   C358    1.383   .     S
C183   C185    1.401   .     A
C183   H193    1.083   .     S
C183   C355    1.390   .     S
C184   C186    1.395   .     A
C184   H194    1.084   .     S
C187   N196    1.367   .     A
C187   H229    1.080   .     S
C187   C1233   1.417   1_554 S
C188   H230    1.082   .     S
C188   N195    1.367   .     A
C188   C712    1.417   .     S
C189   H231    1.082   .     S
C189   N195    1.367   .     A
C189   C709    1.417   .     S
C190   H232    1.082   .     S
C190   N196    1.367   .     A
C190   C1232   1.417   1_554 S
Cu191  Cu192   2.681   .     S
Cu191  O204    1.957   .     S
Cu191  O197    1.961   .     S
Cu191  O200    1.965   .     S
Cu191  O201    1.955   .     S
Cu191  N195    2.015   .     S
Cu192  O203    1.957   .     S
Cu192  O198    1.961   .     S
Cu192  O199    1.965   .     S
Cu192  O202    1.955   .     S
Cu192  N196    2.015   .     S
H205   C237    1.087   .     S
H206   C296    1.087   1_455 S
O207   C208    1.421   .     S
C208   C211    1.538   .     S
C208   H210    1.112   .     S
C208   H209    1.110   .     S
C211   H212    1.110   .     S
C211   C330    1.528   1_455 S
H213   C385    1.111   .     S
C214   H215    1.111   .     S
C214   H217    1.111   .     S
C214   H216    1.111   .     S
C214   C269    1.528   .     S
O218   C219    1.421   .     S
C219   H220    1.109   .     S
C219   C222    1.535   .     S
C219   H221    1.117   .     S
C222   C225    1.524   .     S
C222   H397    1.112   .     S
C222   H398    1.109   .     S
C225   H226    1.111   .     S
C225   H923    1.109   .     S
C225   H750    1.110   .     S
H227   C1095   1.109   1_554 S
H228   C1269   1.110   1_554 S
C233   O257    1.291   .     A
C233   C244    1.446   .     S
C233   O255    1.290   .     A
C234   O258    1.288   .     A
C234   C243    1.454   .     S
C234   O256    1.298   .     A
C235   O259    1.287   .     A
C235   O261    1.288   .     A
C235   C237    1.432   .     S
C236   O260    1.287   .     A
C236   C238    1.433   .     S
C236   O262    1.289   .     A
C238   C295    1.334   .     S
C238   H322    1.087   .     S
C239   O265    1.385   .     S
C239   C244    1.410   .     A
C240   C243    1.413   .     A
C240   O276    1.385   .     S
C240   C416    1.383   .     S
C241   C243    1.401   .     A
C241   H251    1.083   .     S
C241   C413    1.390   .     S
C242   C244    1.395   .     A
C242   H252    1.084   .     S
C245   N254    1.367   .     A
C245   H287    1.080   .     S
C245   C1291   1.417   1_554 S
C246   H288    1.082   .     S
C246   N253    1.367   .     A
C246   C770    1.417   .     S
C247   H289    1.082   .     S
C247   N253    1.367   .     A
C247   C767    1.417   .     S
C248   H290    1.082   .     S
C248   N254    1.367   .     A
C248   C1290   1.417   1_554 S
Cu249  Cu250   2.681   .     S
Cu249  O262    1.957   .     S
Cu249  O255    1.961   .     S
Cu249  O258    1.965   .     S
Cu249  O259    1.955   .     S
Cu249  N253    2.015   .     S
Cu250  O261    1.957   .     S
Cu250  O256    1.961   .     S
Cu250  O257    1.965   .     S
Cu250  O260    1.955   .     S
Cu250  N254    2.015   .     S
H263   C295    1.087   .     S
O265   C266    1.421   .     S
C266   C269    1.538   .     S
C266   H268    1.112   .     S
C266   H267    1.110   .     S
C269   H270    1.110   .     S
H271   C443    1.111   .     S
C272   H273    1.111   .     S
C272   H275    1.111   .     S
C272   H274    1.111   .     S
C272   C327    1.528   .     S
O276   C277    1.421   .     S
C277   H278    1.109   .     S
C277   C280    1.535   .     S
C277   H279    1.117   .     S
C280   C283    1.524   .     S
C280   H455    1.112   .     S
C280   H456    1.109   .     S
C283   H284    1.111   .     S
C283   H981    1.109   .     S
C283   H808    1.110   .     S
H285   C1153   1.109   1_554 S
H286   C1327   1.110   1_554 S
C291   O315    1.291   .     A
C291   C302    1.446   .     S
C291   O313    1.290   .     A
C292   O316    1.288   .     A
C292   C301    1.454   .     S
C292   O314    1.298   .     A
C293   O317    1.287   .     A
C293   O319    1.288   .     A
C293   C295    1.432   .     S
C294   O318    1.287   .     A
C294   C296    1.433   .     S
C294   O320    1.289   .     A
C296   C179    1.334   1_655 S
C296   H206    1.087   1_655 S
C297   O323    1.385   .     S
C297   C302    1.410   .     A
C298   C301    1.413   .     A
C298   O334    1.385   .     S
C298   C474    1.383   .     S
C299   C301    1.401   .     A
C299   H309    1.083   .     S
C299   C471    1.390   .     S
C300   C302    1.395   .     A
C300   H310    1.084   .     S
C303   N312    1.367   .     A
C303   H345    1.080   .     S
C303   C1349   1.417   1_554 S
C304   H346    1.082   .     S
C304   N311    1.367   .     A
C304   C828    1.417   .     S
C305   H347    1.082   .     S
C305   N311    1.367   .     A
C305   C825    1.417   .     S
C306   H348    1.082   .     S
C306   N312    1.367   .     A
C306   C1348   1.417   1_554 S
Cu307  Cu308   2.681   .     S
Cu307  O320    1.957   .     S
Cu307  O313    1.961   .     S
Cu307  O316    1.965   .     S
Cu307  O317    1.955   .     S
Cu307  N311    2.015   .     S
Cu308  O319    1.957   .     S
Cu308  O314    1.961   .     S
Cu308  O315    1.965   .     S
Cu308  O318    1.955   .     S
Cu308  N312    2.015   .     S
H321   C179    1.087   1_655 S
O323   C324    1.421   .     S
C324   C327    1.538   .     S
C324   H326    1.112   .     S
C324   H325    1.110   .     S
C327   H328    1.110   .     S
H329   C501    1.111   .     S
C330   H331    1.111   .     S
C330   H333    1.111   .     S
C330   H332    1.111   .     S
C330   C211    1.528   1_655 S
O334   C335    1.421   .     S
C335   H336    1.109   .     S
C335   C338    1.535   .     S
C335   H337    1.117   .     S
C338   C341    1.524   .     S
C338   H513    1.112   .     S
C338   H514    1.109   .     S
C341   H342    1.111   .     S
C341   H1039   1.109   .     S
C341   H866    1.110   .     S
H343   C1211   1.109   1_554 S
H344   C1385   1.110   1_554 S
C349   O373    1.291   .     A
C349   C360    1.446   .     S
C349   O371    1.290   .     A
C350   O374    1.288   .     A
C350   C359    1.454   .     S
C350   O372    1.298   .     A
C351   O375    1.287   .     A
C351   O377    1.288   .     A
C351   C353    1.432   .     S
C352   O376    1.287   .     A
C352   C354    1.433   .     S
C352   O378    1.289   .     A
C353   C470    1.334   1_455 S
C353   H495    1.087   1_455 S
C354   C411    1.334   .     S
C354   H438    1.087   .     S
C355   O381    1.385   .     S
C355   C360    1.410   .     A
C356   C359    1.413   .     A
C356   O392    1.385   .     S
C356   C10     1.383   1_565 S
C357   C359    1.401   .     A
C357   H367    1.083   .     S
C357   C7      1.390   1_565 S
C358   C360    1.395   .     A
C358   H368    1.084   .     S
C361   N370    1.367   .     A
C361   H403    1.080   .     S
C361   C1407   1.417   1_554 S
C362   H404    1.082   .     S
C362   N369    1.367   .     A
C362   C886    1.417   .     S
C363   H405    1.082   .     S
C363   N369    1.367   .     A
C363   C883    1.417   .     S
C364   H406    1.082   .     S
C364   N370    1.367   .     A
C364   C1406   1.417   1_554 S
Cu365  Cu366   2.681   .     S
Cu365  O378    1.957   .     S
Cu365  O371    1.961   .     S
Cu365  O374    1.965   .     S
Cu365  O375    1.955   .     S
Cu365  N369    2.015   .     S
Cu366  O377    1.957   .     S
Cu366  O372    1.961   .     S
Cu366  O373    1.965   .     S
Cu366  O376    1.955   .     S
Cu366  N370    2.015   .     S
H379   C411    1.087   .     S
H380   C470    1.087   1_455 S
O381   C382    1.421   .     S
C382   C385    1.538   .     S
C382   H384    1.112   .     S
C382   H383    1.110   .     S
C385   H386    1.110   .     S
C385   C504    1.528   1_455 S
H387   C37     1.111   1_565 S
C388   H389    1.111   .     S
C388   H391    1.111   .     S
C388   H390    1.111   .     S
C388   C443    1.528   .     S
O392   C393    1.421   .     S
C393   H394    1.109   .     S
C393   C396    1.535   .     S
C393   H395    1.117   .     S
C396   C399    1.524   .     S
C396   H49     1.112   1_565 S
C396   H50     1.109   1_565 S
C399   H400    1.111   .     S
C399   H575    1.109   1_565 S
C399   H924    1.110   .     S
H401   C1269   1.109   1_554 S
H402   C1443   1.110   1_554 S
C407   O431    1.291   .     A
C407   C418    1.446   .     S
C407   O429    1.290   .     A
C408   O432    1.288   .     A
C408   C417    1.454   .     S
C408   O430    1.298   .     A
C409   O433    1.287   .     A
C409   O435    1.288   .     A
C409   C411    1.432   .     S
C410   O434    1.287   .     A
C410   C412    1.433   .     S
C410   O436    1.289   .     A
C412   C469    1.334   .     S
C412   H496    1.087   .     S
C413   O439    1.385   .     S
C413   C418    1.410   .     A
C414   C417    1.413   .     A
C414   O450    1.385   .     S
C414   C68     1.383   1_565 S
C415   C417    1.401   .     A
C415   H425    1.083   .     S
C415   C65     1.390   1_565 S
C416   C418    1.395   .     A
C416   H426    1.084   .     S
C419   N428    1.367   .     A
C419   H461    1.080   .     S
C419   C1465   1.417   1_554 S
C420   H462    1.082   .     S
C420   N427    1.367   .     A
C420   C944    1.417   .     S
C421   H463    1.082   .     S
C421   N427    1.367   .     A
C421   C941    1.417   .     S
C422   H464    1.082   .     S
C422   N428    1.367   .     A
C422   C1464   1.417   1_554 S
Cu423  Cu424   2.681   .     S
Cu423  O436    1.957   .     S
Cu423  O429    1.961   .     S
Cu423  O432    1.965   .     S
Cu423  O433    1.955   .     S
Cu423  N427    2.015   .     S
Cu424  O435    1.957   .     S
Cu424  O430    1.961   .     S
Cu424  O431    1.965   .     S
Cu424  O434    1.955   .     S
Cu424  N428    2.015   .     S
H437   C469    1.087   .     S
O439   C440    1.421   .     S
C440   C443    1.538   .     S
C440   H442    1.112   .     S
C440   H441    1.110   .     S
C443   H444    1.110   .     S
H445   C95     1.111   1_565 S
C446   H447    1.111   .     S
C446   H449    1.111   .     S
C446   H448    1.111   .     S
C446   C501    1.528   .     S
O450   C451    1.421   .     S
C451   H452    1.109   .     S
C451   C454    1.535   .     S
C451   H453    1.117   .     S
C454   C457    1.524   .     S
C454   H107    1.112   1_565 S
C454   H108    1.109   1_565 S
C457   H458    1.111   .     S
C457   H633    1.109   1_565 S
C457   H982    1.110   .     S
H459   C1327   1.109   1_554 S
H460   C1501   1.110   1_554 S
C465   O489    1.291   .     A
C465   C476    1.446   .     S
C465   O487    1.290   .     A
C466   O490    1.288   .     A
C466   C475    1.454   .     S
C466   O488    1.298   .     A
C467   O491    1.287   .     A
C467   O493    1.288   .     A
C467   C469    1.432   .     S
C468   O492    1.287   .     A
C468   C470    1.433   .     S
C468   O494    1.289   .     A
C470   C353    1.334   1_655 S
C470   H380    1.087   1_655 S
C471   O497    1.385   .     S
C471   C476    1.410   .     A
C472   C475    1.413   .     A
C472   O508    1.385   .     S
C472   C126    1.383   1_565 S
C473   C475    1.401   .     A
C473   H483    1.083   .     S
C473   C123    1.390   1_565 S
C474   C476    1.395   .     A
C474   H484    1.084   .     S
C477   N486    1.367   .     A
C477   H519    1.080   .     S
C477   C1523   1.417   1_554 S
C478   H520    1.082   .     S
C478   N485    1.367   .     A
C478   C1002   1.417   .     S
C479   H521    1.082   .     S
C479   N485    1.367   .     A
C479   C999    1.417   .     S
C480   H522    1.082   .     S
C480   N486    1.367   .     A
C480   C1522   1.417   1_554 S
Cu481  Cu482   2.681   .     S
Cu481  O494    1.957   .     S
Cu481  O487    1.961   .     S
Cu481  O490    1.965   .     S
Cu481  O491    1.955   .     S
Cu481  N485    2.015   .     S
Cu482  O493    1.957   .     S
Cu482  O488    1.961   .     S
Cu482  O489    1.965   .     S
Cu482  O492    1.955   .     S
Cu482  N486    2.015   .     S
H495   C353    1.087   1_655 S
O497   C498    1.421   .     S
C498   C501    1.538   .     S
C498   H500    1.112   .     S
C498   H499    1.110   .     S
C501   H502    1.110   .     S
H503   C153    1.111   1_565 S
C504   H505    1.111   .     S
C504   H507    1.111   .     S
C504   H506    1.111   .     S
C504   C385    1.528   1_655 S
O508   C509    1.421   .     S
C509   H510    1.109   .     S
C509   C512    1.535   .     S
C509   H511    1.117   .     S
C512   C515    1.524   .     S
C512   H165    1.112   1_565 S
C512   H166    1.109   1_565 S
C515   H516    1.111   .     S
C515   H691    1.109   1_565 S
C515   H1040   1.110   .     S
H517   C1385   1.109   1_554 S
H518   C1559   1.110   1_554 S
C523   O547    1.291   .     A
C523   C534    1.446   .     S
C523   O545    1.290   .     A
C524   O548    1.288   .     A
C524   C533    1.454   .     S
C524   O546    1.298   .     A
C525   O549    1.287   .     A
C525   O551    1.288   .     A
C525   C527    1.432   .     S
C526   O550    1.287   .     A
C526   C528    1.433   .     S
C526   O552    1.289   .     A
C527   C644    1.334   1_455 S
C527   H669    1.087   1_455 S
C528   C585    1.334   .     S
C528   H612    1.087   .     S
C529   O555    1.385   .     S
C529   C534    1.410   .     A
C529   C879    1.390   1_545 S
C530   C533    1.413   .     A
C530   O566    1.385   .     S
C530   C706    1.383   .     S
C531   C533    1.401   .     A
C531   H541    1.083   .     S
C531   C703    1.390   .     S
C532   C534    1.395   .     A
C532   H542    1.084   .     S
C532   C878    1.383   1_545 S
C535   N544    1.367   .     A
C535   H577    1.080   .     S
C536   H578    1.082   .     S
C536   N543    1.367   .     A
C536   C1060   1.417   .     S
C537   H579    1.082   .     S
C537   N543    1.367   .     A
C537   C1057   1.417   .     S
C538   H580    1.082   .     S
C538   N544    1.367   .     A
Cu539  Cu540   2.681   .     S
Cu539  O552    1.957   .     S
Cu539  O545    1.961   .     S
Cu539  O548    1.965   .     S
Cu539  O549    1.955   .     S
Cu539  N543    2.015   .     S
Cu540  O551    1.957   .     S
Cu540  O546    1.961   .     S
Cu540  O547    1.965   .     S
Cu540  O550    1.955   .     S
Cu540  N544    2.015   .     S
H553   C585    1.087   .     S
H554   C644    1.087   1_455 S
O555   C556    1.421   .     S
C556   C559    1.538   .     S
C556   H558    1.112   .     S
C556   H557    1.110   .     S
C559   H560    1.110   .     S
C559   H909    1.111   1_545 S
C559   C678    1.528   1_455 S
H561   C733    1.111   .     S
C562   H563    1.111   .     S
C562   H565    1.111   .     S
C562   H564    1.111   .     S
C562   C617    1.528   .     S
O566   C567    1.421   .     S
C567   H568    1.109   .     S
C567   C570    1.535   .     S
C567   H569    1.117   .     S
C570   C573    1.524   .     S
C570   H745    1.112   .     S
C570   H746    1.109   .     S
H571   C918    1.112   1_545 S
H572   C918    1.109   1_545 S
C573   H574    1.111   .     S
C573   H1271   1.109   .     S
C573   H1098   1.110   .     S
H575   C399    1.109   1_545 S
C581   O605    1.291   .     A
C581   C592    1.446   .     S
C581   O603    1.290   .     A
C582   O606    1.288   .     A
C582   C591    1.454   .     S
C582   O604    1.298   .     A
C583   O607    1.287   .     A
C583   O609    1.288   .     A
C583   C585    1.432   .     S
C584   O608    1.287   .     A
C584   C586    1.433   .     S
C584   O610    1.289   .     A
C586   C643    1.334   .     S
C586   H670    1.087   .     S
C587   O613    1.385   .     S
C587   C592    1.410   .     A
C587   C937    1.390   1_545 S
C588   C591    1.413   .     A
C588   O624    1.385   .     S
C588   C764    1.383   .     S
C589   C591    1.401   .     A
C589   H599    1.083   .     S
C589   C761    1.390   .     S
C590   C592    1.395   .     A
C590   H600    1.084   .     S
C590   C936    1.383   1_545 S
C593   N602    1.367   .     A
C593   H635    1.080   .     S
C594   H636    1.082   .     S
C594   N601    1.367   .     A
C594   C1118   1.417   .     S
C595   H637    1.082   .     S
C595   N601    1.367   .     A
C595   C1115   1.417   .     S
C596   H638    1.082   .     S
C596   N602    1.367   .     A
Cu597  Cu598   2.681   .     S
Cu597  O610    1.957   .     S
Cu597  O603    1.961   .     S
Cu597  O606    1.965   .     S
Cu597  O607    1.955   .     S
Cu597  N601    2.015   .     S
Cu598  O609    1.957   .     S
Cu598  O604    1.961   .     S
Cu598  O605    1.965   .     S
Cu598  O608    1.955   .     S
Cu598  N602    2.015   .     S
H611   C643    1.087   .     S
O613   C614    1.421   .     S
C614   C617    1.538   .     S
C614   H616    1.112   .     S
C614   H615    1.110   .     S
C617   H618    1.110   .     S
C617   H967    1.111   1_545 S
H619   C791    1.111   .     S
C620   H621    1.111   .     S
C620   H623    1.111   .     S
C620   H622    1.111   .     S
C620   C675    1.528   .     S
O624   C625    1.421   .     S
C625   H626    1.109   .     S
C625   C628    1.535   .     S
C625   H627    1.117   .     S
C628   C631    1.524   .     S
C628   H803    1.112   .     S
C628   H804    1.109   .     S
H629   C976    1.112   1_545 S
H630   C976    1.109   1_545 S
C631   H632    1.111   .     S
C631   H1329   1.109   .     S
C631   H1156   1.110   .     S
H633   C457    1.109   1_545 S
C639   O663    1.291   .     A
C639   C650    1.446   .     S
C639   O661    1.290   .     A
C640   O664    1.288   .     A
C640   C649    1.454   .     S
C640   O662    1.298   .     A
C641   O665    1.287   .     A
C641   O667    1.288   .     A
C641   C643    1.432   .     S
C642   O666    1.287   .     A
C642   C644    1.433   .     S
C642   O668    1.289   .     A
C644   C527    1.334   1_655 S
C644   H554    1.087   1_655 S
C645   O671    1.385   .     S
C645   C650    1.410   .     A
C645   C995    1.390   1_545 S
C646   C649    1.413   .     A
C646   O682    1.385   .     S
C646   C822    1.383   .     S
C647   C649    1.401   .     A
C647   H657    1.083   .     S
C647   C819    1.390   .     S
C648   C650    1.395   .     A
C648   H658    1.084   .     S
C648   C994    1.383   1_545 S
C651   N660    1.367   .     A
C651   H693    1.080   .     S
C652   H694    1.082   .     S
C652   N659    1.367   .     A
C652   C1176   1.417   .     S
C653   H695    1.082   .     S
C653   N659    1.367   .     A
C653   C1173   1.417   .     S
C654   H696    1.082   .     S
C654   N660    1.367   .     A
Cu655  Cu656   2.681   .     S
Cu655  O668    1.957   .     S
Cu655  O661    1.961   .     S
Cu655  O664    1.965   .     S
Cu655  O665    1.955   .     S
Cu655  N659    2.015   .     S
Cu656  O667    1.957   .     S
Cu656  O662    1.961   .     S
Cu656  O663    1.965   .     S
Cu656  O666    1.955   .     S
Cu656  N660    2.015   .     S
H669   C527    1.087   1_655 S
O671   C672    1.421   .     S
C672   C675    1.538   .     S
C672   H674    1.112   .     S
C672   H673    1.110   .     S
C675   H676    1.110   .     S
C675   H1025   1.111   1_545 S
H677   C849    1.111   .     S
C678   H679    1.111   .     S
C678   H681    1.111   .     S
C678   H680    1.111   .     S
C678   C559    1.528   1_655 S
O682   C683    1.421   .     S
C683   H684    1.109   .     S
C683   C686    1.535   .     S
C683   H685    1.117   .     S
C686   C689    1.524   .     S
C686   H861    1.112   .     S
C686   H862    1.109   .     S
H687   C1034   1.112   1_545 S
H688   C1034   1.109   1_545 S
C689   H690    1.111   .     S
C689   H1387   1.109   .     S
C689   H1214   1.110   .     S
H691   C515    1.109   1_545 S
C697   O721    1.291   .     A
C697   C708    1.446   .     S
C697   O719    1.290   .     A
C698   O722    1.288   .     A
C698   C707    1.454   .     S
C698   O720    1.298   .     A
C699   O723    1.287   .     A
C699   O725    1.288   .     A
C699   C701    1.432   .     S
C700   O724    1.287   .     A
C700   C702    1.433   .     S
C700   O726    1.289   .     A
C701   C818    1.334   1_455 S
C701   H843    1.087   1_455 S
C702   C759    1.334   .     S
C702   H786    1.087   .     S
C703   O729    1.385   .     S
C703   C708    1.410   .     A
C704   C707    1.413   .     A
C704   O740    1.385   .     S
C704   C880    1.383   .     S
C705   C707    1.401   .     A
C705   H715    1.083   .     S
C705   C877    1.390   .     S
C706   C708    1.395   .     A
C706   H716    1.084   .     S
C709   N718    1.367   .     A
C709   H751    1.080   .     S
C710   H752    1.082   .     S
C710   N717    1.367   .     A
C710   C1234   1.417   .     S
C711   H753    1.082   .     S
C711   N717    1.367   .     A
C711   C1231   1.417   .     S
C712   H754    1.082   .     S
C712   N718    1.367   .     A
Cu713  Cu714   2.681   .     S
Cu713  O726    1.957   .     S
Cu713  O719    1.961   .     S
Cu713  O722    1.965   .     S
Cu713  O723    1.955   .     S
Cu713  N717    2.015   .     S
Cu714  O725    1.957   .     S
Cu714  O720    1.961   .     S
Cu714  O721    1.965   .     S
Cu714  O724    1.955   .     S
Cu714  N718    2.015   .     S
H727   C759    1.087   .     S
H728   C818    1.087   1_455 S
O729   C730    1.421   .     S
C730   C733    1.538   .     S
C730   H732    1.112   .     S
C730   H731    1.110   .     S
C733   H734    1.110   .     S
C733   C852    1.528   1_455 S
H735   C907    1.111   .     S
C736   H737    1.111   .     S
C736   H739    1.111   .     S
C736   H738    1.111   .     S
C736   C791    1.528   .     S
O740   C741    1.421   .     S
C741   H742    1.109   .     S
C741   C744    1.535   .     S
C741   H743    1.117   .     S
C744   C747    1.524   .     S
C744   H919    1.112   .     S
C744   H920    1.109   .     S
C747   H748    1.111   .     S
C747   H1445   1.109   .     S
C747   H1272   1.110   .     S
C755   O779    1.291   .     A
C755   C766    1.446   .     S
C755   O777    1.290   .     A
C756   O780    1.288   .     A
C756   C765    1.454   .     S
C756   O778    1.298   .     A
C757   O781    1.287   .     A
C757   O783    1.288   .     A
C757   C759    1.432   .     S
C758   O782    1.287   .     A
C758   C760    1.433   .     S
C758   O784    1.289   .     A
C760   C817    1.334   .     S
C760   H844    1.087   .     S
C761   O787    1.385   .     S
C761   C766    1.410   .     A
C762   C765    1.413   .     A
C762   O798    1.385   .     S
C762   C938    1.383   .     S
C763   C765    1.401   .     A
C763   H773    1.083   .     S
C763   C935    1.390   .     S
C764   C766    1.395   .     A
C764   H774    1.084   .     S
C767   N776    1.367   .     A
C767   H809    1.080   .     S
C768   H810    1.082   .     S
C768   N775    1.367   .     A
C768   C1292   1.417   .     S
C769   H811    1.082   .     S
C769   N775    1.367   .     A
C769   C1289   1.417   .     S
C770   H812    1.082   .     S
C770   N776    1.367   .     A
Cu771  Cu772   2.681   .     S
Cu771  O784    1.957   .     S
Cu771  O777    1.961   .     S
Cu771  O780    1.965   .     S
Cu771  O781    1.955   .     S
Cu771  N775    2.015   .     S
Cu772  O783    1.957   .     S
Cu772  O778    1.961   .     S
Cu772  O779    1.965   .     S
Cu772  O782    1.955   .     S
Cu772  N776    2.015   .     S
H785   C817    1.087   .     S
O787   C788    1.421   .     S
C788   C791    1.538   .     S
C788   H790    1.112   .     S
C788   H789    1.110   .     S
C791   H792    1.110   .     S
H793   C965    1.111   .     S
C794   H795    1.111   .     S
C794   H797    1.111   .     S
C794   H796    1.111   .     S
C794   C849    1.528   .     S
O798   C799    1.421   .     S
C799   H800    1.109   .     S
C799   C802    1.535   .     S
C799   H801    1.117   .     S
C802   C805    1.524   .     S
C802   H977    1.112   .     S
C802   H978    1.109   .     S
C805   H806    1.111   .     S
C805   H1503   1.109   .     S
C805   H1330   1.110   .     S
C813   O837    1.291   .     A
C813   C824    1.446   .     S
C813   O835    1.290   .     A
C814   O838    1.288   .     A
C814   C823    1.454   .     S
C814   O836    1.298   .     A
C815   O839    1.287   .     A
C815   O841    1.288   .     A
C815   C817    1.432   .     S
C816   O840    1.287   .     A
C816   C818    1.433   .     S
C816   O842    1.289   .     A
C818   C701    1.334   1_655 S
C818   H728    1.087   1_655 S
C819   O845    1.385   .     S
C819   C824    1.410   .     A
C820   C823    1.413   .     A
C820   O856    1.385   .     S
C820   C996    1.383   .     S
C821   C823    1.401   .     A
C821   H831    1.083   .     S
C821   C993    1.390   .     S
C822   C824    1.395   .     A
C822   H832    1.084   .     S
C825   N834    1.367   .     A
C825   H867    1.080   .     S
C826   H868    1.082   .     S
C826   N833    1.367   .     A
C826   C1350   1.417   .     S
C827   H869    1.082   .     S
C827   N833    1.367   .     A
C827   C1347   1.417   .     S
C828   H870    1.082   .     S
C828   N834    1.367   .     A
Cu829  Cu830   2.681   .     S
Cu829  O842    1.957   .     S
Cu829  O835    1.961   .     S
Cu829  O838    1.965   .     S
Cu829  O839    1.955   .     S
Cu829  N833    2.015   .     S
Cu830  O841    1.957   .     S
Cu830  O836    1.961   .     S
Cu830  O837    1.965   .     S
Cu830  O840    1.955   .     S
Cu830  N834    2.015   .     S
H843   C701    1.087   1_655 S
O845   C846    1.421   .     S
C846   C849    1.538   .     S
C846   H848    1.112   .     S
C846   H847    1.110   .     S
C849   H850    1.110   .     S
H851   C1023   1.111   .     S
C852   H853    1.111   .     S
C852   H855    1.111   .     S
C852   H854    1.111   .     S
C852   C733    1.528   1_655 S
O856   C857    1.421   .     S
C857   H858    1.109   .     S
C857   C860    1.535   .     S
C857   H859    1.117   .     S
C860   C863    1.524   .     S
C860   H1035   1.112   .     S
C860   H1036   1.109   .     S
C863   H864    1.111   .     S
C863   H1561   1.109   .     S
C863   H1388   1.110   .     S
C871   O895    1.291   .     A
C871   C882    1.446   .     S
C871   O893    1.290   .     A
C872   O896    1.288   .     A
C872   C881    1.454   .     S
C872   O894    1.298   .     A
C873   O897    1.287   .     A
C873   O899    1.288   .     A
C873   C875    1.432   .     S
C874   O898    1.287   .     A
C874   C876    1.433   .     S
C874   O900    1.289   .     A
C875   C992    1.334   1_455 S
C875   H1017   1.087   1_455 S
C876   C933    1.334   .     S
C876   H960    1.087   .     S
C877   O903    1.385   .     S
C877   C882    1.410   .     A
C878   C881    1.413   .     A
C878   O914    1.385   .     S
C878   C532    1.383   1_565 S
C879   C881    1.401   .     A
C879   H889    1.083   .     S
C879   C529    1.390   1_565 S
C880   C882    1.395   .     A
C880   H890    1.084   .     S
C883   N892    1.367   .     A
C883   H925    1.080   .     S
C884   H926    1.082   .     S
C884   N891    1.367   .     A
C884   C1408   1.417   .     S
C885   H927    1.082   .     S
C885   N891    1.367   .     A
C885   C1405   1.417   .     S
C886   H928    1.082   .     S
C886   N892    1.367   .     A
Cu887  Cu888   2.681   .     S
Cu887  O900    1.957   .     S
Cu887  O893    1.961   .     S
Cu887  O896    1.965   .     S
Cu887  O897    1.955   .     S
Cu887  N891    2.015   .     S
Cu888  O899    1.957   .     S
Cu888  O894    1.961   .     S
Cu888  O895    1.965   .     S
Cu888  O898    1.955   .     S
Cu888  N892    2.015   .     S
H901   C933    1.087   .     S
H902   C992    1.087   1_455 S
O903   C904    1.421   .     S
C904   C907    1.538   .     S
C904   H906    1.112   .     S
C904   H905    1.110   .     S
C907   H908    1.110   .     S
C907   C1026   1.528   1_455 S
H909   C559    1.111   1_565 S
C910   H911    1.111   .     S
C910   H913    1.111   .     S
C910   H912    1.111   .     S
C910   C965    1.528   .     S
O914   C915    1.421   .     S
C915   H916    1.109   .     S
C915   C918    1.535   .     S
C915   H917    1.117   .     S
C918   C921    1.524   .     S
C918   H571    1.112   1_565 S
C918   H572    1.109   1_565 S
C921   H922    1.111   .     S
C921   H1097   1.109   1_565 S
C921   H1446   1.110   .     S
C929   O953    1.291   .     A
C929   C940    1.446   .     S
C929   O951    1.290   .     A
C930   O954    1.288   .     A
C930   C939    1.454   .     S
C930   O952    1.298   .     A
C931   O955    1.287   .     A
C931   O957    1.288   .     A
C931   C933    1.432   .     S
C932   O956    1.287   .     A
C932   C934    1.433   .     S
C932   O958    1.289   .     A
C934   C991    1.334   .     S
C934   H1018   1.087   .     S
C935   O961    1.385   .     S
C935   C940    1.410   .     A
C936   C939    1.413   .     A
C936   O972    1.385   .     S
C936   C590    1.383   1_565 S
C937   C939    1.401   .     A
C937   H947    1.083   .     S
C937   C587    1.390   1_565 S
C938   C940    1.395   .     A
C938   H948    1.084   .     S
C941   N950    1.367   .     A
C941   H983    1.080   .     S
C942   H984    1.082   .     S
C942   N949    1.367   .     A
C942   C1466   1.417   .     S
C943   H985    1.082   .     S
C943   N949    1.367   .     A
C943   C1463   1.417   .     S
C944   H986    1.082   .     S
C944   N950    1.367   .     A
Cu945  Cu946   2.681   .     S
Cu945  O958    1.957   .     S
Cu945  O951    1.961   .     S
Cu945  O954    1.965   .     S
Cu945  O955    1.955   .     S
Cu945  N949    2.015   .     S
Cu946  O957    1.957   .     S
Cu946  O952    1.961   .     S
Cu946  O953    1.965   .     S
Cu946  O956    1.955   .     S
Cu946  N950    2.015   .     S
H959   C991    1.087   .     S
O961   C962    1.421   .     S
C962   C965    1.538   .     S
C962   H964    1.112   .     S
C962   H963    1.110   .     S
C965   H966    1.110   .     S
H967   C617    1.111   1_565 S
C968   H969    1.111   .     S
C968   H971    1.111   .     S
C968   H970    1.111   .     S
C968   C1023   1.528   .     S
O972   C973    1.421   .     S
C973   H974    1.109   .     S
C973   C976    1.535   .     S
C973   H975    1.117   .     S
C976   C979    1.524   .     S
C976   H629    1.112   1_565 S
C976   H630    1.109   1_565 S
C979   H980    1.111   .     S
C979   H1155   1.109   1_565 S
C979   H1504   1.110   .     S
C987   O1011   1.291   .     A
C987   C998    1.446   .     S
C987   O1009   1.290   .     A
C988   O1012   1.288   .     A
C988   C997    1.454   .     S
C988   O1010   1.298   .     A
C989   O1013   1.287   .     A
C989   O1015   1.288   .     A
C989   C991    1.432   .     S
C990   O1014   1.287   .     A
C990   C992    1.433   .     S
C990   O1016   1.289   .     A
C992   C875    1.334   1_655 S
C992   H902    1.087   1_655 S
C993   O1019   1.385   .     S
C993   C998    1.410   .     A
C994   C997    1.413   .     A
C994   O1030   1.385   .     S
C994   C648    1.383   1_565 S
C995   C997    1.401   .     A
C995   H1005   1.083   .     S
C995   C645    1.390   1_565 S
C996   C998    1.395   .     A
C996   H1006   1.084   .     S
C999   N1008   1.367   .     A
C999   H1041   1.080   .     S
C1000  H1042   1.082   .     S
C1000  N1007   1.367   .     A
C1000  C1524   1.417   .     S
C1001  H1043   1.082   .     S
C1001  N1007   1.367   .     A
C1001  C1521   1.417   .     S
C1002  H1044   1.082   .     S
C1002  N1008   1.367   .     A
Cu1003 Cu1004  2.681   .     S
Cu1003 O1016   1.957   .     S
Cu1003 O1009   1.961   .     S
Cu1003 O1012   1.965   .     S
Cu1003 O1013   1.955   .     S
Cu1003 N1007   2.015   .     S
Cu1004 O1015   1.957   .     S
Cu1004 O1010   1.961   .     S
Cu1004 O1011   1.965   .     S
Cu1004 O1014   1.955   .     S
Cu1004 N1008   2.015   .     S
H1017  C875    1.087   1_655 S
O1019  C1020   1.421   .     S
C1020  C1023   1.538   .     S
C1020  H1022   1.112   .     S
C1020  H1021   1.110   .     S
C1023  H1024   1.110   .     S
H1025  C675    1.111   1_565 S
C1026  H1027   1.111   .     S
C1026  H1029   1.111   .     S
C1026  H1028   1.111   .     S
C1026  C907    1.528   1_655 S
O1030  C1031   1.421   .     S
C1031  H1032   1.109   .     S
C1031  C1034   1.535   .     S
C1031  H1033   1.117   .     S
C1034  C1037   1.524   .     S
C1034  H687    1.112   1_565 S
C1034  H688    1.109   1_565 S
C1037  H1038   1.111   .     S
C1037  H1213   1.109   1_565 S
C1037  H1562   1.110   .     S
C1045  O1069   1.291   .     A
C1045  C1056   1.446   .     S
C1045  O1067   1.290   .     A
C1046  O1070   1.288   .     A
C1046  C1055   1.454   .     S
C1046  O1068   1.298   .     A
C1047  O1071   1.287   .     A
C1047  O1073   1.288   .     A
C1047  C1049   1.432   .     S
C1048  O1072   1.287   .     A
C1048  C1050   1.433   .     S
C1048  O1074   1.289   .     A
C1049  C1166   1.334   1_455 S
C1049  H1191   1.087   1_455 S
C1050  C1107   1.334   .     S
C1050  H1134   1.087   .     S
C1051  O1077   1.385   .     S
C1051  C1056   1.410   .     A
C1051  C1401   1.390   1_545 S
C1052  C1055   1.413   .     A
C1052  O1088   1.385   .     S
C1052  C1228   1.383   .     S
C1053  C1055   1.401   .     A
C1053  H1063   1.083   .     S
C1053  C1225   1.390   .     S
C1054  C1056   1.395   .     A
C1054  H1064   1.084   .     S
C1054  C1400   1.383   1_545 S
C1057  N1066   1.367   .     A
C1057  H1099   1.080   .     S
C1058  H1100   1.082   .     S
C1058  N1065   1.367   .     A
C1058  C16     1.417   1_556 S
C1059  H1101   1.082   .     S
C1059  N1065   1.367   .     A
C1059  C13     1.417   1_556 S
C1060  H1102   1.082   .     S
C1060  N1066   1.367   .     A
Cu1061 Cu1062  2.681   .     S
Cu1061 O1074   1.957   .     S
Cu1061 O1067   1.961   .     S
Cu1061 O1070   1.965   .     S
Cu1061 O1071   1.955   .     S
Cu1061 N1065   2.015   .     S
Cu1062 O1073   1.957   .     S
Cu1062 O1068   1.961   .     S
Cu1062 O1069   1.965   .     S
Cu1062 O1072   1.955   .     S
Cu1062 N1066   2.015   .     S
H1075  C1107   1.087   .     S
H1076  C1166   1.087   1_455 S
O1077  C1078   1.421   .     S
C1078  C1081   1.538   .     S
C1078  H1080   1.112   .     S
C1078  H1079   1.110   .     S
C1081  H1082   1.110   .     S
C1081  H1431   1.111   1_545 S
C1081  C1200   1.528   1_455 S
H1083  C1255   1.111   .     S
C1084  H1085   1.111   .     S
C1084  H1087   1.111   .     S
C1084  H1086   1.111   .     S
C1084  C1139   1.528   .     S
O1088  C1089   1.421   .     S
C1089  H1090   1.109   .     S
C1089  C1092   1.535   .     S
C1089  H1091   1.117   .     S
C1092  C1095   1.524   .     S
C1092  H1267   1.112   .     S
C1092  H1268   1.109   .     S
H1093  C1440   1.112   1_545 S
H1094  C1440   1.109   1_545 S
C1095  H1096   1.111   .     S
C1095  H227    1.109   1_556 S
C1095  H54     1.110   1_556 S
H1097  C921    1.109   1_545 S
C1103  O1127   1.291   .     A
C1103  C1114   1.446   .     S
C1103  O1125   1.290   .     A
C1104  O1128   1.288   .     A
C1104  C1113   1.454   .     S
C1104  O1126   1.298   .     A
C1105  O1129   1.287   .     A
C1105  O1131   1.288   .     A
C1105  C1107   1.432   .     S
C1106  O1130   1.287   .     A
C1106  C1108   1.433   .     S
C1106  O1132   1.289   .     A
C1108  C1165   1.334   .     S
C1108  H1192   1.087   .     S
C1109  O1135   1.385   .     S
C1109  C1114   1.410   .     A
C1109  C1459   1.390   1_545 S
C1110  C1113   1.413   .     A
C1110  O1146   1.385   .     S
C1110  C1286   1.383   .     S
C1111  C1113   1.401   .     A
C1111  H1121   1.083   .     S
C1111  C1283   1.390   .     S
C1112  C1114   1.395   .     A
C1112  H1122   1.084   .     S
C1112  C1458   1.383   1_545 S
C1115  N1124   1.367   .     A
C1115  H1157   1.080   .     S
C1116  H1158   1.082   .     S
C1116  N1123   1.367   .     A
C1116  C74     1.417   1_556 S
C1117  H1159   1.082   .     S
C1117  N1123   1.367   .     A
C1117  C71     1.417   1_556 S
C1118  H1160   1.082   .     S
C1118  N1124   1.367   .     A
Cu1119 Cu1120  2.681   .     S
Cu1119 O1132   1.957   .     S
Cu1119 O1125   1.961   .     S
Cu1119 O1128   1.965   .     S
Cu1119 O1129   1.955   .     S
Cu1119 N1123   2.015   .     S
Cu1120 O1131   1.957   .     S
Cu1120 O1126   1.961   .     S
Cu1120 O1127   1.965   .     S
Cu1120 O1130   1.955   .     S
Cu1120 N1124   2.015   .     S
H1133  C1165   1.087   .     S
O1135  C1136   1.421   .     S
C1136  C1139   1.538   .     S
C1136  H1138   1.112   .     S
C1136  H1137   1.110   .     S
C1139  H1140   1.110   .     S
C1139  H1489   1.111   1_545 S
H1141  C1313   1.111   .     S
C1142  H1143   1.111   .     S
C1142  H1145   1.111   .     S
C1142  H1144   1.111   .     S
C1142  C1197   1.528   .     S
O1146  C1147   1.421   .     S
C1147  H1148   1.109   .     S
C1147  C1150   1.535   .     S
C1147  H1149   1.117   .     S
C1150  C1153   1.524   .     S
C1150  H1325   1.112   .     S
C1150  H1326   1.109   .     S
H1151  C1498   1.112   1_545 S
H1152  C1498   1.109   1_545 S
C1153  H1154   1.111   .     S
C1153  H285    1.109   1_556 S
C1153  H112    1.110   1_556 S
H1155  C979    1.109   1_545 S
C1161  O1185   1.291   .     A
C1161  C1172   1.446   .     S
C1161  O1183   1.290   .     A
C1162  O1186   1.288   .     A
C1162  C1171   1.454   .     S
C1162  O1184   1.298   .     A
C1163  O1187   1.287   .     A
C1163  O1189   1.288   .     A
C1163  C1165   1.432   .     S
C1164  O1188   1.287   .     A
C1164  C1166   1.433   .     S
C1164  O1190   1.289   .     A
C1166  C1049   1.334   1_655 S
C1166  H1076   1.087   1_655 S
C1167  O1193   1.385   .     S
C1167  C1172   1.410   .     A
C1167  C1517   1.390   1_545 S
C1168  C1171   1.413   .     A
C1168  O1204   1.385   .     S
C1168  C1344   1.383   .     S
C1169  C1171   1.401   .     A
C1169  H1179   1.083   .     S
C1169  C1341   1.390   .     S
C1170  C1172   1.395   .     A
C1170  H1180   1.084   .     S
C1170  C1516   1.383   1_545 S
C1173  N1182   1.367   .     A
C1173  H1215   1.080   .     S
C1174  H1216   1.082   .     S
C1174  N1181   1.367   .     A
C1174  C132    1.417   1_556 S
C1175  H1217   1.082   .     S
C1175  N1181   1.367   .     A
C1175  C129    1.417   1_556 S
C1176  H1218   1.082   .     S
C1176  N1182   1.367   .     A
Cu1177 Cu1178  2.681   .     S
Cu1177 O1190   1.957   .     S
Cu1177 O1183   1.961   .     S
Cu1177 O1186   1.965   .     S
Cu1177 O1187   1.955   .     S
Cu1177 N1181   2.015   .     S
Cu1178 O1189   1.957   .     S
Cu1178 O1184   1.961   .     S
Cu1178 O1185   1.965   .     S
Cu1178 O1188   1.955   .     S
Cu1178 N1182   2.015   .     S
H1191  C1049   1.087   1_655 S
O1193  C1194   1.421   .     S
C1194  C1197   1.538   .     S
C1194  H1196   1.112   .     S
C1194  H1195   1.110   .     S
C1197  H1198   1.110   .     S
C1197  H1547   1.111   1_545 S
H1199  C1371   1.111   .     S
C1200  H1201   1.111   .     S
C1200  H1203   1.111   .     S
C1200  H1202   1.111   .     S
C1200  C1081   1.528   1_655 S
O1204  C1205   1.421   .     S
C1205  H1206   1.109   .     S
C1205  C1208   1.535   .     S
C1205  H1207   1.117   .     S
C1208  C1211   1.524   .     S
C1208  H1383   1.112   .     S
C1208  H1384   1.109   .     S
H1209  C1556   1.112   1_545 S
H1210  C1556   1.109   1_545 S
C1211  H1212   1.111   .     S
C1211  H343    1.109   1_556 S
C1211  H170    1.110   1_556 S
H1213  C1037   1.109   1_545 S
C1219  O1243   1.291   .     A
C1219  C1230   1.446   .     S
C1219  O1241   1.290   .     A
C1220  O1244   1.288   .     A
C1220  C1229   1.454   .     S
C1220  O1242   1.298   .     A
C1221  O1245   1.287   .     A
C1221  O1247   1.288   .     A
C1221  C1223   1.432   .     S
C1222  O1246   1.287   .     A
C1222  C1224   1.433   .     S
C1222  O1248   1.289   .     A
C1223  C1340   1.334   1_455 S
C1223  H1365   1.087   1_455 S
C1224  C1281   1.334   .     S
C1224  H1308   1.087   .     S
C1225  O1251   1.385   .     S
C1225  C1230   1.410   .     A
C1226  C1229   1.413   .     A
C1226  O1262   1.385   .     S
C1226  C1402   1.383   .     S
C1227  C1229   1.401   .     A
C1227  H1237   1.083   .     S
C1227  C1399   1.390   .     S
C1228  C1230   1.395   .     A
C1228  H1238   1.084   .     S
C1231  N1240   1.367   .     A
C1231  H1273   1.080   .     S
C1232  H1274   1.082   .     S
C1232  N1239   1.367   .     A
C1232  C190    1.417   1_556 S
C1233  H1275   1.082   .     S
C1233  N1239   1.367   .     A
C1233  C187    1.417   1_556 S
C1234  H1276   1.082   .     S
C1234  N1240   1.367   .     A
Cu1235 Cu1236  2.681   .     S
Cu1235 O1248   1.957   .     S
Cu1235 O1241   1.961   .     S
Cu1235 O1244   1.965   .     S
Cu1235 O1245   1.955   .     S
Cu1235 N1239   2.015   .     S
Cu1236 O1247   1.957   .     S
Cu1236 O1242   1.961   .     S
Cu1236 O1243   1.965   .     S
Cu1236 O1246   1.955   .     S
Cu1236 N1240   2.015   .     S
H1249  C1281   1.087   .     S
H1250  C1340   1.087   1_455 S
O1251  C1252   1.421   .     S
C1252  C1255   1.538   .     S
C1252  H1254   1.112   .     S
C1252  H1253   1.110   .     S
C1255  H1256   1.110   .     S
C1255  C1374   1.528   1_455 S
H1257  C1429   1.111   .     S
C1258  H1259   1.111   .     S
C1258  H1261   1.111   .     S
C1258  H1260   1.111   .     S
C1258  C1313   1.528   .     S
O1262  C1263   1.421   .     S
C1263  H1264   1.109   .     S
C1263  C1266   1.535   .     S
C1263  H1265   1.117   .     S
C1266  C1269   1.524   .     S
C1266  H1441   1.112   .     S
C1266  H1442   1.109   .     S
C1269  H1270   1.111   .     S
C1269  H401    1.109   1_556 S
C1269  H228    1.110   1_556 S
C1277  O1301   1.291   .     A
C1277  C1288   1.446   .     S
C1277  O1299   1.290   .     A
C1278  O1302   1.288   .     A
C1278  C1287   1.454   .     S
C1278  O1300   1.298   .     A
C1279  O1303   1.287   .     A
C1279  O1305   1.288   .     A
C1279  C1281   1.432   .     S
C1280  O1304   1.287   .     A
C1280  C1282   1.433   .     S
C1280  O1306   1.289   .     A
C1282  C1339   1.334   .     S
C1282  H1366   1.087   .     S
C1283  O1309   1.385   .     S
C1283  C1288   1.410   .     A
C1284  C1287   1.413   .     A
C1284  O1320   1.385   .     S
C1284  C1460   1.383   .     S
C1285  C1287   1.401   .     A
C1285  H1295   1.083   .     S
C1285  C1457   1.390   .     S
C1286  C1288   1.395   .     A
C1286  H1296   1.084   .     S
C1289  N1298   1.367   .     A
C1289  H1331   1.080   .     S
C1290  H1332   1.082   .     S
C1290  N1297   1.367   .     A
C1290  C248    1.417   1_556 S
C1291  H1333   1.082   .     S
C1291  N1297   1.367   .     A
C1291  C245    1.417   1_556 S
C1292  H1334   1.082   .     S
C1292  N1298   1.367   .     A
Cu1293 Cu1294  2.681   .     S
Cu1293 O1306   1.957   .     S
Cu1293 O1299   1.961   .     S
Cu1293 O1302   1.965   .     S
Cu1293 O1303   1.955   .     S
Cu1293 N1297   2.015   .     S
Cu1294 O1305   1.957   .     S
Cu1294 O1300   1.961   .     S
Cu1294 O1301   1.965   .     S
Cu1294 O1304   1.955   .     S
Cu1294 N1298   2.015   .     S
H1307  C1339   1.087   .     S
O1309  C1310   1.421   .     S
C1310  C1313   1.538   .     S
C1310  H1312   1.112   .     S
C1310  H1311   1.110   .     S
C1313  H1314   1.110   .     S
H1315  C1487   1.111   .     S
C1316  H1317   1.111   .     S
C1316  H1319   1.111   .     S
C1316  H1318   1.111   .     S
C1316  C1371   1.528   .     S
O1320  C1321   1.421   .     S
C1321  H1322   1.109   .     S
C1321  C1324   1.535   .     S
C1321  H1323   1.117   .     S
C1324  C1327   1.524   .     S
C1324  H1499   1.112   .     S
C1324  H1500   1.109   .     S
C1327  H1328   1.111   .     S
C1327  H459    1.109   1_556 S
C1327  H286    1.110   1_556 S
C1335  O1359   1.291   .     A
C1335  C1346   1.446   .     S
C1335  O1357   1.290   .     A
C1336  O1360   1.288   .     A
C1336  C1345   1.454   .     S
C1336  O1358   1.298   .     A
C1337  O1361   1.287   .     A
C1337  O1363   1.288   .     A
C1337  C1339   1.432   .     S
C1338  O1362   1.287   .     A
C1338  C1340   1.433   .     S
C1338  O1364   1.289   .     A
C1340  C1223   1.334   1_655 S
C1340  H1250   1.087   1_655 S
C1341  O1367   1.385   .     S
C1341  C1346   1.410   .     A
C1342  C1345   1.413   .     A
C1342  O1378   1.385   .     S
C1342  C1518   1.383   .     S
C1343  C1345   1.401   .     A
C1343  H1353   1.083   .     S
C1343  C1515   1.390   .     S
C1344  C1346   1.395   .     A
C1344  H1354   1.084   .     S
C1347  N1356   1.367   .     A
C1347  H1389   1.080   .     S
C1348  H1390   1.082   .     S
C1348  N1355   1.367   .     A
C1348  C306    1.417   1_556 S
C1349  H1391   1.082   .     S
C1349  N1355   1.367   .     A
C1349  C303    1.417   1_556 S
C1350  H1392   1.082   .     S
C1350  N1356   1.367   .     A
Cu1351 Cu1352  2.681   .     S
Cu1351 O1364   1.957   .     S
Cu1351 O1357   1.961   .     S
Cu1351 O1360   1.965   .     S
Cu1351 O1361   1.955   .     S
Cu1351 N1355   2.015   .     S
Cu1352 O1363   1.957   .     S
Cu1352 O1358   1.961   .     S
Cu1352 O1359   1.965   .     S
Cu1352 O1362   1.955   .     S
Cu1352 N1356   2.015   .     S
H1365  C1223   1.087   1_655 S
O1367  C1368   1.421   .     S
C1368  C1371   1.538   .     S
C1368  H1370   1.112   .     S
C1368  H1369   1.110   .     S
C1371  H1372   1.110   .     S
H1373  C1545   1.111   .     S
C1374  H1375   1.111   .     S
C1374  H1377   1.111   .     S
C1374  H1376   1.111   .     S
C1374  C1255   1.528   1_655 S
O1378  C1379   1.421   .     S
C1379  H1380   1.109   .     S
C1379  C1382   1.535   .     S
C1379  H1381   1.117   .     S
C1382  C1385   1.524   .     S
C1382  H1557   1.112   .     S
C1382  H1558   1.109   .     S
C1385  H1386   1.111   .     S
C1385  H517    1.109   1_556 S
C1385  H344    1.110   1_556 S
C1393  O1417   1.291   .     A
C1393  C1404   1.446   .     S
C1393  O1415   1.290   .     A
C1394  O1418   1.288   .     A
C1394  C1403   1.454   .     S
C1394  O1416   1.298   .     A
C1395  O1419   1.287   .     A
C1395  O1421   1.288   .     A
C1395  C1397   1.432   .     S
C1396  O1420   1.287   .     A
C1396  C1398   1.433   .     S
C1396  O1422   1.289   .     A
C1397  C1514   1.334   1_455 S
C1397  H1539   1.087   1_455 S
C1398  C1455   1.334   .     S
C1398  H1482   1.087   .     S
C1399  O1425   1.385   .     S
C1399  C1404   1.410   .     A
C1400  C1403   1.413   .     A
C1400  O1436   1.385   .     S
C1400  C1054   1.383   1_565 S
C1401  C1403   1.401   .     A
C1401  H1411   1.083   .     S
C1401  C1051   1.390   1_565 S
C1402  C1404   1.395   .     A
C1402  H1412   1.084   .     S
C1405  N1414   1.367   .     A
C1405  H1447   1.080   .     S
C1406  H1448   1.082   .     S
C1406  N1413   1.367   .     A
C1406  C364    1.417   1_556 S
C1407  H1449   1.082   .     S
C1407  N1413   1.367   .     A
C1407  C361    1.417   1_556 S
C1408  H1450   1.082   .     S
C1408  N1414   1.367   .     A
Cu1409 Cu1410  2.681   .     S
Cu1409 O1422   1.957   .     S
Cu1409 O1415   1.961   .     S
Cu1409 O1418   1.965   .     S
Cu1409 O1419   1.955   .     S
Cu1409 N1413   2.015   .     S
Cu1410 O1421   1.957   .     S
Cu1410 O1416   1.961   .     S
Cu1410 O1417   1.965   .     S
Cu1410 O1420   1.955   .     S
Cu1410 N1414   2.015   .     S
H1423  C1455   1.087   .     S
H1424  C1514   1.087   1_455 S
O1425  C1426   1.421   .     S
C1426  C1429   1.538   .     S
C1426  H1428   1.112   .     S
C1426  H1427   1.110   .     S
C1429  H1430   1.110   .     S
C1429  C1548   1.528   1_455 S
H1431  C1081   1.111   1_565 S
C1432  H1433   1.111   .     S
C1432  H1435   1.111   .     S
C1432  H1434   1.111   .     S
C1432  C1487   1.528   .     S
O1436  C1437   1.421   .     S
C1437  H1438   1.109   .     S
C1437  C1440   1.535   .     S
C1437  H1439   1.117   .     S
C1440  C1443   1.524   .     S
C1440  H1093   1.112   1_565 S
C1440  H1094   1.109   1_565 S
C1443  H1444   1.111   .     S
C1443  H53     1.109   1_566 S
C1443  H402    1.110   1_556 S
C1451  O1475   1.291   .     A
C1451  C1462   1.446   .     S
C1451  O1473   1.290   .     A
C1452  O1476   1.288   .     A
C1452  C1461   1.454   .     S
C1452  O1474   1.298   .     A
C1453  O1477   1.287   .     A
C1453  O1479   1.288   .     A
C1453  C1455   1.432   .     S
C1454  O1478   1.287   .     A
C1454  C1456   1.433   .     S
C1454  O1480   1.289   .     A
C1456  C1513   1.334   .     S
C1456  H1540   1.087   .     S
C1457  O1483   1.385   .     S
C1457  C1462   1.410   .     A
C1458  C1461   1.413   .     A
C1458  O1494   1.385   .     S
C1458  C1112   1.383   1_565 S
C1459  C1461   1.401   .     A
C1459  H1469   1.083   .     S
C1459  C1109   1.390   1_565 S
C1460  C1462   1.395   .     A
C1460  H1470   1.084   .     S
C1463  N1472   1.367   .     A
C1463  H1505   1.080   .     S
C1464  H1506   1.082   .     S
C1464  N1471   1.367   .     A
C1464  C422    1.417   1_556 S
C1465  H1507   1.082   .     S
C1465  N1471   1.367   .     A
C1465  C419    1.417   1_556 S
C1466  H1508   1.082   .     S
C1466  N1472   1.367   .     A
Cu1467 Cu1468  2.681   .     S
Cu1467 O1480   1.957   .     S
Cu1467 O1473   1.961   .     S
Cu1467 O1476   1.965   .     S
Cu1467 O1477   1.955   .     S
Cu1467 N1471   2.015   .     S
Cu1468 O1479   1.957   .     S
Cu1468 O1474   1.961   .     S
Cu1468 O1475   1.965   .     S
Cu1468 O1478   1.955   .     S
Cu1468 N1472   2.015   .     S
H1481  C1513   1.087   .     S
O1483  C1484   1.421   .     S
C1484  C1487   1.538   .     S
C1484  H1486   1.112   .     S
C1484  H1485   1.110   .     S
C1487  H1488   1.110   .     S
H1489  C1139   1.111   1_565 S
C1490  H1491   1.111   .     S
C1490  H1493   1.111   .     S
C1490  H1492   1.111   .     S
C1490  C1545   1.528   .     S
O1494  C1495   1.421   .     S
C1495  H1496   1.109   .     S
C1495  C1498   1.535   .     S
C1495  H1497   1.117   .     S
C1498  C1501   1.524   .     S
C1498  H1151   1.112   1_565 S
C1498  H1152   1.109   1_565 S
C1501  H1502   1.111   .     S
C1501  H111    1.109   1_566 S
C1501  H460    1.110   1_556 S
C1509  O1533   1.291   .     A
C1509  C1520   1.446   .     S
C1509  O1531   1.290   .     A
C1510  O1534   1.288   .     A
C1510  C1519   1.454   .     S
C1510  O1532   1.298   .     A
C1511  O1535   1.287   .     A
C1511  O1537   1.288   .     A
C1511  C1513   1.432   .     S
C1512  O1536   1.287   .     A
C1512  C1514   1.433   .     S
C1512  O1538   1.289   .     A
C1514  C1397   1.334   1_655 S
C1514  H1424   1.087   1_655 S
C1515  O1541   1.385   .     S
C1515  C1520   1.410   .     A
C1516  C1519   1.413   .     A
C1516  O1552   1.385   .     S
C1516  C1170   1.383   1_565 S
C1517  C1519   1.401   .     A
C1517  H1527   1.083   .     S
C1517  C1167   1.390   1_565 S
C1518  C1520   1.395   .     A
C1518  H1528   1.084   .     S
C1521  N1530   1.367   .     A
C1521  H1563   1.080   .     S
C1522  H1564   1.082   .     S
C1522  N1529   1.367   .     A
C1522  C480    1.417   1_556 S
C1523  H1565   1.082   .     S
C1523  N1529   1.367   .     A
C1523  C477    1.417   1_556 S
C1524  H1566   1.082   .     S
C1524  N1530   1.367   .     A
Cu1525 Cu1526  2.681   .     S
Cu1525 O1538   1.957   .     S
Cu1525 O1531   1.961   .     S
Cu1525 O1534   1.965   .     S
Cu1525 O1535   1.955   .     S
Cu1525 N1529   2.015   .     S
Cu1526 O1537   1.957   .     S
Cu1526 O1532   1.961   .     S
Cu1526 O1533   1.965   .     S
Cu1526 O1536   1.955   .     S
Cu1526 N1530   2.015   .     S
H1539  C1397   1.087   1_655 S
O1541  C1542   1.421   .     S
C1542  C1545   1.538   .     S
C1542  H1544   1.112   .     S
C1542  H1543   1.110   .     S
C1545  H1546   1.110   .     S
H1547  C1197   1.111   1_565 S
C1548  H1549   1.111   .     S
C1548  H1551   1.111   .     S
C1548  H1550   1.111   .     S
C1548  C1429   1.528   1_655 S
O1552  C1553   1.421   .     S
C1553  H1554   1.109   .     S
C1553  C1556   1.535   .     S
C1553  H1555   1.117   .     S
C1556  C1559   1.524   .     S
C1556  H1209   1.112   1_565 S
C1556  H1210   1.109   1_565 S
C1559  H1560   1.111   .     S
C1559  H169    1.109   1_566 S
C1559  H518    1.110   1_556 S
