data_str_m2_o10_o18_pcu_sym.117
_audit_creation_date              2020-01-03
_audit_creation_method            'Materials Studio'
_symmetry_space_group_name_H-M    'P1'
_symmetry_Int_Tables_number       1
_symmetry_cell_setting            triclinic
loop_
_symmetry_equiv_pos_as_xyz
  x,y,z
_cell_length_a                    22.4553
_cell_length_b                    26.2769
_cell_length_c                    31.6548
_cell_angle_alpha                 95.0506
_cell_angle_beta                  75.6017
_cell_angle_gamma                 103.3750
loop_
_atom_site_label
_atom_site_type_symbol
_atom_site_fract_x
_atom_site_fract_y
_atom_site_fract_z
_atom_site_U_iso_or_equiv
_atom_site_adp_type
_atom_site_occupancy
C1     C     0.18117   0.26650   0.25206   0.00000  Uiso   1.00
C2     C     0.15244   0.06688   0.24768   0.00000  Uiso   1.00
C3     C     0.09207   0.13430   0.03922   0.00000  Uiso   1.00
C4     C     0.24121   0.18909   0.45927   0.00000  Uiso   1.00
C5     C     0.04950   0.11827   0.01275   0.00000  Uiso   1.00
C6     C     0.28384   0.20528   0.48554   0.00000  Uiso   1.00
C7     C     0.18632   0.32220   0.25763   0.00000  Uiso   1.00
C8     C     0.14819   0.01143   0.24188   0.00000  Uiso   1.00
C9     C     0.12835   0.16228   0.33288   0.00000  Uiso   1.00
C10    C     0.20487   0.17039   0.16703   0.00000  Uiso   1.00
C11    C     0.10538   0.15384   0.37978   0.00000  Uiso   1.00
C12    C     0.22755   0.17610   0.11971   0.00000  Uiso   1.00
C13    C     0.02586   0.11449   0.44121   0.00000  Uiso   1.00
C14    C     0.30784   0.21075   0.05694   0.00000  Uiso   1.00
C15    C     0.04403   0.12683   0.39736   0.00000  Uiso   1.00
C16    C     0.28949   0.20074   0.10121   0.00000  Uiso   1.00
C17    C     0.14811   0.16864   0.40632   0.00000  Uiso   1.00
C18    C     0.18468   0.15992   0.09332   0.00000  Uiso   1.00
C19    C     0.13221   0.15440   0.45015   0.00000  Uiso   1.00
C20    C     0.20093   0.17119   0.04876   0.00000  Uiso   1.00
C21    C     0.06914   0.12818   0.46805   0.00000  Uiso   1.00
C22    C     0.26425   0.19651   0.03039   0.00000  Uiso   1.00
C23    C     0.17676   0.16718   0.47675   0.00000  Uiso   1.00
C24    C     0.15642   0.15718   0.02203   0.00000  Uiso   1.00
Cu25   Cu    0.10737   0.16108   0.24517   0.00000  Uiso   1.00
Cu26   Cu    0.22596   0.17225   0.25484   0.00000  Uiso   1.00
H27    H     0.13904   0.13782   0.10852   0.00000  Uiso   1.00
H28    H     0.19348   0.19213   0.39178   0.00000  Uiso   1.00
H29    H     0.32348   0.21267   0.12102   0.00000  Uiso   1.00
H30    H     0.01031   0.11488   0.37721   0.00000  Uiso   1.00
H31    H     0.31068   0.09515   0.45405   0.00000  Uiso   1.00
H32    H     0.02329   0.22901   0.04358   0.00000  Uiso   1.00
H33    H     0.07206   0.12934   0.07355   0.00000  Uiso   1.00
H34    H     0.26119   0.19298   0.42479   0.00000  Uiso   1.00
N35    N     0.31506   0.18068   0.26212   0.00000  Uiso   1.00
N36    N     0.01827   0.15265   0.23788   0.00000  Uiso   1.00
O37    O     0.12815   0.23809   0.24686   0.00000  Uiso   1.00
O38    O     0.20518   0.09524   0.25314   0.00000  Uiso   1.00
O39    O     0.22829   0.24753   0.25503   0.00000  Uiso   1.00
O40    O     0.10504   0.08580   0.24498   0.00000  Uiso   1.00
O41    O     0.08851   0.15930   0.30855   0.00000  Uiso   1.00
O42    O     0.24482   0.17403   0.19146   0.00000  Uiso   1.00
O43    O     0.18866   0.16874   0.31671   0.00000  Uiso   1.00
O44    O     0.14468   0.16460   0.18329   0.00000  Uiso   1.00
O45    O     0.31959   0.10162   0.03250   0.00000  Uiso   1.00
C46    C     0.30384   0.04659   0.03248   0.00000  Uiso   1.00
H47    H     0.33273   0.03114   0.05008   0.00000  Uiso   1.00
H48    H     0.31043   0.03024   0.49856   0.00000  Uiso   1.00
C49    C     0.23464   0.02855   0.05499   0.00000  Uiso   1.00
H50    H     0.22528   0.04494   0.08890   0.00000  Uiso   1.00
H51    H     0.22203   0.31847   0.05582   0.00000  Uiso   1.00
H52    H     0.20477   0.04190   0.03694   0.00000  Uiso   1.00
O53    O     0.01355   0.22244   0.46569   0.00000  Uiso   1.00
C54    C     0.02785   0.27738   0.46478   0.00000  Uiso   1.00
H55    H     0.02183   0.29437   0.49849   0.00000  Uiso   1.00
H56    H     0.33108   0.29156   0.44728   0.00000  Uiso   1.00
C57    C     0.09641   0.29617   0.44138   0.00000  Uiso   1.00
H58    H     0.10458   0.28095   0.40706   0.00000  Uiso   1.00
H59    H     0.10823   0.00626   0.44181   0.00000  Uiso   1.00
H60    H     0.12746   0.28233   0.45813   0.00000  Uiso   1.00
O61    O     0.23350   0.01839   0.27654   0.00000  Uiso   1.00
C62    C     0.21978   0.00899   0.32169   0.00000  Uiso   1.00
H63    H     0.26463   0.00886   0.33018   0.00000  Uiso   1.00
H64    H     0.18732   0.30407   0.33170   0.00000  Uiso   1.00
C65    C     0.19349   0.05326   0.34837   0.00000  Uiso   1.00
H66    H     0.14675   0.05345   0.34263   0.00000  Uiso   1.00
H67    H     0.18830   0.04807   0.38357   0.00000  Uiso   1.00
H68    H     0.22651   0.09124   0.33922   0.00000  Uiso   1.00
O69    O     0.10490   0.31614   0.21948   0.00000  Uiso   1.00
C70    C     0.13267   0.31941   0.17427   0.00000  Uiso   1.00
H71    H     0.17811   0.30622   0.16581   0.00000  Uiso   1.00
H72    H     0.14110   0.02687   0.16348   0.00000  Uiso   1.00
C73    C     0.08841   0.28399   0.14939   0.00000  Uiso   1.00
H74    H     0.10938   0.28646   0.11375   0.00000  Uiso   1.00
H75    H     0.08029   0.24283   0.15896   0.00000  Uiso   1.00
H76    H     0.04265   0.29620   0.15682   0.00000  Uiso   1.00
O77    O     0.00195   0.20172   0.29774   0.00000  Uiso   1.00
C78    C     0.32027   0.25097   0.30764   0.00000  Uiso   1.00
H79    H     0.26939   0.24677   0.32265   0.00000  Uiso   1.00
H80    H     0.00104   0.27510   0.27814   0.00000  Uiso   1.00
C81    C     0.02294   0.27910   0.34091   0.00000  Uiso   1.00
H82    H     0.00820   0.25647   0.37115   0.00000  Uiso   1.00
H83    H     0.07424   0.28268   0.32766   0.00000  Uiso   1.00
H84    H     0.01376   0.31891   0.34904   0.00000  Uiso   1.00
O85    O     0.32024   0.11201   0.21743   0.00000  Uiso   1.00
C86    C     0.02519   0.10229   0.17675   0.00000  Uiso   1.00
H87    H     0.06433   0.08551   0.18054   0.00000  Uiso   1.00
H88    H     0.04267   0.13862   0.15773   0.00000  Uiso   1.00
C89    C     0.31937   0.06185   0.15152   0.00000  Uiso   1.00
H90    H     0.28161   0.07819   0.14449   0.00000  Uiso   1.00
H91    H     0.01669   0.05098   0.12042   0.00000  Uiso   1.00
H92    H     0.29760   0.02613   0.17084   0.00000  Uiso   1.00
C93    C     0.51451   0.26650   0.25206   0.00000  Uiso   1.00
C94    C     0.48578   0.06688   0.24768   0.00000  Uiso   1.00
C95    C     0.42540   0.13430   0.03922   0.00000  Uiso   1.00
C96    C     0.57454   0.18909   0.45927   0.00000  Uiso   1.00
C97    C     0.38283   0.11827   0.01275   0.00000  Uiso   1.00
C98    C     0.61717   0.20528   0.48554   0.00000  Uiso   1.00
C99    C     0.51965   0.32220   0.25763   0.00000  Uiso   1.00
C100   C     0.48152   0.01143   0.24188   0.00000  Uiso   1.00
C101   C     0.46168   0.16228   0.33288   0.00000  Uiso   1.00
C102   C     0.53821   0.17039   0.16703   0.00000  Uiso   1.00
C103   C     0.43871   0.15384   0.37978   0.00000  Uiso   1.00
C104   C     0.56088   0.17610   0.11971   0.00000  Uiso   1.00
C105   C     0.35919   0.11449   0.44121   0.00000  Uiso   1.00
C106   C     0.64117   0.21075   0.05694   0.00000  Uiso   1.00
C107   C     0.37737   0.12683   0.39736   0.00000  Uiso   1.00
C108   C     0.62282   0.20074   0.10121   0.00000  Uiso   1.00
C109   C     0.48144   0.16864   0.40632   0.00000  Uiso   1.00
C110   C     0.51802   0.15992   0.09332   0.00000  Uiso   1.00
C111   C     0.46555   0.15440   0.45015   0.00000  Uiso   1.00
C112   C     0.53426   0.17119   0.04876   0.00000  Uiso   1.00
C113   C     0.40248   0.12818   0.46805   0.00000  Uiso   1.00
C114   C     0.59759   0.19651   0.03039   0.00000  Uiso   1.00
C115   C     0.51009   0.16718   0.47675   0.00000  Uiso   1.00
C116   C     0.48976   0.15718   0.02203   0.00000  Uiso   1.00
Cu117  Cu    0.44071   0.16108   0.24517   0.00000  Uiso   1.00
Cu118  Cu    0.55929   0.17225   0.25484   0.00000  Uiso   1.00
H119   H     0.47237   0.13782   0.10852   0.00000  Uiso   1.00
H120   H     0.52681   0.19213   0.39178   0.00000  Uiso   1.00
H121   H     0.65682   0.21267   0.12102   0.00000  Uiso   1.00
H122   H     0.34365   0.11488   0.37721   0.00000  Uiso   1.00
H123   H     0.64401   0.09515   0.45405   0.00000  Uiso   1.00
H124   H     0.35662   0.22901   0.04358   0.00000  Uiso   1.00
H125   H     0.40539   0.12934   0.07355   0.00000  Uiso   1.00
H126   H     0.59453   0.19298   0.42479   0.00000  Uiso   1.00
N127   N     0.64839   0.18068   0.26212   0.00000  Uiso   1.00
N128   N     0.35161   0.15265   0.23788   0.00000  Uiso   1.00
O129   O     0.46148   0.23809   0.24686   0.00000  Uiso   1.00
O130   O     0.53852   0.09524   0.25314   0.00000  Uiso   1.00
O131   O     0.56163   0.24753   0.25503   0.00000  Uiso   1.00
O132   O     0.43837   0.08580   0.24498   0.00000  Uiso   1.00
O133   O     0.42185   0.15930   0.30855   0.00000  Uiso   1.00
O134   O     0.57815   0.17403   0.19146   0.00000  Uiso   1.00
O135   O     0.52199   0.16874   0.31671   0.00000  Uiso   1.00
O136   O     0.47801   0.16460   0.18329   0.00000  Uiso   1.00
O137   O     0.65293   0.10162   0.03250   0.00000  Uiso   1.00
C138   C     0.63717   0.04659   0.03248   0.00000  Uiso   1.00
H139   H     0.66606   0.03114   0.05008   0.00000  Uiso   1.00
H140   H     0.64376   0.03024   0.49856   0.00000  Uiso   1.00
C141   C     0.56798   0.02855   0.05499   0.00000  Uiso   1.00
H142   H     0.55862   0.04494   0.08890   0.00000  Uiso   1.00
H143   H     0.55536   0.31847   0.05582   0.00000  Uiso   1.00
H144   H     0.53810   0.04190   0.03694   0.00000  Uiso   1.00
O145   O     0.34689   0.22244   0.46569   0.00000  Uiso   1.00
C146   C     0.36118   0.27738   0.46478   0.00000  Uiso   1.00
H147   H     0.35517   0.29437   0.49849   0.00000  Uiso   1.00
H148   H     0.66442   0.29156   0.44728   0.00000  Uiso   1.00
C149   C     0.42974   0.29617   0.44138   0.00000  Uiso   1.00
H150   H     0.43792   0.28095   0.40706   0.00000  Uiso   1.00
H151   H     0.44157   0.00626   0.44181   0.00000  Uiso   1.00
H152   H     0.46080   0.28233   0.45813   0.00000  Uiso   1.00
O153   O     0.56684   0.01839   0.27654   0.00000  Uiso   1.00
C154   C     0.55311   0.00899   0.32169   0.00000  Uiso   1.00
H155   H     0.59796   0.00886   0.33018   0.00000  Uiso   1.00
H156   H     0.52065   0.30407   0.33170   0.00000  Uiso   1.00
C157   C     0.52682   0.05326   0.34837   0.00000  Uiso   1.00
H158   H     0.48008   0.05345   0.34263   0.00000  Uiso   1.00
H159   H     0.52163   0.04807   0.38357   0.00000  Uiso   1.00
H160   H     0.55984   0.09124   0.33922   0.00000  Uiso   1.00
O161   O     0.43824   0.31614   0.21948   0.00000  Uiso   1.00
C162   C     0.46600   0.31941   0.17427   0.00000  Uiso   1.00
H163   H     0.51145   0.30622   0.16581   0.00000  Uiso   1.00
H164   H     0.47443   0.02687   0.16348   0.00000  Uiso   1.00
C165   C     0.42174   0.28399   0.14939   0.00000  Uiso   1.00
H166   H     0.44271   0.28646   0.11375   0.00000  Uiso   1.00
H167   H     0.41362   0.24283   0.15896   0.00000  Uiso   1.00
H168   H     0.37598   0.29620   0.15682   0.00000  Uiso   1.00
O169   O     0.33528   0.20172   0.29774   0.00000  Uiso   1.00
C170   C     0.65360   0.25097   0.30764   0.00000  Uiso   1.00
H171   H     0.60273   0.24677   0.32265   0.00000  Uiso   1.00
H172   H     0.33438   0.27510   0.27814   0.00000  Uiso   1.00
C173   C     0.35627   0.27910   0.34091   0.00000  Uiso   1.00
H174   H     0.34153   0.25647   0.37115   0.00000  Uiso   1.00
H175   H     0.40757   0.28268   0.32766   0.00000  Uiso   1.00
H176   H     0.34710   0.31891   0.34904   0.00000  Uiso   1.00
O177   O     0.65357   0.11201   0.21743   0.00000  Uiso   1.00
C178   C     0.35852   0.10229   0.17675   0.00000  Uiso   1.00
H179   H     0.39767   0.08551   0.18054   0.00000  Uiso   1.00
H180   H     0.37601   0.13862   0.15773   0.00000  Uiso   1.00
C181   C     0.65271   0.06185   0.15152   0.00000  Uiso   1.00
H182   H     0.61494   0.07819   0.14449   0.00000  Uiso   1.00
H183   H     0.35002   0.05098   0.12042   0.00000  Uiso   1.00
H184   H     0.63094   0.02613   0.17084   0.00000  Uiso   1.00
C185   C     0.84784   0.26650   0.25206   0.00000  Uiso   1.00
C186   C     0.81911   0.06688   0.24768   0.00000  Uiso   1.00
C187   C     0.75873   0.13430   0.03922   0.00000  Uiso   1.00
C188   C     0.90787   0.18909   0.45927   0.00000  Uiso   1.00
C189   C     0.71616   0.11827   0.01275   0.00000  Uiso   1.00
C190   C     0.95051   0.20528   0.48554   0.00000  Uiso   1.00
C191   C     0.85299   0.32220   0.25763   0.00000  Uiso   1.00
C192   C     0.81485   0.01143   0.24188   0.00000  Uiso   1.00
C193   C     0.79501   0.16228   0.33288   0.00000  Uiso   1.00
C194   C     0.87154   0.17039   0.16703   0.00000  Uiso   1.00
C195   C     0.77204   0.15384   0.37978   0.00000  Uiso   1.00
C196   C     0.89422   0.17610   0.11971   0.00000  Uiso   1.00
C197   C     0.69253   0.11449   0.44121   0.00000  Uiso   1.00
C198   C     0.97450   0.21075   0.05694   0.00000  Uiso   1.00
C199   C     0.71070   0.12683   0.39736   0.00000  Uiso   1.00
C200   C     0.95615   0.20074   0.10121   0.00000  Uiso   1.00
C201   C     0.81478   0.16864   0.40632   0.00000  Uiso   1.00
C202   C     0.85135   0.15992   0.09332   0.00000  Uiso   1.00
C203   C     0.79888   0.15440   0.45015   0.00000  Uiso   1.00
C204   C     0.86759   0.17119   0.04876   0.00000  Uiso   1.00
C205   C     0.73581   0.12818   0.46805   0.00000  Uiso   1.00
C206   C     0.93092   0.19651   0.03039   0.00000  Uiso   1.00
C207   C     0.84343   0.16718   0.47675   0.00000  Uiso   1.00
C208   C     0.82309   0.15718   0.02203   0.00000  Uiso   1.00
Cu209  Cu    0.77404   0.16108   0.24517   0.00000  Uiso   1.00
Cu210  Cu    0.89263   0.17225   0.25484   0.00000  Uiso   1.00
H211   H     0.80570   0.13782   0.10852   0.00000  Uiso   1.00
H212   H     0.86015   0.19213   0.39178   0.00000  Uiso   1.00
H213   H     0.99015   0.21267   0.12102   0.00000  Uiso   1.00
H214   H     0.67698   0.11488   0.37721   0.00000  Uiso   1.00
H215   H     0.97734   0.09515   0.45405   0.00000  Uiso   1.00
H216   H     0.68996   0.22901   0.04358   0.00000  Uiso   1.00
H217   H     0.73873   0.12934   0.07355   0.00000  Uiso   1.00
H218   H     0.92786   0.19298   0.42479   0.00000  Uiso   1.00
N219   N     0.98173   0.18068   0.26212   0.00000  Uiso   1.00
N220   N     0.68494   0.15265   0.23788   0.00000  Uiso   1.00
O221   O     0.79482   0.23809   0.24686   0.00000  Uiso   1.00
O222   O     0.87185   0.09524   0.25314   0.00000  Uiso   1.00
O223   O     0.89496   0.24753   0.25503   0.00000  Uiso   1.00
O224   O     0.77171   0.08580   0.24498   0.00000  Uiso   1.00
O225   O     0.75518   0.15930   0.30855   0.00000  Uiso   1.00
O226   O     0.91149   0.17403   0.19146   0.00000  Uiso   1.00
O227   O     0.85532   0.16874   0.31671   0.00000  Uiso   1.00
O228   O     0.81134   0.16460   0.18329   0.00000  Uiso   1.00
O229   O     0.98626   0.10162   0.03250   0.00000  Uiso   1.00
C230   C     0.97050   0.04659   0.03248   0.00000  Uiso   1.00
H231   H     0.99939   0.03114   0.05008   0.00000  Uiso   1.00
H232   H     0.97710   0.03024   0.49856   0.00000  Uiso   1.00
C233   C     0.90131   0.02855   0.05499   0.00000  Uiso   1.00
H234   H     0.89195   0.04494   0.08890   0.00000  Uiso   1.00
H235   H     0.88870   0.31847   0.05582   0.00000  Uiso   1.00
H236   H     0.87144   0.04190   0.03694   0.00000  Uiso   1.00
O237   O     0.68022   0.22244   0.46569   0.00000  Uiso   1.00
C238   C     0.69452   0.27738   0.46478   0.00000  Uiso   1.00
H239   H     0.68850   0.29437   0.49849   0.00000  Uiso   1.00
H240   H     0.99775   0.29156   0.44728   0.00000  Uiso   1.00
C241   C     0.76308   0.29617   0.44138   0.00000  Uiso   1.00
H242   H     0.77125   0.28095   0.40706   0.00000  Uiso   1.00
H243   H     0.77490   0.00626   0.44181   0.00000  Uiso   1.00
H244   H     0.79413   0.28233   0.45813   0.00000  Uiso   1.00
O245   O     0.90017   0.01839   0.27654   0.00000  Uiso   1.00
C246   C     0.88644   0.00899   0.32169   0.00000  Uiso   1.00
H247   H     0.93129   0.00886   0.33018   0.00000  Uiso   1.00
H248   H     0.85399   0.30407   0.33170   0.00000  Uiso   1.00
C249   C     0.86016   0.05326   0.34837   0.00000  Uiso   1.00
H250   H     0.81341   0.05345   0.34263   0.00000  Uiso   1.00
H251   H     0.85497   0.04807   0.38357   0.00000  Uiso   1.00
H252   H     0.89318   0.09124   0.33922   0.00000  Uiso   1.00
O253   O     0.77157   0.31614   0.21948   0.00000  Uiso   1.00
C254   C     0.79934   0.31941   0.17427   0.00000  Uiso   1.00
H255   H     0.84478   0.30622   0.16581   0.00000  Uiso   1.00
H256   H     0.80776   0.02687   0.16348   0.00000  Uiso   1.00
C257   C     0.75507   0.28399   0.14939   0.00000  Uiso   1.00
H258   H     0.77604   0.28646   0.11375   0.00000  Uiso   1.00
H259   H     0.74695   0.24283   0.15896   0.00000  Uiso   1.00
H260   H     0.70932   0.29620   0.15682   0.00000  Uiso   1.00
O261   O     0.66861   0.20172   0.29774   0.00000  Uiso   1.00
C262   C     0.98694   0.25097   0.30764   0.00000  Uiso   1.00
H263   H     0.93606   0.24677   0.32265   0.00000  Uiso   1.00
H264   H     0.66771   0.27510   0.27814   0.00000  Uiso   1.00
C265   C     0.68960   0.27910   0.34091   0.00000  Uiso   1.00
H266   H     0.67486   0.25647   0.37115   0.00000  Uiso   1.00
H267   H     0.74090   0.28268   0.32766   0.00000  Uiso   1.00
H268   H     0.68043   0.31891   0.34904   0.00000  Uiso   1.00
O269   O     0.98691   0.11201   0.21743   0.00000  Uiso   1.00
C270   C     0.69185   0.10229   0.17675   0.00000  Uiso   1.00
H271   H     0.73100   0.08551   0.18054   0.00000  Uiso   1.00
H272   H     0.70934   0.13862   0.15773   0.00000  Uiso   1.00
C273   C     0.98604   0.06185   0.15152   0.00000  Uiso   1.00
H274   H     0.94828   0.07819   0.14449   0.00000  Uiso   1.00
H275   H     0.68336   0.05098   0.12042   0.00000  Uiso   1.00
H276   H     0.96427   0.02613   0.17084   0.00000  Uiso   1.00
C277   C     0.18117   0.59983   0.25206   0.00000  Uiso   1.00
C278   C     0.15244   0.40021   0.24768   0.00000  Uiso   1.00
C279   C     0.09207   0.46763   0.03922   0.00000  Uiso   1.00
C280   C     0.24121   0.52243   0.45927   0.00000  Uiso   1.00
C281   C     0.04950   0.45161   0.01275   0.00000  Uiso   1.00
C282   C     0.28384   0.53861   0.48554   0.00000  Uiso   1.00
C283   C     0.18632   0.65553   0.25763   0.00000  Uiso   1.00
C284   C     0.14819   0.34476   0.24188   0.00000  Uiso   1.00
C285   C     0.12835   0.49561   0.33288   0.00000  Uiso   1.00
C286   C     0.20487   0.50373   0.16703   0.00000  Uiso   1.00
C287   C     0.10538   0.48717   0.37978   0.00000  Uiso   1.00
C288   C     0.22755   0.50943   0.11971   0.00000  Uiso   1.00
C289   C     0.02586   0.44783   0.44121   0.00000  Uiso   1.00
C290   C     0.30784   0.54408   0.05694   0.00000  Uiso   1.00
C291   C     0.04403   0.46016   0.39736   0.00000  Uiso   1.00
C292   C     0.28949   0.53407   0.10121   0.00000  Uiso   1.00
C293   C     0.14811   0.50197   0.40632   0.00000  Uiso   1.00
C294   C     0.18468   0.49326   0.09332   0.00000  Uiso   1.00
C295   C     0.13221   0.48773   0.45015   0.00000  Uiso   1.00
C296   C     0.20093   0.50452   0.04876   0.00000  Uiso   1.00
C297   C     0.06914   0.46151   0.46805   0.00000  Uiso   1.00
C298   C     0.26425   0.52984   0.03039   0.00000  Uiso   1.00
C299   C     0.17676   0.50052   0.47675   0.00000  Uiso   1.00
C300   C     0.15642   0.49051   0.02203   0.00000  Uiso   1.00
Cu301  Cu    0.10737   0.49441   0.24517   0.00000  Uiso   1.00
Cu302  Cu    0.22596   0.50559   0.25484   0.00000  Uiso   1.00
H303   H     0.13904   0.47116   0.10852   0.00000  Uiso   1.00
H304   H     0.19348   0.52547   0.39178   0.00000  Uiso   1.00
H305   H     0.32348   0.54601   0.12102   0.00000  Uiso   1.00
H306   H     0.01031   0.44821   0.37721   0.00000  Uiso   1.00
H307   H     0.31068   0.42848   0.45405   0.00000  Uiso   1.00
H308   H     0.02329   0.56234   0.04358   0.00000  Uiso   1.00
H309   H     0.07206   0.46268   0.07355   0.00000  Uiso   1.00
H310   H     0.26119   0.52631   0.42479   0.00000  Uiso   1.00
N311   N     0.31506   0.51401   0.26212   0.00000  Uiso   1.00
N312   N     0.01827   0.48599   0.23788   0.00000  Uiso   1.00
O313   O     0.12815   0.57142   0.24686   0.00000  Uiso   1.00
O314   O     0.20518   0.42858   0.25314   0.00000  Uiso   1.00
O315   O     0.22829   0.58086   0.25503   0.00000  Uiso   1.00
O316   O     0.10504   0.41914   0.24498   0.00000  Uiso   1.00
O317   O     0.08851   0.49263   0.30855   0.00000  Uiso   1.00
O318   O     0.24482   0.50737   0.19146   0.00000  Uiso   1.00
O319   O     0.18866   0.50207   0.31671   0.00000  Uiso   1.00
O320   O     0.14468   0.49793   0.18329   0.00000  Uiso   1.00
O321   O     0.31959   0.43495   0.03250   0.00000  Uiso   1.00
C322   C     0.30384   0.37993   0.03248   0.00000  Uiso   1.00
H323   H     0.33273   0.36447   0.05008   0.00000  Uiso   1.00
H324   H     0.31043   0.36357   0.49856   0.00000  Uiso   1.00
C325   C     0.23464   0.36188   0.05499   0.00000  Uiso   1.00
H326   H     0.22528   0.37827   0.08890   0.00000  Uiso   1.00
H327   H     0.22203   0.65180   0.05582   0.00000  Uiso   1.00
H328   H     0.20477   0.37524   0.03694   0.00000  Uiso   1.00
O329   O     0.01355   0.55577   0.46569   0.00000  Uiso   1.00
C330   C     0.02785   0.61071   0.46478   0.00000  Uiso   1.00
H331   H     0.02183   0.62771   0.49849   0.00000  Uiso   1.00
H332   H     0.33108   0.62490   0.44728   0.00000  Uiso   1.00
C333   C     0.09641   0.62950   0.44138   0.00000  Uiso   1.00
H334   H     0.10458   0.61428   0.40706   0.00000  Uiso   1.00
H335   H     0.10823   0.33960   0.44181   0.00000  Uiso   1.00
H336   H     0.12746   0.61567   0.45813   0.00000  Uiso   1.00
O337   O     0.23350   0.35172   0.27654   0.00000  Uiso   1.00
C338   C     0.21978   0.34232   0.32169   0.00000  Uiso   1.00
H339   H     0.26463   0.34219   0.33018   0.00000  Uiso   1.00
H340   H     0.18732   0.63741   0.33170   0.00000  Uiso   1.00
C341   C     0.19349   0.38660   0.34837   0.00000  Uiso   1.00
H342   H     0.14675   0.38679   0.34263   0.00000  Uiso   1.00
H343   H     0.18830   0.38141   0.38357   0.00000  Uiso   1.00
H344   H     0.22651   0.42457   0.33922   0.00000  Uiso   1.00
O345   O     0.10490   0.64947   0.21948   0.00000  Uiso   1.00
C346   C     0.13267   0.65274   0.17427   0.00000  Uiso   1.00
H347   H     0.17811   0.63955   0.16581   0.00000  Uiso   1.00
H348   H     0.14110   0.36020   0.16348   0.00000  Uiso   1.00
C349   C     0.08841   0.61732   0.14939   0.00000  Uiso   1.00
H350   H     0.10938   0.61980   0.11375   0.00000  Uiso   1.00
H351   H     0.08029   0.57616   0.15896   0.00000  Uiso   1.00
H352   H     0.04265   0.62953   0.15682   0.00000  Uiso   1.00
O353   O     0.00195   0.53505   0.29774   0.00000  Uiso   1.00
C354   C     0.32027   0.58430   0.30764   0.00000  Uiso   1.00
H355   H     0.26939   0.58010   0.32265   0.00000  Uiso   1.00
H356   H     0.00104   0.60843   0.27814   0.00000  Uiso   1.00
C357   C     0.02294   0.61243   0.34091   0.00000  Uiso   1.00
H358   H     0.00820   0.58980   0.37115   0.00000  Uiso   1.00
H359   H     0.07424   0.61601   0.32766   0.00000  Uiso   1.00
H360   H     0.01376   0.65224   0.34904   0.00000  Uiso   1.00
O361   O     0.32024   0.44534   0.21743   0.00000  Uiso   1.00
C362   C     0.02519   0.43562   0.17675   0.00000  Uiso   1.00
H363   H     0.06433   0.41885   0.18054   0.00000  Uiso   1.00
H364   H     0.04267   0.47195   0.15773   0.00000  Uiso   1.00
C365   C     0.31937   0.39519   0.15152   0.00000  Uiso   1.00
H366   H     0.28161   0.41152   0.14449   0.00000  Uiso   1.00
H367   H     0.01669   0.38431   0.12042   0.00000  Uiso   1.00
H368   H     0.29760   0.35946   0.17084   0.00000  Uiso   1.00
C369   C     0.51451   0.59983   0.25206   0.00000  Uiso   1.00
C370   C     0.48578   0.40021   0.24768   0.00000  Uiso   1.00
C371   C     0.42540   0.46763   0.03922   0.00000  Uiso   1.00
C372   C     0.57454   0.52243   0.45927   0.00000  Uiso   1.00
C373   C     0.38283   0.45161   0.01275   0.00000  Uiso   1.00
C374   C     0.61717   0.53861   0.48554   0.00000  Uiso   1.00
C375   C     0.51965   0.65553   0.25763   0.00000  Uiso   1.00
C376   C     0.48152   0.34476   0.24188   0.00000  Uiso   1.00
C377   C     0.46168   0.49561   0.33288   0.00000  Uiso   1.00
C378   C     0.53821   0.50373   0.16703   0.00000  Uiso   1.00
C379   C     0.43871   0.48717   0.37978   0.00000  Uiso   1.00
C380   C     0.56088   0.50943   0.11971   0.00000  Uiso   1.00
C381   C     0.35919   0.44783   0.44121   0.00000  Uiso   1.00
C382   C     0.64117   0.54408   0.05694   0.00000  Uiso   1.00
C383   C     0.37737   0.46016   0.39736   0.00000  Uiso   1.00
C384   C     0.62282   0.53407   0.10121   0.00000  Uiso   1.00
C385   C     0.48144   0.50197   0.40632   0.00000  Uiso   1.00
C386   C     0.51802   0.49326   0.09332   0.00000  Uiso   1.00
C387   C     0.46555   0.48773   0.45015   0.00000  Uiso   1.00
C388   C     0.53426   0.50452   0.04876   0.00000  Uiso   1.00
C389   C     0.40248   0.46151   0.46805   0.00000  Uiso   1.00
C390   C     0.59759   0.52984   0.03039   0.00000  Uiso   1.00
C391   C     0.51009   0.50052   0.47675   0.00000  Uiso   1.00
C392   C     0.48976   0.49051   0.02203   0.00000  Uiso   1.00
Cu393  Cu    0.44071   0.49441   0.24517   0.00000  Uiso   1.00
Cu394  Cu    0.55929   0.50559   0.25484   0.00000  Uiso   1.00
H395   H     0.47237   0.47116   0.10852   0.00000  Uiso   1.00
H396   H     0.52681   0.52547   0.39178   0.00000  Uiso   1.00
H397   H     0.65682   0.54601   0.12102   0.00000  Uiso   1.00
H398   H     0.34365   0.44821   0.37721   0.00000  Uiso   1.00
H399   H     0.64401   0.42848   0.45405   0.00000  Uiso   1.00
H400   H     0.35662   0.56234   0.04358   0.00000  Uiso   1.00
H401   H     0.40539   0.46268   0.07355   0.00000  Uiso   1.00
H402   H     0.59453   0.52631   0.42479   0.00000  Uiso   1.00
N403   N     0.64839   0.51401   0.26212   0.00000  Uiso   1.00
N404   N     0.35161   0.48599   0.23788   0.00000  Uiso   1.00
O405   O     0.46148   0.57142   0.24686   0.00000  Uiso   1.00
O406   O     0.53852   0.42858   0.25314   0.00000  Uiso   1.00
O407   O     0.56163   0.58086   0.25503   0.00000  Uiso   1.00
O408   O     0.43837   0.41914   0.24498   0.00000  Uiso   1.00
O409   O     0.42185   0.49263   0.30855   0.00000  Uiso   1.00
O410   O     0.57815   0.50737   0.19146   0.00000  Uiso   1.00
O411   O     0.52199   0.50207   0.31671   0.00000  Uiso   1.00
O412   O     0.47801   0.49793   0.18329   0.00000  Uiso   1.00
O413   O     0.65293   0.43495   0.03250   0.00000  Uiso   1.00
C414   C     0.63717   0.37993   0.03248   0.00000  Uiso   1.00
H415   H     0.66606   0.36447   0.05008   0.00000  Uiso   1.00
H416   H     0.64376   0.36357   0.49856   0.00000  Uiso   1.00
C417   C     0.56798   0.36188   0.05499   0.00000  Uiso   1.00
H418   H     0.55862   0.37827   0.08890   0.00000  Uiso   1.00
H419   H     0.55536   0.65180   0.05582   0.00000  Uiso   1.00
H420   H     0.53810   0.37524   0.03694   0.00000  Uiso   1.00
O421   O     0.34689   0.55577   0.46569   0.00000  Uiso   1.00
C422   C     0.36118   0.61071   0.46478   0.00000  Uiso   1.00
H423   H     0.35517   0.62771   0.49849   0.00000  Uiso   1.00
H424   H     0.66442   0.62490   0.44728   0.00000  Uiso   1.00
C425   C     0.42974   0.62950   0.44138   0.00000  Uiso   1.00
H426   H     0.43792   0.61428   0.40706   0.00000  Uiso   1.00
H427   H     0.44157   0.33960   0.44181   0.00000  Uiso   1.00
H428   H     0.46080   0.61567   0.45813   0.00000  Uiso   1.00
O429   O     0.56684   0.35172   0.27654   0.00000  Uiso   1.00
C430   C     0.55311   0.34232   0.32169   0.00000  Uiso   1.00
H431   H     0.59796   0.34219   0.33018   0.00000  Uiso   1.00
H432   H     0.52065   0.63741   0.33170   0.00000  Uiso   1.00
C433   C     0.52682   0.38660   0.34837   0.00000  Uiso   1.00
H434   H     0.48008   0.38679   0.34263   0.00000  Uiso   1.00
H435   H     0.52163   0.38141   0.38357   0.00000  Uiso   1.00
H436   H     0.55984   0.42457   0.33922   0.00000  Uiso   1.00
O437   O     0.43824   0.64947   0.21948   0.00000  Uiso   1.00
C438   C     0.46600   0.65274   0.17427   0.00000  Uiso   1.00
H439   H     0.51145   0.63955   0.16581   0.00000  Uiso   1.00
H440   H     0.47443   0.36020   0.16348   0.00000  Uiso   1.00
C441   C     0.42174   0.61732   0.14939   0.00000  Uiso   1.00
H442   H     0.44271   0.61980   0.11375   0.00000  Uiso   1.00
H443   H     0.41362   0.57616   0.15896   0.00000  Uiso   1.00
H444   H     0.37598   0.62953   0.15682   0.00000  Uiso   1.00
O445   O     0.33528   0.53505   0.29774   0.00000  Uiso   1.00
C446   C     0.65360   0.58430   0.30764   0.00000  Uiso   1.00
H447   H     0.60273   0.58010   0.32265   0.00000  Uiso   1.00
H448   H     0.33438   0.60843   0.27814   0.00000  Uiso   1.00
C449   C     0.35627   0.61243   0.34091   0.00000  Uiso   1.00
H450   H     0.34153   0.58980   0.37115   0.00000  Uiso   1.00
H451   H     0.40757   0.61601   0.32766   0.00000  Uiso   1.00
H452   H     0.34710   0.65224   0.34904   0.00000  Uiso   1.00
O453   O     0.65357   0.44534   0.21743   0.00000  Uiso   1.00
C454   C     0.35852   0.43562   0.17675   0.00000  Uiso   1.00
H455   H     0.39767   0.41885   0.18054   0.00000  Uiso   1.00
H456   H     0.37601   0.47195   0.15773   0.00000  Uiso   1.00
C457   C     0.65271   0.39519   0.15152   0.00000  Uiso   1.00
H458   H     0.61494   0.41152   0.14449   0.00000  Uiso   1.00
H459   H     0.35002   0.38431   0.12042   0.00000  Uiso   1.00
H460   H     0.63094   0.35946   0.17084   0.00000  Uiso   1.00
C461   C     0.84784   0.59983   0.25206   0.00000  Uiso   1.00
C462   C     0.81911   0.40021   0.24768   0.00000  Uiso   1.00
C463   C     0.75873   0.46763   0.03922   0.00000  Uiso   1.00
C464   C     0.90787   0.52243   0.45927   0.00000  Uiso   1.00
C465   C     0.71616   0.45161   0.01275   0.00000  Uiso   1.00
C466   C     0.95051   0.53861   0.48554   0.00000  Uiso   1.00
C467   C     0.85299   0.65553   0.25763   0.00000  Uiso   1.00
C468   C     0.81485   0.34476   0.24188   0.00000  Uiso   1.00
C469   C     0.79501   0.49561   0.33288   0.00000  Uiso   1.00
C470   C     0.87154   0.50373   0.16703   0.00000  Uiso   1.00
C471   C     0.77204   0.48717   0.37978   0.00000  Uiso   1.00
C472   C     0.89422   0.50943   0.11971   0.00000  Uiso   1.00
C473   C     0.69253   0.44783   0.44121   0.00000  Uiso   1.00
C474   C     0.97450   0.54408   0.05694   0.00000  Uiso   1.00
C475   C     0.71070   0.46016   0.39736   0.00000  Uiso   1.00
C476   C     0.95615   0.53407   0.10121   0.00000  Uiso   1.00
C477   C     0.81478   0.50197   0.40632   0.00000  Uiso   1.00
C478   C     0.85135   0.49326   0.09332   0.00000  Uiso   1.00
C479   C     0.79888   0.48773   0.45015   0.00000  Uiso   1.00
C480   C     0.86759   0.50452   0.04876   0.00000  Uiso   1.00
C481   C     0.73581   0.46151   0.46805   0.00000  Uiso   1.00
C482   C     0.93092   0.52984   0.03039   0.00000  Uiso   1.00
C483   C     0.84343   0.50052   0.47675   0.00000  Uiso   1.00
C484   C     0.82309   0.49051   0.02203   0.00000  Uiso   1.00
Cu485  Cu    0.77404   0.49441   0.24517   0.00000  Uiso   1.00
Cu486  Cu    0.89263   0.50559   0.25484   0.00000  Uiso   1.00
H487   H     0.80570   0.47116   0.10852   0.00000  Uiso   1.00
H488   H     0.86015   0.52547   0.39178   0.00000  Uiso   1.00
H489   H     0.99015   0.54601   0.12102   0.00000  Uiso   1.00
H490   H     0.67698   0.44821   0.37721   0.00000  Uiso   1.00
H491   H     0.97734   0.42848   0.45405   0.00000  Uiso   1.00
H492   H     0.68996   0.56234   0.04358   0.00000  Uiso   1.00
H493   H     0.73873   0.46268   0.07355   0.00000  Uiso   1.00
H494   H     0.92786   0.52631   0.42479   0.00000  Uiso   1.00
N495   N     0.98173   0.51401   0.26212   0.00000  Uiso   1.00
N496   N     0.68494   0.48599   0.23788   0.00000  Uiso   1.00
O497   O     0.79482   0.57142   0.24686   0.00000  Uiso   1.00
O498   O     0.87185   0.42858   0.25314   0.00000  Uiso   1.00
O499   O     0.89496   0.58086   0.25503   0.00000  Uiso   1.00
O500   O     0.77171   0.41914   0.24498   0.00000  Uiso   1.00
O501   O     0.75518   0.49263   0.30855   0.00000  Uiso   1.00
O502   O     0.91149   0.50737   0.19146   0.00000  Uiso   1.00
O503   O     0.85532   0.50207   0.31671   0.00000  Uiso   1.00
O504   O     0.81134   0.49793   0.18329   0.00000  Uiso   1.00
O505   O     0.98626   0.43495   0.03250   0.00000  Uiso   1.00
C506   C     0.97050   0.37993   0.03248   0.00000  Uiso   1.00
H507   H     0.99939   0.36447   0.05008   0.00000  Uiso   1.00
H508   H     0.97710   0.36357   0.49856   0.00000  Uiso   1.00
C509   C     0.90131   0.36188   0.05499   0.00000  Uiso   1.00
H510   H     0.89195   0.37827   0.08890   0.00000  Uiso   1.00
H511   H     0.88870   0.65180   0.05582   0.00000  Uiso   1.00
H512   H     0.87144   0.37524   0.03694   0.00000  Uiso   1.00
O513   O     0.68022   0.55577   0.46569   0.00000  Uiso   1.00
C514   C     0.69452   0.61071   0.46478   0.00000  Uiso   1.00
H515   H     0.68850   0.62771   0.49849   0.00000  Uiso   1.00
H516   H     0.99775   0.62490   0.44728   0.00000  Uiso   1.00
C517   C     0.76308   0.62950   0.44138   0.00000  Uiso   1.00
H518   H     0.77125   0.61428   0.40706   0.00000  Uiso   1.00
H519   H     0.77490   0.33960   0.44181   0.00000  Uiso   1.00
H520   H     0.79413   0.61567   0.45813   0.00000  Uiso   1.00
O521   O     0.90017   0.35172   0.27654   0.00000  Uiso   1.00
C522   C     0.88644   0.34232   0.32169   0.00000  Uiso   1.00
H523   H     0.93129   0.34219   0.33018   0.00000  Uiso   1.00
H524   H     0.85399   0.63741   0.33170   0.00000  Uiso   1.00
C525   C     0.86016   0.38660   0.34837   0.00000  Uiso   1.00
H526   H     0.81341   0.38679   0.34263   0.00000  Uiso   1.00
H527   H     0.85497   0.38141   0.38357   0.00000  Uiso   1.00
H528   H     0.89318   0.42457   0.33922   0.00000  Uiso   1.00
O529   O     0.77157   0.64947   0.21948   0.00000  Uiso   1.00
C530   C     0.79934   0.65274   0.17427   0.00000  Uiso   1.00
H531   H     0.84478   0.63955   0.16581   0.00000  Uiso   1.00
H532   H     0.80776   0.36020   0.16348   0.00000  Uiso   1.00
C533   C     0.75507   0.61732   0.14939   0.00000  Uiso   1.00
H534   H     0.77604   0.61980   0.11375   0.00000  Uiso   1.00
H535   H     0.74695   0.57616   0.15896   0.00000  Uiso   1.00
H536   H     0.70932   0.62953   0.15682   0.00000  Uiso   1.00
O537   O     0.66861   0.53505   0.29774   0.00000  Uiso   1.00
C538   C     0.98694   0.58430   0.30764   0.00000  Uiso   1.00
H539   H     0.93606   0.58010   0.32265   0.00000  Uiso   1.00
H540   H     0.66771   0.60843   0.27814   0.00000  Uiso   1.00
C541   C     0.68960   0.61243   0.34091   0.00000  Uiso   1.00
H542   H     0.67486   0.58980   0.37115   0.00000  Uiso   1.00
H543   H     0.74090   0.61601   0.32766   0.00000  Uiso   1.00
H544   H     0.68043   0.65224   0.34904   0.00000  Uiso   1.00
O545   O     0.98691   0.44534   0.21743   0.00000  Uiso   1.00
C546   C     0.69185   0.43562   0.17675   0.00000  Uiso   1.00
H547   H     0.73100   0.41885   0.18054   0.00000  Uiso   1.00
H548   H     0.70934   0.47195   0.15773   0.00000  Uiso   1.00
C549   C     0.98604   0.39519   0.15152   0.00000  Uiso   1.00
H550   H     0.94828   0.41152   0.14449   0.00000  Uiso   1.00
H551   H     0.68336   0.38431   0.12042   0.00000  Uiso   1.00
H552   H     0.96427   0.35946   0.17084   0.00000  Uiso   1.00
C553   C     0.18117   0.93317   0.25206   0.00000  Uiso   1.00
C554   C     0.15244   0.73354   0.24768   0.00000  Uiso   1.00
C555   C     0.09207   0.80096   0.03922   0.00000  Uiso   1.00
C556   C     0.24121   0.85576   0.45927   0.00000  Uiso   1.00
C557   C     0.04950   0.78494   0.01275   0.00000  Uiso   1.00
C558   C     0.28384   0.87195   0.48554   0.00000  Uiso   1.00
C559   C     0.18632   0.98887   0.25763   0.00000  Uiso   1.00
C560   C     0.14819   0.67810   0.24188   0.00000  Uiso   1.00
C561   C     0.12835   0.82895   0.33288   0.00000  Uiso   1.00
C562   C     0.20487   0.83706   0.16703   0.00000  Uiso   1.00
C563   C     0.10538   0.82051   0.37978   0.00000  Uiso   1.00
C564   C     0.22755   0.84277   0.11971   0.00000  Uiso   1.00
C565   C     0.02586   0.78116   0.44121   0.00000  Uiso   1.00
C566   C     0.30784   0.87741   0.05694   0.00000  Uiso   1.00
C567   C     0.04403   0.79350   0.39736   0.00000  Uiso   1.00
C568   C     0.28949   0.86741   0.10121   0.00000  Uiso   1.00
C569   C     0.14811   0.83531   0.40632   0.00000  Uiso   1.00
C570   C     0.18468   0.82659   0.09332   0.00000  Uiso   1.00
C571   C     0.13221   0.82107   0.45015   0.00000  Uiso   1.00
C572   C     0.20093   0.83786   0.04876   0.00000  Uiso   1.00
C573   C     0.06914   0.79484   0.46805   0.00000  Uiso   1.00
C574   C     0.26425   0.86318   0.03039   0.00000  Uiso   1.00
C575   C     0.17676   0.83385   0.47675   0.00000  Uiso   1.00
C576   C     0.15642   0.82384   0.02203   0.00000  Uiso   1.00
Cu577  Cu    0.10737   0.82775   0.24517   0.00000  Uiso   1.00
Cu578  Cu    0.22596   0.83892   0.25484   0.00000  Uiso   1.00
H579   H     0.13904   0.80449   0.10852   0.00000  Uiso   1.00
H580   H     0.19348   0.85880   0.39178   0.00000  Uiso   1.00
H581   H     0.32348   0.87934   0.12102   0.00000  Uiso   1.00
H582   H     0.01031   0.78154   0.37721   0.00000  Uiso   1.00
H583   H     0.31068   0.76182   0.45405   0.00000  Uiso   1.00
H584   H     0.02329   0.89567   0.04358   0.00000  Uiso   1.00
H585   H     0.07206   0.79601   0.07355   0.00000  Uiso   1.00
H586   H     0.26119   0.85965   0.42479   0.00000  Uiso   1.00
N587   N     0.31506   0.84735   0.26212   0.00000  Uiso   1.00
N588   N     0.01827   0.81932   0.23788   0.00000  Uiso   1.00
O589   O     0.12815   0.90476   0.24686   0.00000  Uiso   1.00
O590   O     0.20518   0.76191   0.25314   0.00000  Uiso   1.00
O591   O     0.22829   0.91420   0.25503   0.00000  Uiso   1.00
O592   O     0.10504   0.75247   0.24498   0.00000  Uiso   1.00
O593   O     0.08851   0.82597   0.30855   0.00000  Uiso   1.00
O594   O     0.24482   0.84070   0.19146   0.00000  Uiso   1.00
O595   O     0.18866   0.83540   0.31671   0.00000  Uiso   1.00
O596   O     0.14468   0.83126   0.18329   0.00000  Uiso   1.00
O597   O     0.31959   0.76828   0.03250   0.00000  Uiso   1.00
C598   C     0.30384   0.71326   0.03248   0.00000  Uiso   1.00
H599   H     0.33273   0.69781   0.05008   0.00000  Uiso   1.00
H600   H     0.31043   0.69690   0.49856   0.00000  Uiso   1.00
C601   C     0.23464   0.69522   0.05499   0.00000  Uiso   1.00
H602   H     0.22528   0.71161   0.08890   0.00000  Uiso   1.00
H603   H     0.22203   0.98514   0.05582   0.00000  Uiso   1.00
H604   H     0.20477   0.70857   0.03694   0.00000  Uiso   1.00
O605   O     0.01355   0.88910   0.46569   0.00000  Uiso   1.00
C606   C     0.02785   0.94405   0.46478   0.00000  Uiso   1.00
H607   H     0.02183   0.96104   0.49849   0.00000  Uiso   1.00
H608   H     0.33108   0.95823   0.44728   0.00000  Uiso   1.00
C609   C     0.09641   0.96283   0.44138   0.00000  Uiso   1.00
H610   H     0.10458   0.94761   0.40706   0.00000  Uiso   1.00
H611   H     0.10823   0.67293   0.44181   0.00000  Uiso   1.00
H612   H     0.12746   0.94900   0.45813   0.00000  Uiso   1.00
O613   O     0.23350   0.68505   0.27654   0.00000  Uiso   1.00
C614   C     0.21978   0.67566   0.32169   0.00000  Uiso   1.00
H615   H     0.26463   0.67553   0.33018   0.00000  Uiso   1.00
H616   H     0.18732   0.97074   0.33170   0.00000  Uiso   1.00
C617   C     0.19349   0.71993   0.34837   0.00000  Uiso   1.00
H618   H     0.14675   0.72012   0.34263   0.00000  Uiso   1.00
H619   H     0.18830   0.71474   0.38357   0.00000  Uiso   1.00
H620   H     0.22651   0.75790   0.33922   0.00000  Uiso   1.00
O621   O     0.10490   0.98281   0.21948   0.00000  Uiso   1.00
C622   C     0.13267   0.98607   0.17427   0.00000  Uiso   1.00
H623   H     0.17811   0.97288   0.16581   0.00000  Uiso   1.00
H624   H     0.14110   0.69353   0.16348   0.00000  Uiso   1.00
C625   C     0.08841   0.95066   0.14939   0.00000  Uiso   1.00
H626   H     0.10938   0.95313   0.11375   0.00000  Uiso   1.00
H627   H     0.08029   0.90949   0.15896   0.00000  Uiso   1.00
H628   H     0.04265   0.96286   0.15682   0.00000  Uiso   1.00
O629   O     0.00195   0.86839   0.29774   0.00000  Uiso   1.00
C630   C     0.32027   0.91763   0.30764   0.00000  Uiso   1.00
H631   H     0.26939   0.91343   0.32265   0.00000  Uiso   1.00
H632   H     0.00104   0.94177   0.27814   0.00000  Uiso   1.00
C633   C     0.02294   0.94576   0.34091   0.00000  Uiso   1.00
H634   H     0.00820   0.92314   0.37115   0.00000  Uiso   1.00
H635   H     0.07424   0.94934   0.32766   0.00000  Uiso   1.00
H636   H     0.01376   0.98557   0.34904   0.00000  Uiso   1.00
O637   O     0.32024   0.77868   0.21743   0.00000  Uiso   1.00
C638   C     0.02519   0.76896   0.17675   0.00000  Uiso   1.00
H639   H     0.06433   0.75218   0.18054   0.00000  Uiso   1.00
H640   H     0.04267   0.80529   0.15773   0.00000  Uiso   1.00
C641   C     0.31937   0.72852   0.15152   0.00000  Uiso   1.00
H642   H     0.28161   0.74485   0.14449   0.00000  Uiso   1.00
H643   H     0.01669   0.71765   0.12042   0.00000  Uiso   1.00
H644   H     0.29760   0.69280   0.17084   0.00000  Uiso   1.00
C645   C     0.51451   0.93317   0.25206   0.00000  Uiso   1.00
C646   C     0.48578   0.73354   0.24768   0.00000  Uiso   1.00
C647   C     0.42540   0.80096   0.03922   0.00000  Uiso   1.00
C648   C     0.57454   0.85576   0.45927   0.00000  Uiso   1.00
C649   C     0.38283   0.78494   0.01275   0.00000  Uiso   1.00
C650   C     0.61717   0.87195   0.48554   0.00000  Uiso   1.00
C651   C     0.51965   0.98887   0.25763   0.00000  Uiso   1.00
C652   C     0.48152   0.67810   0.24188   0.00000  Uiso   1.00
C653   C     0.46168   0.82895   0.33288   0.00000  Uiso   1.00
C654   C     0.53821   0.83706   0.16703   0.00000  Uiso   1.00
C655   C     0.43871   0.82051   0.37978   0.00000  Uiso   1.00
C656   C     0.56088   0.84277   0.11971   0.00000  Uiso   1.00
C657   C     0.35919   0.78116   0.44121   0.00000  Uiso   1.00
C658   C     0.64117   0.87741   0.05694   0.00000  Uiso   1.00
C659   C     0.37737   0.79350   0.39736   0.00000  Uiso   1.00
C660   C     0.62282   0.86741   0.10121   0.00000  Uiso   1.00
C661   C     0.48144   0.83531   0.40632   0.00000  Uiso   1.00
C662   C     0.51802   0.82659   0.09332   0.00000  Uiso   1.00
C663   C     0.46555   0.82107   0.45015   0.00000  Uiso   1.00
C664   C     0.53426   0.83786   0.04876   0.00000  Uiso   1.00
C665   C     0.40248   0.79484   0.46805   0.00000  Uiso   1.00
C666   C     0.59759   0.86318   0.03039   0.00000  Uiso   1.00
C667   C     0.51009   0.83385   0.47675   0.00000  Uiso   1.00
C668   C     0.48976   0.82384   0.02203   0.00000  Uiso   1.00
Cu669  Cu    0.44071   0.82775   0.24517   0.00000  Uiso   1.00
Cu670  Cu    0.55929   0.83892   0.25484   0.00000  Uiso   1.00
H671   H     0.47237   0.80449   0.10852   0.00000  Uiso   1.00
H672   H     0.52681   0.85880   0.39178   0.00000  Uiso   1.00
H673   H     0.65682   0.87934   0.12102   0.00000  Uiso   1.00
H674   H     0.34365   0.78154   0.37721   0.00000  Uiso   1.00
H675   H     0.64401   0.76182   0.45405   0.00000  Uiso   1.00
H676   H     0.35662   0.89567   0.04358   0.00000  Uiso   1.00
H677   H     0.40539   0.79601   0.07355   0.00000  Uiso   1.00
H678   H     0.59453   0.85965   0.42479   0.00000  Uiso   1.00
N679   N     0.64839   0.84735   0.26212   0.00000  Uiso   1.00
N680   N     0.35161   0.81932   0.23788   0.00000  Uiso   1.00
O681   O     0.46148   0.90476   0.24686   0.00000  Uiso   1.00
O682   O     0.53852   0.76191   0.25314   0.00000  Uiso   1.00
O683   O     0.56163   0.91420   0.25503   0.00000  Uiso   1.00
O684   O     0.43837   0.75247   0.24498   0.00000  Uiso   1.00
O685   O     0.42185   0.82597   0.30855   0.00000  Uiso   1.00
O686   O     0.57815   0.84070   0.19146   0.00000  Uiso   1.00
O687   O     0.52199   0.83540   0.31671   0.00000  Uiso   1.00
O688   O     0.47801   0.83126   0.18329   0.00000  Uiso   1.00
O689   O     0.65293   0.76828   0.03250   0.00000  Uiso   1.00
C690   C     0.63717   0.71326   0.03248   0.00000  Uiso   1.00
H691   H     0.66606   0.69781   0.05008   0.00000  Uiso   1.00
H692   H     0.64376   0.69690   0.49856   0.00000  Uiso   1.00
C693   C     0.56798   0.69522   0.05499   0.00000  Uiso   1.00
H694   H     0.55862   0.71161   0.08890   0.00000  Uiso   1.00
H695   H     0.55536   0.98514   0.05582   0.00000  Uiso   1.00
H696   H     0.53810   0.70857   0.03694   0.00000  Uiso   1.00
O697   O     0.34689   0.88910   0.46569   0.00000  Uiso   1.00
C698   C     0.36118   0.94405   0.46478   0.00000  Uiso   1.00
H699   H     0.35517   0.96104   0.49849   0.00000  Uiso   1.00
H700   H     0.66442   0.95823   0.44728   0.00000  Uiso   1.00
C701   C     0.42974   0.96283   0.44138   0.00000  Uiso   1.00
H702   H     0.43792   0.94761   0.40706   0.00000  Uiso   1.00
H703   H     0.44157   0.67293   0.44181   0.00000  Uiso   1.00
H704   H     0.46080   0.94900   0.45813   0.00000  Uiso   1.00
O705   O     0.56684   0.68505   0.27654   0.00000  Uiso   1.00
C706   C     0.55311   0.67566   0.32169   0.00000  Uiso   1.00
H707   H     0.59796   0.67553   0.33018   0.00000  Uiso   1.00
H708   H     0.52065   0.97074   0.33170   0.00000  Uiso   1.00
C709   C     0.52682   0.71993   0.34837   0.00000  Uiso   1.00
H710   H     0.48008   0.72012   0.34263   0.00000  Uiso   1.00
H711   H     0.52163   0.71474   0.38357   0.00000  Uiso   1.00
H712   H     0.55984   0.75790   0.33922   0.00000  Uiso   1.00
O713   O     0.43824   0.98281   0.21948   0.00000  Uiso   1.00
C714   C     0.46600   0.98607   0.17427   0.00000  Uiso   1.00
H715   H     0.51145   0.97288   0.16581   0.00000  Uiso   1.00
H716   H     0.47443   0.69353   0.16348   0.00000  Uiso   1.00
C717   C     0.42174   0.95066   0.14939   0.00000  Uiso   1.00
H718   H     0.44271   0.95313   0.11375   0.00000  Uiso   1.00
H719   H     0.41362   0.90949   0.15896   0.00000  Uiso   1.00
H720   H     0.37598   0.96286   0.15682   0.00000  Uiso   1.00
O721   O     0.33528   0.86839   0.29774   0.00000  Uiso   1.00
C722   C     0.65360   0.91763   0.30764   0.00000  Uiso   1.00
H723   H     0.60273   0.91343   0.32265   0.00000  Uiso   1.00
H724   H     0.33438   0.94177   0.27814   0.00000  Uiso   1.00
C725   C     0.35627   0.94576   0.34091   0.00000  Uiso   1.00
H726   H     0.34153   0.92314   0.37115   0.00000  Uiso   1.00
H727   H     0.40757   0.94934   0.32766   0.00000  Uiso   1.00
H728   H     0.34710   0.98557   0.34904   0.00000  Uiso   1.00
O729   O     0.65357   0.77868   0.21743   0.00000  Uiso   1.00
C730   C     0.35852   0.76896   0.17675   0.00000  Uiso   1.00
H731   H     0.39767   0.75218   0.18054   0.00000  Uiso   1.00
H732   H     0.37601   0.80529   0.15773   0.00000  Uiso   1.00
C733   C     0.65271   0.72852   0.15152   0.00000  Uiso   1.00
H734   H     0.61494   0.74485   0.14449   0.00000  Uiso   1.00
H735   H     0.35002   0.71765   0.12042   0.00000  Uiso   1.00
H736   H     0.63094   0.69280   0.17084   0.00000  Uiso   1.00
C737   C     0.84784   0.93317   0.25206   0.00000  Uiso   1.00
C738   C     0.81911   0.73354   0.24768   0.00000  Uiso   1.00
C739   C     0.75873   0.80096   0.03922   0.00000  Uiso   1.00
C740   C     0.90787   0.85576   0.45927   0.00000  Uiso   1.00
C741   C     0.71616   0.78494   0.01275   0.00000  Uiso   1.00
C742   C     0.95051   0.87195   0.48554   0.00000  Uiso   1.00
C743   C     0.85299   0.98887   0.25763   0.00000  Uiso   1.00
C744   C     0.81485   0.67810   0.24188   0.00000  Uiso   1.00
C745   C     0.79501   0.82895   0.33288   0.00000  Uiso   1.00
C746   C     0.87154   0.83706   0.16703   0.00000  Uiso   1.00
C747   C     0.77204   0.82051   0.37978   0.00000  Uiso   1.00
C748   C     0.89422   0.84277   0.11971   0.00000  Uiso   1.00
C749   C     0.69253   0.78116   0.44121   0.00000  Uiso   1.00
C750   C     0.97450   0.87741   0.05694   0.00000  Uiso   1.00
C751   C     0.71070   0.79350   0.39736   0.00000  Uiso   1.00
C752   C     0.95615   0.86741   0.10121   0.00000  Uiso   1.00
C753   C     0.81478   0.83531   0.40632   0.00000  Uiso   1.00
C754   C     0.85135   0.82659   0.09332   0.00000  Uiso   1.00
C755   C     0.79888   0.82107   0.45015   0.00000  Uiso   1.00
C756   C     0.86759   0.83786   0.04876   0.00000  Uiso   1.00
C757   C     0.73581   0.79484   0.46805   0.00000  Uiso   1.00
C758   C     0.93092   0.86318   0.03039   0.00000  Uiso   1.00
C759   C     0.84343   0.83385   0.47675   0.00000  Uiso   1.00
C760   C     0.82309   0.82384   0.02203   0.00000  Uiso   1.00
Cu761  Cu    0.77404   0.82775   0.24517   0.00000  Uiso   1.00
Cu762  Cu    0.89263   0.83892   0.25484   0.00000  Uiso   1.00
H763   H     0.80570   0.80449   0.10852   0.00000  Uiso   1.00
H764   H     0.86015   0.85880   0.39178   0.00000  Uiso   1.00
H765   H     0.99015   0.87934   0.12102   0.00000  Uiso   1.00
H766   H     0.67698   0.78154   0.37721   0.00000  Uiso   1.00
H767   H     0.97734   0.76182   0.45405   0.00000  Uiso   1.00
H768   H     0.68996   0.89567   0.04358   0.00000  Uiso   1.00
H769   H     0.73873   0.79601   0.07355   0.00000  Uiso   1.00
H770   H     0.92786   0.85965   0.42479   0.00000  Uiso   1.00
N771   N     0.98173   0.84735   0.26212   0.00000  Uiso   1.00
N772   N     0.68494   0.81932   0.23788   0.00000  Uiso   1.00
O773   O     0.79482   0.90476   0.24686   0.00000  Uiso   1.00
O774   O     0.87185   0.76191   0.25314   0.00000  Uiso   1.00
O775   O     0.89496   0.91420   0.25503   0.00000  Uiso   1.00
O776   O     0.77171   0.75247   0.24498   0.00000  Uiso   1.00
O777   O     0.75518   0.82597   0.30855   0.00000  Uiso   1.00
O778   O     0.91149   0.84070   0.19146   0.00000  Uiso   1.00
O779   O     0.85532   0.83540   0.31671   0.00000  Uiso   1.00
O780   O     0.81134   0.83126   0.18329   0.00000  Uiso   1.00
O781   O     0.98626   0.76828   0.03250   0.00000  Uiso   1.00
C782   C     0.97050   0.71326   0.03248   0.00000  Uiso   1.00
H783   H     0.99939   0.69781   0.05008   0.00000  Uiso   1.00
H784   H     0.97710   0.69690   0.49856   0.00000  Uiso   1.00
C785   C     0.90131   0.69522   0.05499   0.00000  Uiso   1.00
H786   H     0.89195   0.71161   0.08890   0.00000  Uiso   1.00
H787   H     0.88870   0.98514   0.05582   0.00000  Uiso   1.00
H788   H     0.87144   0.70857   0.03694   0.00000  Uiso   1.00
O789   O     0.68022   0.88910   0.46569   0.00000  Uiso   1.00
C790   C     0.69452   0.94405   0.46478   0.00000  Uiso   1.00
H791   H     0.68850   0.96104   0.49849   0.00000  Uiso   1.00
H792   H     0.99775   0.95823   0.44728   0.00000  Uiso   1.00
C793   C     0.76308   0.96283   0.44138   0.00000  Uiso   1.00
H794   H     0.77125   0.94761   0.40706   0.00000  Uiso   1.00
H795   H     0.77490   0.67293   0.44181   0.00000  Uiso   1.00
H796   H     0.79413   0.94900   0.45813   0.00000  Uiso   1.00
O797   O     0.90017   0.68505   0.27654   0.00000  Uiso   1.00
C798   C     0.88644   0.67566   0.32169   0.00000  Uiso   1.00
H799   H     0.93129   0.67553   0.33018   0.00000  Uiso   1.00
H800   H     0.85399   0.97074   0.33170   0.00000  Uiso   1.00
C801   C     0.86016   0.71993   0.34837   0.00000  Uiso   1.00
H802   H     0.81341   0.72012   0.34263   0.00000  Uiso   1.00
H803   H     0.85497   0.71474   0.38357   0.00000  Uiso   1.00
H804   H     0.89318   0.75790   0.33922   0.00000  Uiso   1.00
O805   O     0.77157   0.98281   0.21948   0.00000  Uiso   1.00
C806   C     0.79934   0.98607   0.17427   0.00000  Uiso   1.00
H807   H     0.84478   0.97288   0.16581   0.00000  Uiso   1.00
H808   H     0.80776   0.69353   0.16348   0.00000  Uiso   1.00
C809   C     0.75507   0.95066   0.14939   0.00000  Uiso   1.00
H810   H     0.77604   0.95313   0.11375   0.00000  Uiso   1.00
H811   H     0.74695   0.90949   0.15896   0.00000  Uiso   1.00
H812   H     0.70932   0.96286   0.15682   0.00000  Uiso   1.00
O813   O     0.66861   0.86839   0.29774   0.00000  Uiso   1.00
C814   C     0.98694   0.91763   0.30764   0.00000  Uiso   1.00
H815   H     0.93606   0.91343   0.32265   0.00000  Uiso   1.00
H816   H     0.66771   0.94177   0.27814   0.00000  Uiso   1.00
C817   C     0.68960   0.94576   0.34091   0.00000  Uiso   1.00
H818   H     0.67486   0.92314   0.37115   0.00000  Uiso   1.00
H819   H     0.74090   0.94934   0.32766   0.00000  Uiso   1.00
H820   H     0.68043   0.98557   0.34904   0.00000  Uiso   1.00
O821   O     0.98691   0.77868   0.21743   0.00000  Uiso   1.00
C822   C     0.69185   0.76896   0.17675   0.00000  Uiso   1.00
H823   H     0.73100   0.75218   0.18054   0.00000  Uiso   1.00
H824   H     0.70934   0.80529   0.15773   0.00000  Uiso   1.00
C825   C     0.98604   0.72852   0.15152   0.00000  Uiso   1.00
H826   H     0.94828   0.74485   0.14449   0.00000  Uiso   1.00
H827   H     0.68336   0.71765   0.12042   0.00000  Uiso   1.00
H828   H     0.96427   0.69280   0.17084   0.00000  Uiso   1.00
C829   C     0.18117   0.26650   0.75206   0.00000  Uiso   1.00
C830   C     0.15244   0.06688   0.74768   0.00000  Uiso   1.00
C831   C     0.09207   0.13430   0.53922   0.00000  Uiso   1.00
C832   C     0.24121   0.18909   0.95927   0.00000  Uiso   1.00
C833   C     0.04950   0.11827   0.51275   0.00000  Uiso   1.00
C834   C     0.28384   0.20528   0.98554   0.00000  Uiso   1.00
C835   C     0.18632   0.32220   0.75763   0.00000  Uiso   1.00
C836   C     0.14819   0.01143   0.74188   0.00000  Uiso   1.00
C837   C     0.12835   0.16228   0.83288   0.00000  Uiso   1.00
C838   C     0.20487   0.17039   0.66703   0.00000  Uiso   1.00
C839   C     0.10538   0.15384   0.87978   0.00000  Uiso   1.00
C840   C     0.22755   0.17610   0.61971   0.00000  Uiso   1.00
C841   C     0.02586   0.11449   0.94121   0.00000  Uiso   1.00
C842   C     0.30784   0.21075   0.55694   0.00000  Uiso   1.00
C843   C     0.04403   0.12683   0.89736   0.00000  Uiso   1.00
C844   C     0.28949   0.20074   0.60121   0.00000  Uiso   1.00
C845   C     0.14811   0.16864   0.90632   0.00000  Uiso   1.00
C846   C     0.18468   0.15992   0.59332   0.00000  Uiso   1.00
C847   C     0.13221   0.15440   0.95015   0.00000  Uiso   1.00
C848   C     0.20093   0.17119   0.54876   0.00000  Uiso   1.00
C849   C     0.06914   0.12818   0.96805   0.00000  Uiso   1.00
C850   C     0.26425   0.19651   0.53039   0.00000  Uiso   1.00
C851   C     0.17676   0.16718   0.97675   0.00000  Uiso   1.00
C852   C     0.15642   0.15718   0.52203   0.00000  Uiso   1.00
Cu853  Cu    0.10737   0.16108   0.74517   0.00000  Uiso   1.00
Cu854  Cu    0.22596   0.17225   0.75484   0.00000  Uiso   1.00
H855   H     0.13904   0.13782   0.60852   0.00000  Uiso   1.00
H856   H     0.19348   0.19213   0.89178   0.00000  Uiso   1.00
H857   H     0.32348   0.21267   0.62102   0.00000  Uiso   1.00
H858   H     0.01031   0.11488   0.87721   0.00000  Uiso   1.00
H859   H     0.31068   0.09515   0.95405   0.00000  Uiso   1.00
H860   H     0.02329   0.22901   0.54358   0.00000  Uiso   1.00
H861   H     0.07206   0.12934   0.57355   0.00000  Uiso   1.00
H862   H     0.26119   0.19298   0.92479   0.00000  Uiso   1.00
N863   N     0.31506   0.18068   0.76212   0.00000  Uiso   1.00
N864   N     0.01827   0.15265   0.73788   0.00000  Uiso   1.00
O865   O     0.12815   0.23809   0.74686   0.00000  Uiso   1.00
O866   O     0.20518   0.09524   0.75314   0.00000  Uiso   1.00
O867   O     0.22829   0.24753   0.75503   0.00000  Uiso   1.00
O868   O     0.10504   0.08580   0.74498   0.00000  Uiso   1.00
O869   O     0.08851   0.15930   0.80855   0.00000  Uiso   1.00
O870   O     0.24482   0.17403   0.69146   0.00000  Uiso   1.00
O871   O     0.18866   0.16874   0.81671   0.00000  Uiso   1.00
O872   O     0.14468   0.16460   0.68329   0.00000  Uiso   1.00
O873   O     0.31959   0.10162   0.53250   0.00000  Uiso   1.00
C874   C     0.30384   0.04659   0.53248   0.00000  Uiso   1.00
H875   H     0.33273   0.03114   0.55008   0.00000  Uiso   1.00
H876   H     0.31043   0.03024   0.99856   0.00000  Uiso   1.00
C877   C     0.23464   0.02855   0.55499   0.00000  Uiso   1.00
H878   H     0.22528   0.04494   0.58890   0.00000  Uiso   1.00
H879   H     0.22203   0.31847   0.55582   0.00000  Uiso   1.00
H880   H     0.20477   0.04190   0.53694   0.00000  Uiso   1.00
O881   O     0.01355   0.22244   0.96569   0.00000  Uiso   1.00
C882   C     0.02785   0.27738   0.96478   0.00000  Uiso   1.00
H883   H     0.02183   0.29437   0.99849   0.00000  Uiso   1.00
H884   H     0.33108   0.29156   0.94728   0.00000  Uiso   1.00
C885   C     0.09641   0.29617   0.94138   0.00000  Uiso   1.00
H886   H     0.10458   0.28095   0.90706   0.00000  Uiso   1.00
H887   H     0.10823   0.00626   0.94181   0.00000  Uiso   1.00
H888   H     0.12746   0.28233   0.95813   0.00000  Uiso   1.00
O889   O     0.23350   0.01839   0.77654   0.00000  Uiso   1.00
C890   C     0.21978   0.00899   0.82169   0.00000  Uiso   1.00
H891   H     0.26463   0.00886   0.83018   0.00000  Uiso   1.00
H892   H     0.18732   0.30407   0.83170   0.00000  Uiso   1.00
C893   C     0.19349   0.05326   0.84837   0.00000  Uiso   1.00
H894   H     0.14675   0.05345   0.84263   0.00000  Uiso   1.00
H895   H     0.18830   0.04807   0.88357   0.00000  Uiso   1.00
H896   H     0.22651   0.09124   0.83922   0.00000  Uiso   1.00
O897   O     0.10490   0.31614   0.71948   0.00000  Uiso   1.00
C898   C     0.13267   0.31941   0.67427   0.00000  Uiso   1.00
H899   H     0.17811   0.30622   0.66581   0.00000  Uiso   1.00
H900   H     0.14110   0.02687   0.66348   0.00000  Uiso   1.00
C901   C     0.08841   0.28399   0.64939   0.00000  Uiso   1.00
H902   H     0.10938   0.28646   0.61375   0.00000  Uiso   1.00
H903   H     0.08029   0.24283   0.65896   0.00000  Uiso   1.00
H904   H     0.04265   0.29620   0.65682   0.00000  Uiso   1.00
O905   O     0.00195   0.20172   0.79774   0.00000  Uiso   1.00
C906   C     0.32027   0.25097   0.80764   0.00000  Uiso   1.00
H907   H     0.26939   0.24677   0.82265   0.00000  Uiso   1.00
H908   H     0.00104   0.27510   0.77814   0.00000  Uiso   1.00
C909   C     0.02294   0.27910   0.84091   0.00000  Uiso   1.00
H910   H     0.00820   0.25647   0.87115   0.00000  Uiso   1.00
H911   H     0.07424   0.28268   0.82766   0.00000  Uiso   1.00
H912   H     0.01376   0.31891   0.84904   0.00000  Uiso   1.00
O913   O     0.32024   0.11201   0.71743   0.00000  Uiso   1.00
C914   C     0.02519   0.10229   0.67675   0.00000  Uiso   1.00
H915   H     0.06433   0.08551   0.68054   0.00000  Uiso   1.00
H916   H     0.04267   0.13862   0.65773   0.00000  Uiso   1.00
C917   C     0.31937   0.06185   0.65152   0.00000  Uiso   1.00
H918   H     0.28161   0.07819   0.64449   0.00000  Uiso   1.00
H919   H     0.01669   0.05098   0.62042   0.00000  Uiso   1.00
H920   H     0.29760   0.02613   0.67084   0.00000  Uiso   1.00
C921   C     0.51451   0.26650   0.75206   0.00000  Uiso   1.00
C922   C     0.48578   0.06688   0.74768   0.00000  Uiso   1.00
C923   C     0.42540   0.13430   0.53922   0.00000  Uiso   1.00
C924   C     0.57454   0.18909   0.95927   0.00000  Uiso   1.00
C925   C     0.38283   0.11827   0.51275   0.00000  Uiso   1.00
C926   C     0.61717   0.20528   0.98554   0.00000  Uiso   1.00
C927   C     0.51965   0.32220   0.75763   0.00000  Uiso   1.00
C928   C     0.48152   0.01143   0.74188   0.00000  Uiso   1.00
C929   C     0.46168   0.16228   0.83288   0.00000  Uiso   1.00
C930   C     0.53821   0.17039   0.66703   0.00000  Uiso   1.00
C931   C     0.43871   0.15384   0.87978   0.00000  Uiso   1.00
C932   C     0.56088   0.17610   0.61971   0.00000  Uiso   1.00
C933   C     0.35919   0.11449   0.94121   0.00000  Uiso   1.00
C934   C     0.64117   0.21075   0.55694   0.00000  Uiso   1.00
C935   C     0.37737   0.12683   0.89736   0.00000  Uiso   1.00
C936   C     0.62282   0.20074   0.60121   0.00000  Uiso   1.00
C937   C     0.48144   0.16864   0.90632   0.00000  Uiso   1.00
C938   C     0.51802   0.15992   0.59332   0.00000  Uiso   1.00
C939   C     0.46555   0.15440   0.95015   0.00000  Uiso   1.00
C940   C     0.53426   0.17119   0.54876   0.00000  Uiso   1.00
C941   C     0.40248   0.12818   0.96805   0.00000  Uiso   1.00
C942   C     0.59759   0.19651   0.53039   0.00000  Uiso   1.00
C943   C     0.51009   0.16718   0.97675   0.00000  Uiso   1.00
C944   C     0.48976   0.15718   0.52203   0.00000  Uiso   1.00
Cu945  Cu    0.44071   0.16108   0.74517   0.00000  Uiso   1.00
Cu946  Cu    0.55929   0.17225   0.75484   0.00000  Uiso   1.00
H947   H     0.47237   0.13782   0.60852   0.00000  Uiso   1.00
H948   H     0.52681   0.19213   0.89178   0.00000  Uiso   1.00
H949   H     0.65682   0.21267   0.62102   0.00000  Uiso   1.00
H950   H     0.34365   0.11488   0.87721   0.00000  Uiso   1.00
H951   H     0.64401   0.09515   0.95405   0.00000  Uiso   1.00
H952   H     0.35662   0.22901   0.54358   0.00000  Uiso   1.00
H953   H     0.40539   0.12934   0.57355   0.00000  Uiso   1.00
H954   H     0.59453   0.19298   0.92479   0.00000  Uiso   1.00
N955   N     0.64839   0.18068   0.76212   0.00000  Uiso   1.00
N956   N     0.35161   0.15265   0.73788   0.00000  Uiso   1.00
O957   O     0.46148   0.23809   0.74686   0.00000  Uiso   1.00
O958   O     0.53852   0.09524   0.75314   0.00000  Uiso   1.00
O959   O     0.56163   0.24753   0.75503   0.00000  Uiso   1.00
O960   O     0.43837   0.08580   0.74498   0.00000  Uiso   1.00
O961   O     0.42185   0.15930   0.80855   0.00000  Uiso   1.00
O962   O     0.57815   0.17403   0.69146   0.00000  Uiso   1.00
O963   O     0.52199   0.16874   0.81671   0.00000  Uiso   1.00
O964   O     0.47801   0.16460   0.68329   0.00000  Uiso   1.00
O965   O     0.65293   0.10162   0.53250   0.00000  Uiso   1.00
C966   C     0.63717   0.04659   0.53248   0.00000  Uiso   1.00
H967   H     0.66606   0.03114   0.55008   0.00000  Uiso   1.00
H968   H     0.64376   0.03024   0.99856   0.00000  Uiso   1.00
C969   C     0.56798   0.02855   0.55499   0.00000  Uiso   1.00
H970   H     0.55862   0.04494   0.58890   0.00000  Uiso   1.00
H971   H     0.55536   0.31847   0.55582   0.00000  Uiso   1.00
H972   H     0.53810   0.04190   0.53694   0.00000  Uiso   1.00
O973   O     0.34689   0.22244   0.96569   0.00000  Uiso   1.00
C974   C     0.36118   0.27738   0.96478   0.00000  Uiso   1.00
H975   H     0.35517   0.29437   0.99849   0.00000  Uiso   1.00
H976   H     0.66442   0.29156   0.94728   0.00000  Uiso   1.00
C977   C     0.42974   0.29617   0.94138   0.00000  Uiso   1.00
H978   H     0.43792   0.28095   0.90706   0.00000  Uiso   1.00
H979   H     0.44157   0.00626   0.94181   0.00000  Uiso   1.00
H980   H     0.46080   0.28233   0.95813   0.00000  Uiso   1.00
O981   O     0.56684   0.01839   0.77654   0.00000  Uiso   1.00
C982   C     0.55311   0.00899   0.82169   0.00000  Uiso   1.00
H983   H     0.59796   0.00886   0.83018   0.00000  Uiso   1.00
H984   H     0.52065   0.30407   0.83170   0.00000  Uiso   1.00
C985   C     0.52682   0.05326   0.84837   0.00000  Uiso   1.00
H986   H     0.48008   0.05345   0.84263   0.00000  Uiso   1.00
H987   H     0.52163   0.04807   0.88357   0.00000  Uiso   1.00
H988   H     0.55984   0.09124   0.83922   0.00000  Uiso   1.00
O989   O     0.43824   0.31614   0.71948   0.00000  Uiso   1.00
C990   C     0.46600   0.31941   0.67427   0.00000  Uiso   1.00
H991   H     0.51145   0.30622   0.66581   0.00000  Uiso   1.00
H992   H     0.47443   0.02687   0.66348   0.00000  Uiso   1.00
C993   C     0.42174   0.28399   0.64939   0.00000  Uiso   1.00
H994   H     0.44271   0.28646   0.61375   0.00000  Uiso   1.00
H995   H     0.41362   0.24283   0.65896   0.00000  Uiso   1.00
H996   H     0.37598   0.29620   0.65682   0.00000  Uiso   1.00
O997   O     0.33528   0.20172   0.79774   0.00000  Uiso   1.00
C998   C     0.65360   0.25097   0.80764   0.00000  Uiso   1.00
H999   H     0.60273   0.24677   0.82265   0.00000  Uiso   1.00
H1000  H     0.33438   0.27510   0.77814   0.00000  Uiso   1.00
C1001  C     0.35627   0.27910   0.84091   0.00000  Uiso   1.00
H1002  H     0.34153   0.25647   0.87115   0.00000  Uiso   1.00
H1003  H     0.40757   0.28268   0.82766   0.00000  Uiso   1.00
H1004  H     0.34710   0.31891   0.84904   0.00000  Uiso   1.00
O1005  O     0.65357   0.11201   0.71743   0.00000  Uiso   1.00
C1006  C     0.35852   0.10229   0.67675   0.00000  Uiso   1.00
H1007  H     0.39767   0.08551   0.68054   0.00000  Uiso   1.00
H1008  H     0.37601   0.13862   0.65773   0.00000  Uiso   1.00
C1009  C     0.65271   0.06185   0.65152   0.00000  Uiso   1.00
H1010  H     0.61494   0.07819   0.64449   0.00000  Uiso   1.00
H1011  H     0.35002   0.05098   0.62042   0.00000  Uiso   1.00
H1012  H     0.63094   0.02613   0.67084   0.00000  Uiso   1.00
C1013  C     0.84784   0.26650   0.75206   0.00000  Uiso   1.00
C1014  C     0.81911   0.06688   0.74768   0.00000  Uiso   1.00
C1015  C     0.75873   0.13430   0.53922   0.00000  Uiso   1.00
C1016  C     0.90787   0.18909   0.95927   0.00000  Uiso   1.00
C1017  C     0.71616   0.11827   0.51275   0.00000  Uiso   1.00
C1018  C     0.95051   0.20528   0.98554   0.00000  Uiso   1.00
C1019  C     0.85299   0.32220   0.75763   0.00000  Uiso   1.00
C1020  C     0.81485   0.01143   0.74188   0.00000  Uiso   1.00
C1021  C     0.79501   0.16228   0.83288   0.00000  Uiso   1.00
C1022  C     0.87154   0.17039   0.66703   0.00000  Uiso   1.00
C1023  C     0.77204   0.15384   0.87978   0.00000  Uiso   1.00
C1024  C     0.89422   0.17610   0.61971   0.00000  Uiso   1.00
C1025  C     0.69253   0.11449   0.94121   0.00000  Uiso   1.00
C1026  C     0.97450   0.21075   0.55694   0.00000  Uiso   1.00
C1027  C     0.71070   0.12683   0.89736   0.00000  Uiso   1.00
C1028  C     0.95615   0.20074   0.60121   0.00000  Uiso   1.00
C1029  C     0.81478   0.16864   0.90632   0.00000  Uiso   1.00
C1030  C     0.85135   0.15992   0.59332   0.00000  Uiso   1.00
C1031  C     0.79888   0.15440   0.95015   0.00000  Uiso   1.00
C1032  C     0.86759   0.17119   0.54876   0.00000  Uiso   1.00
C1033  C     0.73581   0.12818   0.96805   0.00000  Uiso   1.00
C1034  C     0.93092   0.19651   0.53039   0.00000  Uiso   1.00
C1035  C     0.84343   0.16718   0.97675   0.00000  Uiso   1.00
C1036  C     0.82309   0.15718   0.52203   0.00000  Uiso   1.00
Cu1037 Cu    0.77404   0.16108   0.74517   0.00000  Uiso   1.00
Cu1038 Cu    0.89263   0.17225   0.75484   0.00000  Uiso   1.00
H1039  H     0.80570   0.13782   0.60852   0.00000  Uiso   1.00
H1040  H     0.86015   0.19213   0.89178   0.00000  Uiso   1.00
H1041  H     0.99015   0.21267   0.62102   0.00000  Uiso   1.00
H1042  H     0.67698   0.11488   0.87721   0.00000  Uiso   1.00
H1043  H     0.97734   0.09515   0.95405   0.00000  Uiso   1.00
H1044  H     0.68996   0.22901   0.54358   0.00000  Uiso   1.00
H1045  H     0.73873   0.12934   0.57355   0.00000  Uiso   1.00
H1046  H     0.92786   0.19298   0.92479   0.00000  Uiso   1.00
N1047  N     0.98173   0.18068   0.76212   0.00000  Uiso   1.00
N1048  N     0.68494   0.15265   0.73788   0.00000  Uiso   1.00
O1049  O     0.79482   0.23809   0.74686   0.00000  Uiso   1.00
O1050  O     0.87185   0.09524   0.75314   0.00000  Uiso   1.00
O1051  O     0.89496   0.24753   0.75503   0.00000  Uiso   1.00
O1052  O     0.77171   0.08580   0.74498   0.00000  Uiso   1.00
O1053  O     0.75518   0.15930   0.80855   0.00000  Uiso   1.00
O1054  O     0.91149   0.17403   0.69146   0.00000  Uiso   1.00
O1055  O     0.85532   0.16874   0.81671   0.00000  Uiso   1.00
O1056  O     0.81134   0.16460   0.68329   0.00000  Uiso   1.00
O1057  O     0.98626   0.10162   0.53250   0.00000  Uiso   1.00
C1058  C     0.97050   0.04659   0.53248   0.00000  Uiso   1.00
H1059  H     0.99939   0.03114   0.55008   0.00000  Uiso   1.00
H1060  H     0.97710   0.03024   0.99856   0.00000  Uiso   1.00
C1061  C     0.90131   0.02855   0.55499   0.00000  Uiso   1.00
H1062  H     0.89195   0.04494   0.58890   0.00000  Uiso   1.00
H1063  H     0.88870   0.31847   0.55582   0.00000  Uiso   1.00
H1064  H     0.87144   0.04190   0.53694   0.00000  Uiso   1.00
O1065  O     0.68022   0.22244   0.96569   0.00000  Uiso   1.00
C1066  C     0.69452   0.27738   0.96478   0.00000  Uiso   1.00
H1067  H     0.68850   0.29437   0.99849   0.00000  Uiso   1.00
H1068  H     0.99775   0.29156   0.94728   0.00000  Uiso   1.00
C1069  C     0.76308   0.29617   0.94138   0.00000  Uiso   1.00
H1070  H     0.77125   0.28095   0.90706   0.00000  Uiso   1.00
H1071  H     0.77490   0.00626   0.94181   0.00000  Uiso   1.00
H1072  H     0.79413   0.28233   0.95813   0.00000  Uiso   1.00
O1073  O     0.90017   0.01839   0.77654   0.00000  Uiso   1.00
C1074  C     0.88644   0.00899   0.82169   0.00000  Uiso   1.00
H1075  H     0.93129   0.00886   0.83018   0.00000  Uiso   1.00
H1076  H     0.85399   0.30407   0.83170   0.00000  Uiso   1.00
C1077  C     0.86016   0.05326   0.84837   0.00000  Uiso   1.00
H1078  H     0.81341   0.05345   0.84263   0.00000  Uiso   1.00
H1079  H     0.85497   0.04807   0.88357   0.00000  Uiso   1.00
H1080  H     0.89318   0.09124   0.83922   0.00000  Uiso   1.00
O1081  O     0.77157   0.31614   0.71948   0.00000  Uiso   1.00
C1082  C     0.79934   0.31941   0.67427   0.00000  Uiso   1.00
H1083  H     0.84478   0.30622   0.66581   0.00000  Uiso   1.00
H1084  H     0.80776   0.02687   0.66348   0.00000  Uiso   1.00
C1085  C     0.75507   0.28399   0.64939   0.00000  Uiso   1.00
H1086  H     0.77604   0.28646   0.61375   0.00000  Uiso   1.00
H1087  H     0.74695   0.24283   0.65896   0.00000  Uiso   1.00
H1088  H     0.70932   0.29620   0.65682   0.00000  Uiso   1.00
O1089  O     0.66861   0.20172   0.79774   0.00000  Uiso   1.00
C1090  C     0.98694   0.25097   0.80764   0.00000  Uiso   1.00
H1091  H     0.93606   0.24677   0.82265   0.00000  Uiso   1.00
H1092  H     0.66771   0.27510   0.77814   0.00000  Uiso   1.00
C1093  C     0.68960   0.27910   0.84091   0.00000  Uiso   1.00
H1094  H     0.67486   0.25647   0.87115   0.00000  Uiso   1.00
H1095  H     0.74090   0.28268   0.82766   0.00000  Uiso   1.00
H1096  H     0.68043   0.31891   0.84904   0.00000  Uiso   1.00
O1097  O     0.98691   0.11201   0.71743   0.00000  Uiso   1.00
C1098  C     0.69185   0.10229   0.67675   0.00000  Uiso   1.00
H1099  H     0.73100   0.08551   0.68054   0.00000  Uiso   1.00
H1100  H     0.70934   0.13862   0.65773   0.00000  Uiso   1.00
C1101  C     0.98604   0.06185   0.65152   0.00000  Uiso   1.00
H1102  H     0.94828   0.07819   0.64449   0.00000  Uiso   1.00
H1103  H     0.68336   0.05098   0.62042   0.00000  Uiso   1.00
H1104  H     0.96427   0.02613   0.67084   0.00000  Uiso   1.00
C1105  C     0.18117   0.59983   0.75206   0.00000  Uiso   1.00
C1106  C     0.15244   0.40021   0.74768   0.00000  Uiso   1.00
C1107  C     0.09207   0.46763   0.53922   0.00000  Uiso   1.00
C1108  C     0.24121   0.52243   0.95927   0.00000  Uiso   1.00
C1109  C     0.04950   0.45161   0.51275   0.00000  Uiso   1.00
C1110  C     0.28384   0.53861   0.98554   0.00000  Uiso   1.00
C1111  C     0.18632   0.65553   0.75763   0.00000  Uiso   1.00
C1112  C     0.14819   0.34476   0.74188   0.00000  Uiso   1.00
C1113  C     0.12835   0.49561   0.83288   0.00000  Uiso   1.00
C1114  C     0.20487   0.50373   0.66703   0.00000  Uiso   1.00
C1115  C     0.10538   0.48717   0.87978   0.00000  Uiso   1.00
C1116  C     0.22755   0.50943   0.61971   0.00000  Uiso   1.00
C1117  C     0.02586   0.44783   0.94121   0.00000  Uiso   1.00
C1118  C     0.30784   0.54408   0.55694   0.00000  Uiso   1.00
C1119  C     0.04403   0.46016   0.89736   0.00000  Uiso   1.00
C1120  C     0.28949   0.53407   0.60121   0.00000  Uiso   1.00
C1121  C     0.14811   0.50197   0.90632   0.00000  Uiso   1.00
C1122  C     0.18468   0.49326   0.59332   0.00000  Uiso   1.00
C1123  C     0.13221   0.48773   0.95015   0.00000  Uiso   1.00
C1124  C     0.20093   0.50452   0.54876   0.00000  Uiso   1.00
C1125  C     0.06914   0.46151   0.96805   0.00000  Uiso   1.00
C1126  C     0.26425   0.52984   0.53039   0.00000  Uiso   1.00
C1127  C     0.17676   0.50052   0.97675   0.00000  Uiso   1.00
C1128  C     0.15642   0.49051   0.52203   0.00000  Uiso   1.00
Cu1129 Cu    0.10737   0.49441   0.74517   0.00000  Uiso   1.00
Cu1130 Cu    0.22596   0.50559   0.75484   0.00000  Uiso   1.00
H1131  H     0.13904   0.47116   0.60852   0.00000  Uiso   1.00
H1132  H     0.19348   0.52547   0.89178   0.00000  Uiso   1.00
H1133  H     0.32348   0.54601   0.62102   0.00000  Uiso   1.00
H1134  H     0.01031   0.44821   0.87721   0.00000  Uiso   1.00
H1135  H     0.31068   0.42848   0.95405   0.00000  Uiso   1.00
H1136  H     0.02329   0.56234   0.54358   0.00000  Uiso   1.00
H1137  H     0.07206   0.46268   0.57355   0.00000  Uiso   1.00
H1138  H     0.26119   0.52631   0.92479   0.00000  Uiso   1.00
N1139  N     0.31506   0.51401   0.76212   0.00000  Uiso   1.00
N1140  N     0.01827   0.48599   0.73788   0.00000  Uiso   1.00
O1141  O     0.12815   0.57142   0.74686   0.00000  Uiso   1.00
O1142  O     0.20518   0.42858   0.75314   0.00000  Uiso   1.00
O1143  O     0.22829   0.58086   0.75503   0.00000  Uiso   1.00
O1144  O     0.10504   0.41914   0.74498   0.00000  Uiso   1.00
O1145  O     0.08851   0.49263   0.80855   0.00000  Uiso   1.00
O1146  O     0.24482   0.50737   0.69146   0.00000  Uiso   1.00
O1147  O     0.18866   0.50207   0.81671   0.00000  Uiso   1.00
O1148  O     0.14468   0.49793   0.68329   0.00000  Uiso   1.00
O1149  O     0.31959   0.43495   0.53250   0.00000  Uiso   1.00
C1150  C     0.30384   0.37993   0.53248   0.00000  Uiso   1.00
H1151  H     0.33273   0.36447   0.55008   0.00000  Uiso   1.00
H1152  H     0.31043   0.36357   0.99856   0.00000  Uiso   1.00
C1153  C     0.23464   0.36188   0.55499   0.00000  Uiso   1.00
H1154  H     0.22528   0.37827   0.58890   0.00000  Uiso   1.00
H1155  H     0.22203   0.65180   0.55582   0.00000  Uiso   1.00
H1156  H     0.20477   0.37524   0.53694   0.00000  Uiso   1.00
O1157  O     0.01355   0.55577   0.96569   0.00000  Uiso   1.00
C1158  C     0.02785   0.61071   0.96478   0.00000  Uiso   1.00
H1159  H     0.02183   0.62771   0.99849   0.00000  Uiso   1.00
H1160  H     0.33108   0.62490   0.94728   0.00000  Uiso   1.00
C1161  C     0.09641   0.62950   0.94138   0.00000  Uiso   1.00
H1162  H     0.10458   0.61428   0.90706   0.00000  Uiso   1.00
H1163  H     0.10823   0.33960   0.94181   0.00000  Uiso   1.00
H1164  H     0.12746   0.61567   0.95813   0.00000  Uiso   1.00
O1165  O     0.23350   0.35172   0.77654   0.00000  Uiso   1.00
C1166  C     0.21978   0.34232   0.82169   0.00000  Uiso   1.00
H1167  H     0.26463   0.34219   0.83018   0.00000  Uiso   1.00
H1168  H     0.18732   0.63741   0.83170   0.00000  Uiso   1.00
C1169  C     0.19349   0.38660   0.84837   0.00000  Uiso   1.00
H1170  H     0.14675   0.38679   0.84263   0.00000  Uiso   1.00
H1171  H     0.18830   0.38141   0.88357   0.00000  Uiso   1.00
H1172  H     0.22651   0.42457   0.83922   0.00000  Uiso   1.00
O1173  O     0.10490   0.64947   0.71948   0.00000  Uiso   1.00
C1174  C     0.13267   0.65274   0.67427   0.00000  Uiso   1.00
H1175  H     0.17811   0.63955   0.66581   0.00000  Uiso   1.00
H1176  H     0.14110   0.36020   0.66348   0.00000  Uiso   1.00
C1177  C     0.08841   0.61732   0.64939   0.00000  Uiso   1.00
H1178  H     0.10938   0.61980   0.61375   0.00000  Uiso   1.00
H1179  H     0.08029   0.57616   0.65896   0.00000  Uiso   1.00
H1180  H     0.04265   0.62953   0.65682   0.00000  Uiso   1.00
O1181  O     0.00195   0.53505   0.79774   0.00000  Uiso   1.00
C1182  C     0.32027   0.58430   0.80764   0.00000  Uiso   1.00
H1183  H     0.26939   0.58010   0.82265   0.00000  Uiso   1.00
H1184  H     0.00104   0.60843   0.77814   0.00000  Uiso   1.00
C1185  C     0.02294   0.61243   0.84091   0.00000  Uiso   1.00
H1186  H     0.00820   0.58980   0.87115   0.00000  Uiso   1.00
H1187  H     0.07424   0.61601   0.82766   0.00000  Uiso   1.00
H1188  H     0.01376   0.65224   0.84904   0.00000  Uiso   1.00
O1189  O     0.32024   0.44534   0.71743   0.00000  Uiso   1.00
C1190  C     0.02519   0.43562   0.67675   0.00000  Uiso   1.00
H1191  H     0.06433   0.41885   0.68054   0.00000  Uiso   1.00
H1192  H     0.04267   0.47195   0.65773   0.00000  Uiso   1.00
C1193  C     0.31937   0.39519   0.65152   0.00000  Uiso   1.00
H1194  H     0.28161   0.41152   0.64449   0.00000  Uiso   1.00
H1195  H     0.01669   0.38431   0.62042   0.00000  Uiso   1.00
H1196  H     0.29760   0.35946   0.67084   0.00000  Uiso   1.00
C1197  C     0.51451   0.59983   0.75206   0.00000  Uiso   1.00
C1198  C     0.48578   0.40021   0.74768   0.00000  Uiso   1.00
C1199  C     0.42540   0.46763   0.53922   0.00000  Uiso   1.00
C1200  C     0.57454   0.52243   0.95927   0.00000  Uiso   1.00
C1201  C     0.38283   0.45161   0.51275   0.00000  Uiso   1.00
C1202  C     0.61717   0.53861   0.98554   0.00000  Uiso   1.00
C1203  C     0.51965   0.65553   0.75763   0.00000  Uiso   1.00
C1204  C     0.48152   0.34476   0.74188   0.00000  Uiso   1.00
C1205  C     0.46168   0.49561   0.83288   0.00000  Uiso   1.00
C1206  C     0.53821   0.50373   0.66703   0.00000  Uiso   1.00
C1207  C     0.43871   0.48717   0.87978   0.00000  Uiso   1.00
C1208  C     0.56088   0.50943   0.61971   0.00000  Uiso   1.00
C1209  C     0.35919   0.44783   0.94121   0.00000  Uiso   1.00
C1210  C     0.64117   0.54408   0.55694   0.00000  Uiso   1.00
C1211  C     0.37737   0.46016   0.89736   0.00000  Uiso   1.00
C1212  C     0.62282   0.53407   0.60121   0.00000  Uiso   1.00
C1213  C     0.48144   0.50197   0.90632   0.00000  Uiso   1.00
C1214  C     0.51802   0.49326   0.59332   0.00000  Uiso   1.00
C1215  C     0.46555   0.48773   0.95015   0.00000  Uiso   1.00
C1216  C     0.53426   0.50452   0.54876   0.00000  Uiso   1.00
C1217  C     0.40248   0.46151   0.96805   0.00000  Uiso   1.00
C1218  C     0.59759   0.52984   0.53039   0.00000  Uiso   1.00
C1219  C     0.51009   0.50052   0.97675   0.00000  Uiso   1.00
C1220  C     0.48976   0.49051   0.52203   0.00000  Uiso   1.00
Cu1221 Cu    0.44071   0.49441   0.74517   0.00000  Uiso   1.00
Cu1222 Cu    0.55929   0.50559   0.75484   0.00000  Uiso   1.00
H1223  H     0.47237   0.47116   0.60852   0.00000  Uiso   1.00
H1224  H     0.52681   0.52547   0.89178   0.00000  Uiso   1.00
H1225  H     0.65682   0.54601   0.62102   0.00000  Uiso   1.00
H1226  H     0.34365   0.44821   0.87721   0.00000  Uiso   1.00
H1227  H     0.64401   0.42848   0.95405   0.00000  Uiso   1.00
H1228  H     0.35662   0.56234   0.54358   0.00000  Uiso   1.00
H1229  H     0.40539   0.46268   0.57355   0.00000  Uiso   1.00
H1230  H     0.59453   0.52631   0.92479   0.00000  Uiso   1.00
N1231  N     0.64839   0.51401   0.76212   0.00000  Uiso   1.00
N1232  N     0.35161   0.48599   0.73788   0.00000  Uiso   1.00
O1233  O     0.46148   0.57142   0.74686   0.00000  Uiso   1.00
O1234  O     0.53852   0.42858   0.75314   0.00000  Uiso   1.00
O1235  O     0.56163   0.58086   0.75503   0.00000  Uiso   1.00
O1236  O     0.43837   0.41914   0.74498   0.00000  Uiso   1.00
O1237  O     0.42185   0.49263   0.80855   0.00000  Uiso   1.00
O1238  O     0.57815   0.50737   0.69146   0.00000  Uiso   1.00
O1239  O     0.52199   0.50207   0.81671   0.00000  Uiso   1.00
O1240  O     0.47801   0.49793   0.68329   0.00000  Uiso   1.00
O1241  O     0.65293   0.43495   0.53250   0.00000  Uiso   1.00
C1242  C     0.63717   0.37993   0.53248   0.00000  Uiso   1.00
H1243  H     0.66606   0.36447   0.55008   0.00000  Uiso   1.00
H1244  H     0.64376   0.36357   0.99856   0.00000  Uiso   1.00
C1245  C     0.56798   0.36188   0.55499   0.00000  Uiso   1.00
H1246  H     0.55862   0.37827   0.58890   0.00000  Uiso   1.00
H1247  H     0.55536   0.65180   0.55582   0.00000  Uiso   1.00
H1248  H     0.53810   0.37524   0.53694   0.00000  Uiso   1.00
O1249  O     0.34689   0.55577   0.96569   0.00000  Uiso   1.00
C1250  C     0.36118   0.61071   0.96478   0.00000  Uiso   1.00
H1251  H     0.35517   0.62771   0.99849   0.00000  Uiso   1.00
H1252  H     0.66442   0.62490   0.94728   0.00000  Uiso   1.00
C1253  C     0.42974   0.62950   0.94138   0.00000  Uiso   1.00
H1254  H     0.43792   0.61428   0.90706   0.00000  Uiso   1.00
H1255  H     0.44157   0.33960   0.94181   0.00000  Uiso   1.00
H1256  H     0.46080   0.61567   0.95813   0.00000  Uiso   1.00
O1257  O     0.56684   0.35172   0.77654   0.00000  Uiso   1.00
C1258  C     0.55311   0.34232   0.82169   0.00000  Uiso   1.00
H1259  H     0.59796   0.34219   0.83018   0.00000  Uiso   1.00
H1260  H     0.52065   0.63741   0.83170   0.00000  Uiso   1.00
C1261  C     0.52682   0.38660   0.84837   0.00000  Uiso   1.00
H1262  H     0.48008   0.38679   0.84263   0.00000  Uiso   1.00
H1263  H     0.52163   0.38141   0.88357   0.00000  Uiso   1.00
H1264  H     0.55984   0.42457   0.83922   0.00000  Uiso   1.00
O1265  O     0.43824   0.64947   0.71948   0.00000  Uiso   1.00
C1266  C     0.46600   0.65274   0.67427   0.00000  Uiso   1.00
H1267  H     0.51145   0.63955   0.66581   0.00000  Uiso   1.00
H1268  H     0.47443   0.36020   0.66348   0.00000  Uiso   1.00
C1269  C     0.42174   0.61732   0.64939   0.00000  Uiso   1.00
H1270  H     0.44271   0.61980   0.61375   0.00000  Uiso   1.00
H1271  H     0.41362   0.57616   0.65896   0.00000  Uiso   1.00
H1272  H     0.37598   0.62953   0.65682   0.00000  Uiso   1.00
O1273  O     0.33528   0.53505   0.79774   0.00000  Uiso   1.00
C1274  C     0.65360   0.58430   0.80764   0.00000  Uiso   1.00
H1275  H     0.60273   0.58010   0.82265   0.00000  Uiso   1.00
H1276  H     0.33438   0.60843   0.77814   0.00000  Uiso   1.00
C1277  C     0.35627   0.61243   0.84091   0.00000  Uiso   1.00
H1278  H     0.34153   0.58980   0.87115   0.00000  Uiso   1.00
H1279  H     0.40757   0.61601   0.82766   0.00000  Uiso   1.00
H1280  H     0.34710   0.65224   0.84904   0.00000  Uiso   1.00
O1281  O     0.65357   0.44534   0.71743   0.00000  Uiso   1.00
C1282  C     0.35852   0.43562   0.67675   0.00000  Uiso   1.00
H1283  H     0.39767   0.41885   0.68054   0.00000  Uiso   1.00
H1284  H     0.37601   0.47195   0.65773   0.00000  Uiso   1.00
C1285  C     0.65271   0.39519   0.65152   0.00000  Uiso   1.00
H1286  H     0.61494   0.41152   0.64449   0.00000  Uiso   1.00
H1287  H     0.35002   0.38431   0.62042   0.00000  Uiso   1.00
H1288  H     0.63094   0.35946   0.67084   0.00000  Uiso   1.00
C1289  C     0.84784   0.59983   0.75206   0.00000  Uiso   1.00
C1290  C     0.81911   0.40021   0.74768   0.00000  Uiso   1.00
C1291  C     0.75873   0.46763   0.53922   0.00000  Uiso   1.00
C1292  C     0.90787   0.52243   0.95927   0.00000  Uiso   1.00
C1293  C     0.71616   0.45161   0.51275   0.00000  Uiso   1.00
C1294  C     0.95051   0.53861   0.98554   0.00000  Uiso   1.00
C1295  C     0.85299   0.65553   0.75763   0.00000  Uiso   1.00
C1296  C     0.81485   0.34476   0.74188   0.00000  Uiso   1.00
C1297  C     0.79501   0.49561   0.83288   0.00000  Uiso   1.00
C1298  C     0.87154   0.50373   0.66703   0.00000  Uiso   1.00
C1299  C     0.77204   0.48717   0.87978   0.00000  Uiso   1.00
C1300  C     0.89422   0.50943   0.61971   0.00000  Uiso   1.00
C1301  C     0.69253   0.44783   0.94121   0.00000  Uiso   1.00
C1302  C     0.97450   0.54408   0.55694   0.00000  Uiso   1.00
C1303  C     0.71070   0.46016   0.89736   0.00000  Uiso   1.00
C1304  C     0.95615   0.53407   0.60121   0.00000  Uiso   1.00
C1305  C     0.81478   0.50197   0.90632   0.00000  Uiso   1.00
C1306  C     0.85135   0.49326   0.59332   0.00000  Uiso   1.00
C1307  C     0.79888   0.48773   0.95015   0.00000  Uiso   1.00
C1308  C     0.86759   0.50452   0.54876   0.00000  Uiso   1.00
C1309  C     0.73581   0.46151   0.96805   0.00000  Uiso   1.00
C1310  C     0.93092   0.52984   0.53039   0.00000  Uiso   1.00
C1311  C     0.84343   0.50052   0.97675   0.00000  Uiso   1.00
C1312  C     0.82309   0.49051   0.52203   0.00000  Uiso   1.00
Cu1313 Cu    0.77404   0.49441   0.74517   0.00000  Uiso   1.00
Cu1314 Cu    0.89263   0.50559   0.75484   0.00000  Uiso   1.00
H1315  H     0.80570   0.47116   0.60852   0.00000  Uiso   1.00
H1316  H     0.86015   0.52547   0.89178   0.00000  Uiso   1.00
H1317  H     0.99015   0.54601   0.62102   0.00000  Uiso   1.00
H1318  H     0.67698   0.44821   0.87721   0.00000  Uiso   1.00
H1319  H     0.97734   0.42848   0.95405   0.00000  Uiso   1.00
H1320  H     0.68996   0.56234   0.54358   0.00000  Uiso   1.00
H1321  H     0.73873   0.46268   0.57355   0.00000  Uiso   1.00
H1322  H     0.92786   0.52631   0.92479   0.00000  Uiso   1.00
N1323  N     0.98173   0.51401   0.76212   0.00000  Uiso   1.00
N1324  N     0.68494   0.48599   0.73788   0.00000  Uiso   1.00
O1325  O     0.79482   0.57142   0.74686   0.00000  Uiso   1.00
O1326  O     0.87185   0.42858   0.75314   0.00000  Uiso   1.00
O1327  O     0.89496   0.58086   0.75503   0.00000  Uiso   1.00
O1328  O     0.77171   0.41914   0.74498   0.00000  Uiso   1.00
O1329  O     0.75518   0.49263   0.80855   0.00000  Uiso   1.00
O1330  O     0.91149   0.50737   0.69146   0.00000  Uiso   1.00
O1331  O     0.85532   0.50207   0.81671   0.00000  Uiso   1.00
O1332  O     0.81134   0.49793   0.68329   0.00000  Uiso   1.00
O1333  O     0.98626   0.43495   0.53250   0.00000  Uiso   1.00
C1334  C     0.97050   0.37993   0.53248   0.00000  Uiso   1.00
H1335  H     0.99939   0.36447   0.55008   0.00000  Uiso   1.00
H1336  H     0.97710   0.36357   0.99856   0.00000  Uiso   1.00
C1337  C     0.90131   0.36188   0.55499   0.00000  Uiso   1.00
H1338  H     0.89195   0.37827   0.58890   0.00000  Uiso   1.00
H1339  H     0.88870   0.65180   0.55582   0.00000  Uiso   1.00
H1340  H     0.87144   0.37524   0.53694   0.00000  Uiso   1.00
O1341  O     0.68022   0.55577   0.96569   0.00000  Uiso   1.00
C1342  C     0.69452   0.61071   0.96478   0.00000  Uiso   1.00
H1343  H     0.68850   0.62771   0.99849   0.00000  Uiso   1.00
H1344  H     0.99775   0.62490   0.94728   0.00000  Uiso   1.00
C1345  C     0.76308   0.62950   0.94138   0.00000  Uiso   1.00
H1346  H     0.77125   0.61428   0.90706   0.00000  Uiso   1.00
H1347  H     0.77490   0.33960   0.94181   0.00000  Uiso   1.00
H1348  H     0.79413   0.61567   0.95813   0.00000  Uiso   1.00
O1349  O     0.90017   0.35172   0.77654   0.00000  Uiso   1.00
C1350  C     0.88644   0.34232   0.82169   0.00000  Uiso   1.00
H1351  H     0.93129   0.34219   0.83018   0.00000  Uiso   1.00
H1352  H     0.85399   0.63741   0.83170   0.00000  Uiso   1.00
C1353  C     0.86016   0.38660   0.84837   0.00000  Uiso   1.00
H1354  H     0.81341   0.38679   0.84263   0.00000  Uiso   1.00
H1355  H     0.85497   0.38141   0.88357   0.00000  Uiso   1.00
H1356  H     0.89318   0.42457   0.83922   0.00000  Uiso   1.00
O1357  O     0.77157   0.64947   0.71948   0.00000  Uiso   1.00
C1358  C     0.79934   0.65274   0.67427   0.00000  Uiso   1.00
H1359  H     0.84478   0.63955   0.66581   0.00000  Uiso   1.00
H1360  H     0.80776   0.36020   0.66348   0.00000  Uiso   1.00
C1361  C     0.75507   0.61732   0.64939   0.00000  Uiso   1.00
H1362  H     0.77604   0.61980   0.61375   0.00000  Uiso   1.00
H1363  H     0.74695   0.57616   0.65896   0.00000  Uiso   1.00
H1364  H     0.70932   0.62953   0.65682   0.00000  Uiso   1.00
O1365  O     0.66861   0.53505   0.79774   0.00000  Uiso   1.00
C1366  C     0.98694   0.58430   0.80764   0.00000  Uiso   1.00
H1367  H     0.93606   0.58010   0.82265   0.00000  Uiso   1.00
H1368  H     0.66771   0.60843   0.77814   0.00000  Uiso   1.00
C1369  C     0.68960   0.61243   0.84091   0.00000  Uiso   1.00
H1370  H     0.67486   0.58980   0.87115   0.00000  Uiso   1.00
H1371  H     0.74090   0.61601   0.82766   0.00000  Uiso   1.00
H1372  H     0.68043   0.65224   0.84904   0.00000  Uiso   1.00
O1373  O     0.98691   0.44534   0.71743   0.00000  Uiso   1.00
C1374  C     0.69185   0.43562   0.67675   0.00000  Uiso   1.00
H1375  H     0.73100   0.41885   0.68054   0.00000  Uiso   1.00
H1376  H     0.70934   0.47195   0.65773   0.00000  Uiso   1.00
C1377  C     0.98604   0.39519   0.65152   0.00000  Uiso   1.00
H1378  H     0.94828   0.41152   0.64449   0.00000  Uiso   1.00
H1379  H     0.68336   0.38431   0.62042   0.00000  Uiso   1.00
H1380  H     0.96427   0.35946   0.67084   0.00000  Uiso   1.00
C1381  C     0.18117   0.93317   0.75206   0.00000  Uiso   1.00
C1382  C     0.15244   0.73354   0.74768   0.00000  Uiso   1.00
C1383  C     0.09207   0.80096   0.53922   0.00000  Uiso   1.00
C1384  C     0.24121   0.85576   0.95927   0.00000  Uiso   1.00
C1385  C     0.04950   0.78494   0.51275   0.00000  Uiso   1.00
C1386  C     0.28384   0.87195   0.98554   0.00000  Uiso   1.00
C1387  C     0.18632   0.98887   0.75763   0.00000  Uiso   1.00
C1388  C     0.14819   0.67810   0.74188   0.00000  Uiso   1.00
C1389  C     0.12835   0.82895   0.83288   0.00000  Uiso   1.00
C1390  C     0.20487   0.83706   0.66703   0.00000  Uiso   1.00
C1391  C     0.10538   0.82051   0.87978   0.00000  Uiso   1.00
C1392  C     0.22755   0.84277   0.61971   0.00000  Uiso   1.00
C1393  C     0.02586   0.78116   0.94121   0.00000  Uiso   1.00
C1394  C     0.30784   0.87741   0.55694   0.00000  Uiso   1.00
C1395  C     0.04403   0.79350   0.89736   0.00000  Uiso   1.00
C1396  C     0.28949   0.86741   0.60121   0.00000  Uiso   1.00
C1397  C     0.14811   0.83531   0.90632   0.00000  Uiso   1.00
C1398  C     0.18468   0.82659   0.59332   0.00000  Uiso   1.00
C1399  C     0.13221   0.82107   0.95015   0.00000  Uiso   1.00
C1400  C     0.20093   0.83786   0.54876   0.00000  Uiso   1.00
C1401  C     0.06914   0.79484   0.96805   0.00000  Uiso   1.00
C1402  C     0.26425   0.86318   0.53039   0.00000  Uiso   1.00
C1403  C     0.17676   0.83385   0.97675   0.00000  Uiso   1.00
C1404  C     0.15642   0.82384   0.52203   0.00000  Uiso   1.00
Cu1405 Cu    0.10737   0.82775   0.74517   0.00000  Uiso   1.00
Cu1406 Cu    0.22596   0.83892   0.75484   0.00000  Uiso   1.00
H1407  H     0.13904   0.80449   0.60852   0.00000  Uiso   1.00
H1408  H     0.19348   0.85880   0.89178   0.00000  Uiso   1.00
H1409  H     0.32348   0.87934   0.62102   0.00000  Uiso   1.00
H1410  H     0.01031   0.78154   0.87721   0.00000  Uiso   1.00
H1411  H     0.31068   0.76182   0.95405   0.00000  Uiso   1.00
H1412  H     0.02329   0.89567   0.54358   0.00000  Uiso   1.00
H1413  H     0.07206   0.79601   0.57355   0.00000  Uiso   1.00
H1414  H     0.26119   0.85965   0.92479   0.00000  Uiso   1.00
N1415  N     0.31506   0.84735   0.76212   0.00000  Uiso   1.00
N1416  N     0.01827   0.81932   0.73788   0.00000  Uiso   1.00
O1417  O     0.12815   0.90476   0.74686   0.00000  Uiso   1.00
O1418  O     0.20518   0.76191   0.75314   0.00000  Uiso   1.00
O1419  O     0.22829   0.91420   0.75503   0.00000  Uiso   1.00
O1420  O     0.10504   0.75247   0.74498   0.00000  Uiso   1.00
O1421  O     0.08851   0.82597   0.80855   0.00000  Uiso   1.00
O1422  O     0.24482   0.84070   0.69146   0.00000  Uiso   1.00
O1423  O     0.18866   0.83540   0.81671   0.00000  Uiso   1.00
O1424  O     0.14468   0.83126   0.68329   0.00000  Uiso   1.00
O1425  O     0.31959   0.76828   0.53250   0.00000  Uiso   1.00
C1426  C     0.30384   0.71326   0.53248   0.00000  Uiso   1.00
H1427  H     0.33273   0.69781   0.55008   0.00000  Uiso   1.00
H1428  H     0.31043   0.69690   0.99856   0.00000  Uiso   1.00
C1429  C     0.23464   0.69522   0.55499   0.00000  Uiso   1.00
H1430  H     0.22528   0.71161   0.58890   0.00000  Uiso   1.00
H1431  H     0.22203   0.98514   0.55582   0.00000  Uiso   1.00
H1432  H     0.20477   0.70857   0.53694   0.00000  Uiso   1.00
O1433  O     0.01355   0.88910   0.96569   0.00000  Uiso   1.00
C1434  C     0.02785   0.94405   0.96478   0.00000  Uiso   1.00
H1435  H     0.02183   0.96104   0.99849   0.00000  Uiso   1.00
H1436  H     0.33108   0.95823   0.94728   0.00000  Uiso   1.00
C1437  C     0.09641   0.96283   0.94138   0.00000  Uiso   1.00
H1438  H     0.10458   0.94761   0.90706   0.00000  Uiso   1.00
H1439  H     0.10823   0.67293   0.94181   0.00000  Uiso   1.00
H1440  H     0.12746   0.94900   0.95813   0.00000  Uiso   1.00
O1441  O     0.23350   0.68505   0.77654   0.00000  Uiso   1.00
C1442  C     0.21978   0.67566   0.82169   0.00000  Uiso   1.00
H1443  H     0.26463   0.67553   0.83018   0.00000  Uiso   1.00
H1444  H     0.18732   0.97074   0.83170   0.00000  Uiso   1.00
C1445  C     0.19349   0.71993   0.84837   0.00000  Uiso   1.00
H1446  H     0.14675   0.72012   0.84263   0.00000  Uiso   1.00
H1447  H     0.18830   0.71474   0.88357   0.00000  Uiso   1.00
H1448  H     0.22651   0.75790   0.83922   0.00000  Uiso   1.00
O1449  O     0.10490   0.98281   0.71948   0.00000  Uiso   1.00
C1450  C     0.13267   0.98607   0.67427   0.00000  Uiso   1.00
H1451  H     0.17811   0.97288   0.66581   0.00000  Uiso   1.00
H1452  H     0.14110   0.69353   0.66348   0.00000  Uiso   1.00
C1453  C     0.08841   0.95066   0.64939   0.00000  Uiso   1.00
H1454  H     0.10938   0.95313   0.61375   0.00000  Uiso   1.00
H1455  H     0.08029   0.90949   0.65896   0.00000  Uiso   1.00
H1456  H     0.04265   0.96286   0.65682   0.00000  Uiso   1.00
O1457  O     0.00195   0.86839   0.79774   0.00000  Uiso   1.00
C1458  C     0.32027   0.91763   0.80764   0.00000  Uiso   1.00
H1459  H     0.26939   0.91343   0.82265   0.00000  Uiso   1.00
H1460  H     0.00104   0.94177   0.77814   0.00000  Uiso   1.00
C1461  C     0.02294   0.94576   0.84091   0.00000  Uiso   1.00
H1462  H     0.00820   0.92314   0.87115   0.00000  Uiso   1.00
H1463  H     0.07424   0.94934   0.82766   0.00000  Uiso   1.00
H1464  H     0.01376   0.98557   0.84904   0.00000  Uiso   1.00
O1465  O     0.32024   0.77868   0.71743   0.00000  Uiso   1.00
C1466  C     0.02519   0.76896   0.67675   0.00000  Uiso   1.00
H1467  H     0.06433   0.75218   0.68054   0.00000  Uiso   1.00
H1468  H     0.04267   0.80529   0.65773   0.00000  Uiso   1.00
C1469  C     0.31937   0.72852   0.65152   0.00000  Uiso   1.00
H1470  H     0.28161   0.74485   0.64449   0.00000  Uiso   1.00
H1471  H     0.01669   0.71765   0.62042   0.00000  Uiso   1.00
H1472  H     0.29760   0.69280   0.67084   0.00000  Uiso   1.00
C1473  C     0.51451   0.93317   0.75206   0.00000  Uiso   1.00
C1474  C     0.48578   0.73354   0.74768   0.00000  Uiso   1.00
C1475  C     0.42540   0.80096   0.53922   0.00000  Uiso   1.00
C1476  C     0.57454   0.85576   0.95927   0.00000  Uiso   1.00
C1477  C     0.38283   0.78494   0.51275   0.00000  Uiso   1.00
C1478  C     0.61717   0.87195   0.98554   0.00000  Uiso   1.00
C1479  C     0.51965   0.98887   0.75763   0.00000  Uiso   1.00
C1480  C     0.48152   0.67810   0.74188   0.00000  Uiso   1.00
C1481  C     0.46168   0.82895   0.83288   0.00000  Uiso   1.00
C1482  C     0.53821   0.83706   0.66703   0.00000  Uiso   1.00
C1483  C     0.43871   0.82051   0.87978   0.00000  Uiso   1.00
C1484  C     0.56088   0.84277   0.61971   0.00000  Uiso   1.00
C1485  C     0.35919   0.78116   0.94121   0.00000  Uiso   1.00
C1486  C     0.64117   0.87741   0.55694   0.00000  Uiso   1.00
C1487  C     0.37737   0.79350   0.89736   0.00000  Uiso   1.00
C1488  C     0.62282   0.86741   0.60121   0.00000  Uiso   1.00
C1489  C     0.48144   0.83531   0.90632   0.00000  Uiso   1.00
C1490  C     0.51802   0.82659   0.59332   0.00000  Uiso   1.00
C1491  C     0.46555   0.82107   0.95015   0.00000  Uiso   1.00
C1492  C     0.53426   0.83786   0.54876   0.00000  Uiso   1.00
C1493  C     0.40248   0.79484   0.96805   0.00000  Uiso   1.00
C1494  C     0.59759   0.86318   0.53039   0.00000  Uiso   1.00
C1495  C     0.51009   0.83385   0.97675   0.00000  Uiso   1.00
C1496  C     0.48976   0.82384   0.52203   0.00000  Uiso   1.00
Cu1497 Cu    0.44071   0.82775   0.74517   0.00000  Uiso   1.00
Cu1498 Cu    0.55929   0.83892   0.75484   0.00000  Uiso   1.00
H1499  H     0.47237   0.80449   0.60852   0.00000  Uiso   1.00
H1500  H     0.52681   0.85880   0.89178   0.00000  Uiso   1.00
H1501  H     0.65682   0.87934   0.62102   0.00000  Uiso   1.00
H1502  H     0.34365   0.78154   0.87721   0.00000  Uiso   1.00
H1503  H     0.64401   0.76182   0.95405   0.00000  Uiso   1.00
H1504  H     0.35662   0.89567   0.54358   0.00000  Uiso   1.00
H1505  H     0.40539   0.79601   0.57355   0.00000  Uiso   1.00
H1506  H     0.59453   0.85965   0.92479   0.00000  Uiso   1.00
N1507  N     0.64839   0.84735   0.76212   0.00000  Uiso   1.00
N1508  N     0.35161   0.81932   0.73788   0.00000  Uiso   1.00
O1509  O     0.46148   0.90476   0.74686   0.00000  Uiso   1.00
O1510  O     0.53852   0.76191   0.75314   0.00000  Uiso   1.00
O1511  O     0.56163   0.91420   0.75503   0.00000  Uiso   1.00
O1512  O     0.43837   0.75247   0.74498   0.00000  Uiso   1.00
O1513  O     0.42185   0.82597   0.80855   0.00000  Uiso   1.00
O1514  O     0.57815   0.84070   0.69146   0.00000  Uiso   1.00
O1515  O     0.52199   0.83540   0.81671   0.00000  Uiso   1.00
O1516  O     0.47801   0.83126   0.68329   0.00000  Uiso   1.00
O1517  O     0.65293   0.76828   0.53250   0.00000  Uiso   1.00
C1518  C     0.63717   0.71326   0.53248   0.00000  Uiso   1.00
H1519  H     0.66606   0.69781   0.55008   0.00000  Uiso   1.00
H1520  H     0.64376   0.69690   0.99856   0.00000  Uiso   1.00
C1521  C     0.56798   0.69522   0.55499   0.00000  Uiso   1.00
H1522  H     0.55862   0.71161   0.58890   0.00000  Uiso   1.00
H1523  H     0.55536   0.98514   0.55582   0.00000  Uiso   1.00
H1524  H     0.53810   0.70857   0.53694   0.00000  Uiso   1.00
O1525  O     0.34689   0.88910   0.96569   0.00000  Uiso   1.00
C1526  C     0.36118   0.94405   0.96478   0.00000  Uiso   1.00
H1527  H     0.35517   0.96104   0.99849   0.00000  Uiso   1.00
H1528  H     0.66442   0.95823   0.94728   0.00000  Uiso   1.00
C1529  C     0.42974   0.96283   0.94138   0.00000  Uiso   1.00
H1530  H     0.43792   0.94761   0.90706   0.00000  Uiso   1.00
H1531  H     0.44157   0.67293   0.94181   0.00000  Uiso   1.00
H1532  H     0.46080   0.94900   0.95813   0.00000  Uiso   1.00
O1533  O     0.56684   0.68505   0.77654   0.00000  Uiso   1.00
C1534  C     0.55311   0.67566   0.82169   0.00000  Uiso   1.00
H1535  H     0.59796   0.67553   0.83018   0.00000  Uiso   1.00
H1536  H     0.52065   0.97074   0.83170   0.00000  Uiso   1.00
C1537  C     0.52682   0.71993   0.84837   0.00000  Uiso   1.00
H1538  H     0.48008   0.72012   0.84263   0.00000  Uiso   1.00
H1539  H     0.52163   0.71474   0.88357   0.00000  Uiso   1.00
H1540  H     0.55984   0.75790   0.83922   0.00000  Uiso   1.00
O1541  O     0.43824   0.98281   0.71948   0.00000  Uiso   1.00
C1542  C     0.46600   0.98607   0.67427   0.00000  Uiso   1.00
H1543  H     0.51145   0.97288   0.66581   0.00000  Uiso   1.00
H1544  H     0.47443   0.69353   0.66348   0.00000  Uiso   1.00
C1545  C     0.42174   0.95066   0.64939   0.00000  Uiso   1.00
H1546  H     0.44271   0.95313   0.61375   0.00000  Uiso   1.00
H1547  H     0.41362   0.90949   0.65896   0.00000  Uiso   1.00
H1548  H     0.37598   0.96286   0.65682   0.00000  Uiso   1.00
O1549  O     0.33528   0.86839   0.79774   0.00000  Uiso   1.00
C1550  C     0.65360   0.91763   0.80764   0.00000  Uiso   1.00
H1551  H     0.60273   0.91343   0.82265   0.00000  Uiso   1.00
H1552  H     0.33438   0.94177   0.77814   0.00000  Uiso   1.00
C1553  C     0.35627   0.94576   0.84091   0.00000  Uiso   1.00
H1554  H     0.34153   0.92314   0.87115   0.00000  Uiso   1.00
H1555  H     0.40757   0.94934   0.82766   0.00000  Uiso   1.00
H1556  H     0.34710   0.98557   0.84904   0.00000  Uiso   1.00
O1557  O     0.65357   0.77868   0.71743   0.00000  Uiso   1.00
C1558  C     0.35852   0.76896   0.67675   0.00000  Uiso   1.00
H1559  H     0.39767   0.75218   0.68054   0.00000  Uiso   1.00
H1560  H     0.37601   0.80529   0.65773   0.00000  Uiso   1.00
C1561  C     0.65271   0.72852   0.65152   0.00000  Uiso   1.00
H1562  H     0.61494   0.74485   0.64449   0.00000  Uiso   1.00
H1563  H     0.35002   0.71765   0.62042   0.00000  Uiso   1.00
H1564  H     0.63094   0.69280   0.67084   0.00000  Uiso   1.00
C1565  C     0.84784   0.93317   0.75206   0.00000  Uiso   1.00
C1566  C     0.81911   0.73354   0.74768   0.00000  Uiso   1.00
C1567  C     0.75873   0.80096   0.53922   0.00000  Uiso   1.00
C1568  C     0.90787   0.85576   0.95927   0.00000  Uiso   1.00
C1569  C     0.71616   0.78494   0.51275   0.00000  Uiso   1.00
C1570  C     0.95051   0.87195   0.98554   0.00000  Uiso   1.00
C1571  C     0.85299   0.98887   0.75763   0.00000  Uiso   1.00
C1572  C     0.81485   0.67810   0.74188   0.00000  Uiso   1.00
C1573  C     0.79501   0.82895   0.83288   0.00000  Uiso   1.00
C1574  C     0.87154   0.83706   0.66703   0.00000  Uiso   1.00
C1575  C     0.77204   0.82051   0.87978   0.00000  Uiso   1.00
C1576  C     0.89422   0.84277   0.61971   0.00000  Uiso   1.00
C1577  C     0.69253   0.78116   0.94121   0.00000  Uiso   1.00
C1578  C     0.97450   0.87741   0.55694   0.00000  Uiso   1.00
C1579  C     0.71070   0.79350   0.89736   0.00000  Uiso   1.00
C1580  C     0.95615   0.86741   0.60121   0.00000  Uiso   1.00
C1581  C     0.81478   0.83531   0.90632   0.00000  Uiso   1.00
C1582  C     0.85135   0.82659   0.59332   0.00000  Uiso   1.00
C1583  C     0.79888   0.82107   0.95015   0.00000  Uiso   1.00
C1584  C     0.86759   0.83786   0.54876   0.00000  Uiso   1.00
C1585  C     0.73581   0.79484   0.96805   0.00000  Uiso   1.00
C1586  C     0.93092   0.86318   0.53039   0.00000  Uiso   1.00
C1587  C     0.84343   0.83385   0.97675   0.00000  Uiso   1.00
C1588  C     0.82309   0.82384   0.52203   0.00000  Uiso   1.00
Cu1589 Cu    0.77404   0.82775   0.74517   0.00000  Uiso   1.00
Cu1590 Cu    0.89263   0.83892   0.75484   0.00000  Uiso   1.00
H1591  H     0.80570   0.80449   0.60852   0.00000  Uiso   1.00
H1592  H     0.86015   0.85880   0.89178   0.00000  Uiso   1.00
H1593  H     0.99015   0.87934   0.62102   0.00000  Uiso   1.00
H1594  H     0.67698   0.78154   0.87721   0.00000  Uiso   1.00
H1595  H     0.97734   0.76182   0.95405   0.00000  Uiso   1.00
H1596  H     0.68996   0.89567   0.54358   0.00000  Uiso   1.00
H1597  H     0.73873   0.79601   0.57355   0.00000  Uiso   1.00
H1598  H     0.92786   0.85965   0.92479   0.00000  Uiso   1.00
N1599  N     0.98173   0.84735   0.76212   0.00000  Uiso   1.00
N1600  N     0.68494   0.81932   0.73788   0.00000  Uiso   1.00
O1601  O     0.79482   0.90476   0.74686   0.00000  Uiso   1.00
O1602  O     0.87185   0.76191   0.75314   0.00000  Uiso   1.00
O1603  O     0.89496   0.91420   0.75503   0.00000  Uiso   1.00
O1604  O     0.77171   0.75247   0.74498   0.00000  Uiso   1.00
O1605  O     0.75518   0.82597   0.80855   0.00000  Uiso   1.00
O1606  O     0.91149   0.84070   0.69146   0.00000  Uiso   1.00
O1607  O     0.85532   0.83540   0.81671   0.00000  Uiso   1.00
O1608  O     0.81134   0.83126   0.68329   0.00000  Uiso   1.00
O1609  O     0.98626   0.76828   0.53250   0.00000  Uiso   1.00
C1610  C     0.97050   0.71326   0.53248   0.00000  Uiso   1.00
H1611  H     0.99939   0.69781   0.55008   0.00000  Uiso   1.00
H1612  H     0.97710   0.69690   0.99856   0.00000  Uiso   1.00
C1613  C     0.90131   0.69522   0.55499   0.00000  Uiso   1.00
H1614  H     0.89195   0.71161   0.58890   0.00000  Uiso   1.00
H1615  H     0.88870   0.98514   0.55582   0.00000  Uiso   1.00
H1616  H     0.87144   0.70857   0.53694   0.00000  Uiso   1.00
O1617  O     0.68022   0.88910   0.96569   0.00000  Uiso   1.00
C1618  C     0.69452   0.94405   0.96478   0.00000  Uiso   1.00
H1619  H     0.68850   0.96104   0.99849   0.00000  Uiso   1.00
H1620  H     0.99775   0.95823   0.94728   0.00000  Uiso   1.00
C1621  C     0.76308   0.96283   0.94138   0.00000  Uiso   1.00
H1622  H     0.77125   0.94761   0.90706   0.00000  Uiso   1.00
H1623  H     0.77490   0.67293   0.94181   0.00000  Uiso   1.00
H1624  H     0.79413   0.94900   0.95813   0.00000  Uiso   1.00
O1625  O     0.90017   0.68505   0.77654   0.00000  Uiso   1.00
C1626  C     0.88644   0.67566   0.82169   0.00000  Uiso   1.00
H1627  H     0.93129   0.67553   0.83018   0.00000  Uiso   1.00
H1628  H     0.85399   0.97074   0.83170   0.00000  Uiso   1.00
C1629  C     0.86016   0.71993   0.84837   0.00000  Uiso   1.00
H1630  H     0.81341   0.72012   0.84263   0.00000  Uiso   1.00
H1631  H     0.85497   0.71474   0.88357   0.00000  Uiso   1.00
H1632  H     0.89318   0.75790   0.83922   0.00000  Uiso   1.00
O1633  O     0.77157   0.98281   0.71948   0.00000  Uiso   1.00
C1634  C     0.79934   0.98607   0.67427   0.00000  Uiso   1.00
H1635  H     0.84478   0.97288   0.66581   0.00000  Uiso   1.00
H1636  H     0.80776   0.69353   0.66348   0.00000  Uiso   1.00
C1637  C     0.75507   0.95066   0.64939   0.00000  Uiso   1.00
H1638  H     0.77604   0.95313   0.61375   0.00000  Uiso   1.00
H1639  H     0.74695   0.90949   0.65896   0.00000  Uiso   1.00
H1640  H     0.70932   0.96286   0.65682   0.00000  Uiso   1.00
O1641  O     0.66861   0.86839   0.79774   0.00000  Uiso   1.00
C1642  C     0.98694   0.91763   0.80764   0.00000  Uiso   1.00
H1643  H     0.93606   0.91343   0.82265   0.00000  Uiso   1.00
H1644  H     0.66771   0.94177   0.77814   0.00000  Uiso   1.00
C1645  C     0.68960   0.94576   0.84091   0.00000  Uiso   1.00
H1646  H     0.67486   0.92314   0.87115   0.00000  Uiso   1.00
H1647  H     0.74090   0.94934   0.82766   0.00000  Uiso   1.00
H1648  H     0.68043   0.98557   0.84904   0.00000  Uiso   1.00
O1649  O     0.98691   0.77868   0.71743   0.00000  Uiso   1.00
C1650  C     0.69185   0.76896   0.67675   0.00000  Uiso   1.00
H1651  H     0.73100   0.75218   0.68054   0.00000  Uiso   1.00
H1652  H     0.70934   0.80529   0.65773   0.00000  Uiso   1.00
C1653  C     0.98604   0.72852   0.65152   0.00000  Uiso   1.00
H1654  H     0.94828   0.74485   0.64449   0.00000  Uiso   1.00
H1655  H     0.68336   0.71765   0.62042   0.00000  Uiso   1.00
H1656  H     0.96427   0.69280   0.67084   0.00000  Uiso   1.00
loop_
_geom_bond_atom_site_label_1
_geom_bond_atom_site_label_2
_geom_bond_distance
_geom_bond_site_symmetry_2
_ccdc_geom_bond_type
C1     O37     1.291   .     A
C1     C7      1.440   .     S
C1     O39     1.296   .     A
C2     O38     1.288   .     A
C2     C8      1.436   .     S
C2     O40     1.298   .     A
C3     H33     1.075   .     S
C3     C24     1.418   .     A
C3     C5      1.394   .     A
C4     H34     1.076   .     S
C4     C6      1.391   .     A
C4     C23     1.416   .     A
C5     C849    1.402   1_554 S
C5     O229    1.385   1_455 S
C6     C850    1.401   .     S
C6     O145    1.384   .     S
C7     C284    1.354   .     S
C7     O337    1.391   .     S
C8     C559    1.354   1_545 S
C8     O621    1.387   1_545 S
C9     O43     1.300   .     A
C9     C11     1.464   .     S
C9     O41     1.304   .     A
C10    O42     1.305   .     A
C10    O44     1.299   .     A
C10    C12     1.466   .     S
C11    C15     1.395   .     A
C11    C17     1.396   .     A
C12    C16     1.393   .     A
C12    C18     1.398   .     A
C13    C21     1.411   .     A
C13    C15     1.391   .     A
C13    H215    1.082   1_455 S
C14    C16     1.390   .     A
C14    C22     1.410   .     A
C14    H124    1.082   .     S
C15    H30     1.083   .     S
C16    H29     1.080   .     S
C17    H28     1.075   .     S
C17    C19     1.406   .     A
C18    C20     1.406   .     A
C18    H27     1.071   .     S
C19    C21     1.421   .     A
C19    C23     1.427   .     A
C20    C24     1.430   .     A
C20    C22     1.422   .     A
C21    C833    1.402   .     S
C22    C834    1.401   1_554 S
C23    C852    1.420   .     S
C24    C851    1.420   1_554 S
Cu25   O40     1.966   .     S
Cu25   O37     1.968   .     S
Cu25   O44     1.930   .     S
Cu25   O41     1.947   .     S
Cu25   Cu26    2.702   .     S
Cu25   N36     2.030   .     S
Cu26   O39     1.966   .     S
Cu26   O43     1.930   .     S
Cu26   O38     1.968   .     S
Cu26   O42     1.947   .     S
Cu26   N35     2.030   .     S
H31    C105    1.082   .     S
H32    C198    1.082   1_455 S
N35    N128    1.293   .     S
N35    O169    1.346   .     S
N36    N219    1.293   1_455 S
N36    O269    1.346   1_455 S
O45    C46     1.407   .     S
O45    C97     1.385   .     S
C46    C49     1.521   .     S
C46    H47     1.113   .     S
C46    H876    1.109   1_554 S
H48    C874    1.109   .     S
C49    H52     1.111   .     S
C49    H50     1.109   .     S
C49    H603    1.111   1_545 S
H51    C325    1.111   .     S
O53    C54     1.406   .     S
O53    C190    1.384   1_455 S
C54    H55     1.109   .     S
C54    C57     1.519   .     S
C54    H240    1.114   1_455 S
H56    C146    1.114   .     S
C57    H60     1.111   .     S
C57    H58     1.110   .     S
C57    H335    1.110   .     S
H59    C609    1.110   1_545 S
O61    C62     1.417   .     S
O61    C559    1.391   1_545 S
C62    H63     1.106   .     S
C62    C65     1.520   .     S
C62    H616    1.115   1_545 S
H64    C338    1.115   .     S
C65    H68     1.110   .     S
C65    H67     1.109   .     S
C65    H66     1.110   .     S
O69    C70     1.413   .     S
O69    C284    1.387   .     S
C70    H71     1.116   .     S
C70    C73     1.519   .     S
C70    H348    1.114   .     S
H72    C622    1.114   1_545 S
C73    H74     1.111   .     S
C73    H75     1.111   .     S
C73    H76     1.110   .     S
O77    N219    1.346   1_455 S
O77    C262    1.401   1_455 S
C78    H79     1.106   .     S
C78    O169    1.401   .     S
C78    H172    1.113   .     S
C78    C173    1.523   .     S
H80    C262    1.113   1_455 S
C81    H82     1.109   .     S
C81    H83     1.108   .     S
C81    H84     1.109   .     S
C81    C262    1.523   1_455 S
O85    N128    1.346   .     S
O85    C178    1.398   .     S
C86    H87     1.106   .     S
C86    H88     1.113   .     S
C86    O269    1.398   1_455 S
C86    C273    1.519   1_455 S
C89    H92     1.111   .     S
C89    H90     1.110   .     S
C89    C178    1.519   .     S
C89    H183    1.109   .     S
H91    C273    1.109   1_455 S
C93    O129    1.291   .     A
C93    C99     1.440   .     S
C93    O131    1.296   .     A
C94    O130    1.288   .     A
C94    C100    1.436   .     S
C94    O132    1.298   .     A
C95    H125    1.075   .     S
C95    C116    1.418   .     A
C95    C97     1.394   .     A
C96    H126    1.076   .     S
C96    C98     1.391   .     A
C96    C115    1.416   .     A
C97    C941    1.402   1_554 S
C98    C942    1.401   .     S
C98    O237    1.384   .     S
C99    C376    1.354   .     S
C99    O429    1.391   .     S
C100   C651    1.354   1_545 S
C100   O713    1.387   1_545 S
C101   O135    1.300   .     A
C101   C103    1.464   .     S
C101   O133    1.304   .     A
C102   O134    1.305   .     A
C102   O136    1.299   .     A
C102   C104    1.466   .     S
C103   C107    1.395   .     A
C103   C109    1.396   .     A
C104   C108    1.393   .     A
C104   C110    1.398   .     A
C105   C113    1.411   .     A
C105   C107    1.391   .     A
C106   C108    1.390   .     A
C106   C114    1.410   .     A
C106   H216    1.082   .     S
C107   H122    1.083   .     S
C108   H121    1.080   .     S
C109   H120    1.075   .     S
C109   C111    1.406   .     A
C110   C112    1.406   .     A
C110   H119    1.071   .     S
C111   C113    1.421   .     A
C111   C115    1.427   .     A
C112   C116    1.430   .     A
C112   C114    1.422   .     A
C113   C925    1.402   .     S
C114   C926    1.401   1_554 S
C115   C944    1.420   .     S
C116   C943    1.420   1_554 S
Cu117  O132    1.966   .     S
Cu117  O129    1.968   .     S
Cu117  O136    1.930   .     S
Cu117  O133    1.947   .     S
Cu117  Cu118   2.702   .     S
Cu117  N128    2.030   .     S
Cu118  O131    1.966   .     S
Cu118  O135    1.930   .     S
Cu118  O130    1.968   .     S
Cu118  O134    1.947   .     S
Cu118  N127    2.030   .     S
H123   C197    1.082   .     S
N127   N220    1.293   .     S
N127   O261    1.346   .     S
O137   C138    1.407   .     S
O137   C189    1.385   .     S
C138   C141    1.521   .     S
C138   H139    1.113   .     S
C138   H968    1.109   1_554 S
H140   C966    1.109   .     S
C141   H144    1.111   .     S
C141   H142    1.109   .     S
C141   H695    1.111   1_545 S
H143   C417    1.111   .     S
O145   C146    1.406   .     S
C146   H147    1.109   .     S
C146   C149    1.519   .     S
H148   C238    1.114   .     S
C149   H152    1.111   .     S
C149   H150    1.110   .     S
C149   H427    1.110   .     S
H151   C701    1.110   1_545 S
O153   C154    1.417   .     S
O153   C651    1.391   1_545 S
C154   H155    1.106   .     S
C154   C157    1.520   .     S
C154   H708    1.115   1_545 S
H156   C430    1.115   .     S
C157   H160    1.110   .     S
C157   H159    1.109   .     S
C157   H158    1.110   .     S
O161   C162    1.413   .     S
O161   C376    1.387   .     S
C162   H163    1.116   .     S
C162   C165    1.519   .     S
C162   H440    1.114   .     S
H164   C714    1.114   1_545 S
C165   H166    1.111   .     S
C165   H167    1.111   .     S
C165   H168    1.110   .     S
C170   H171    1.106   .     S
C170   O261    1.401   .     S
C170   H264    1.113   .     S
C170   C265    1.523   .     S
C173   H174    1.109   .     S
C173   H175    1.108   .     S
C173   H176    1.109   .     S
O177   N220    1.346   .     S
O177   C270    1.398   .     S
C178   H179    1.106   .     S
C178   H180    1.113   .     S
C181   H184    1.111   .     S
C181   H182    1.110   .     S
C181   C270    1.519   .     S
C181   H275    1.109   .     S
C185   O221    1.291   .     A
C185   C191    1.440   .     S
C185   O223    1.296   .     A
C186   O222    1.288   .     A
C186   C192    1.436   .     S
C186   O224    1.298   .     A
C187   H217    1.075   .     S
C187   C208    1.418   .     A
C187   C189    1.394   .     A
C188   H218    1.076   .     S
C188   C190    1.391   .     A
C188   C207    1.416   .     A
C189   C1033   1.402   1_554 S
C190   C1034   1.401   .     S
C190   O53     1.384   1_655 S
C191   C468    1.354   .     S
C191   O521    1.391   .     S
C192   C743    1.354   1_545 S
C192   O805    1.387   1_545 S
C193   O227    1.300   .     A
C193   C195    1.464   .     S
C193   O225    1.304   .     A
C194   O226    1.305   .     A
C194   O228    1.299   .     A
C194   C196    1.466   .     S
C195   C199    1.395   .     A
C195   C201    1.396   .     A
C196   C200    1.393   .     A
C196   C202    1.398   .     A
C197   C205    1.411   .     A
C197   C199    1.391   .     A
C198   C200    1.390   .     A
C198   C206    1.410   .     A
C198   H32     1.082   1_655 S
C199   H214    1.083   .     S
C200   H213    1.080   .     S
C201   H212    1.075   .     S
C201   C203    1.406   .     A
C202   C204    1.406   .     A
C202   H211    1.071   .     S
C203   C205    1.421   .     A
C203   C207    1.427   .     A
C204   C208    1.430   .     A
C204   C206    1.422   .     A
C205   C1017   1.402   .     S
C206   C1018   1.401   1_554 S
C207   C1036   1.420   .     S
C208   C1035   1.420   1_554 S
Cu209  O224    1.966   .     S
Cu209  O221    1.968   .     S
Cu209  O228    1.930   .     S
Cu209  O225    1.947   .     S
Cu209  Cu210   2.702   .     S
Cu209  N220    2.030   .     S
Cu210  O223    1.966   .     S
Cu210  O227    1.930   .     S
Cu210  O222    1.968   .     S
Cu210  O226    1.947   .     S
Cu210  N219    2.030   .     S
H215   C13     1.082   1_655 S
N219   N36     1.293   1_655 S
N219   O77     1.346   1_655 S
O229   C230    1.407   .     S
O229   C5      1.385   1_655 S
C230   C233    1.521   .     S
C230   H231    1.113   .     S
C230   H1060   1.109   1_554 S
H232   C1058   1.109   .     S
C233   H236    1.111   .     S
C233   H234    1.109   .     S
C233   H787    1.111   1_545 S
H235   C509    1.111   .     S
O237   C238    1.406   .     S
C238   H239    1.109   .     S
C238   C241    1.519   .     S
H240   C54     1.114   1_655 S
C241   H244    1.111   .     S
C241   H242    1.110   .     S
C241   H519    1.110   .     S
H243   C793    1.110   1_545 S
O245   C246    1.417   .     S
O245   C743    1.391   1_545 S
C246   H247    1.106   .     S
C246   C249    1.520   .     S
C246   H800    1.115   1_545 S
H248   C522    1.115   .     S
C249   H252    1.110   .     S
C249   H251    1.109   .     S
C249   H250    1.110   .     S
O253   C254    1.413   .     S
O253   C468    1.387   .     S
C254   H255    1.116   .     S
C254   C257    1.519   .     S
C254   H532    1.114   .     S
H256   C806    1.114   1_545 S
C257   H258    1.111   .     S
C257   H259    1.111   .     S
C257   H260    1.110   .     S
C262   H263    1.106   .     S
C262   O77     1.401   1_655 S
C262   H80     1.113   1_655 S
C262   C81     1.523   1_655 S
C265   H266    1.109   .     S
C265   H267    1.108   .     S
C265   H268    1.109   .     S
O269   N36     1.346   1_655 S
O269   C86     1.398   1_655 S
C270   H271    1.106   .     S
C270   H272    1.113   .     S
C273   H276    1.111   .     S
C273   H274    1.110   .     S
C273   C86     1.519   1_655 S
C273   H91     1.109   1_655 S
C277   O313    1.291   .     A
C277   C283    1.440   .     S
C277   O315    1.296   .     A
C278   O314    1.288   .     A
C278   C284    1.436   .     S
C278   O316    1.298   .     A
C279   H309    1.075   .     S
C279   C300    1.418   .     A
C279   C281    1.394   .     A
C280   H310    1.076   .     S
C280   C282    1.391   .     A
C280   C299    1.416   .     A
C281   C1125   1.402   1_554 S
C281   O505    1.385   1_455 S
C282   C1126   1.401   .     S
C282   O421    1.384   .     S
C283   C560    1.354   .     S
C283   O613    1.391   .     S
C285   O319    1.300   .     A
C285   C287    1.464   .     S
C285   O317    1.304   .     A
C286   O318    1.305   .     A
C286   O320    1.299   .     A
C286   C288    1.466   .     S
C287   C291    1.395   .     A
C287   C293    1.396   .     A
C288   C292    1.393   .     A
C288   C294    1.398   .     A
C289   C297    1.411   .     A
C289   C291    1.391   .     A
C289   H491    1.082   1_455 S
C290   C292    1.390   .     A
C290   C298    1.410   .     A
C290   H400    1.082   .     S
C291   H306    1.083   .     S
C292   H305    1.080   .     S
C293   H304    1.075   .     S
C293   C295    1.406   .     A
C294   C296    1.406   .     A
C294   H303    1.071   .     S
C295   C297    1.421   .     A
C295   C299    1.427   .     A
C296   C300    1.430   .     A
C296   C298    1.422   .     A
C297   C1109   1.402   .     S
C298   C1110   1.401   1_554 S
C299   C1128   1.420   .     S
C300   C1127   1.420   1_554 S
Cu301  O316    1.966   .     S
Cu301  O313    1.968   .     S
Cu301  O320    1.930   .     S
Cu301  O317    1.947   .     S
Cu301  Cu302   2.702   .     S
Cu301  N312    2.030   .     S
Cu302  O315    1.966   .     S
Cu302  O319    1.930   .     S
Cu302  O314    1.968   .     S
Cu302  O318    1.947   .     S
Cu302  N311    2.030   .     S
H307   C381    1.082   .     S
H308   C474    1.082   1_455 S
N311   N404    1.293   .     S
N311   O445    1.346   .     S
N312   N495    1.293   1_455 S
N312   O545    1.346   1_455 S
O321   C322    1.407   .     S
O321   C373    1.385   .     S
C322   C325    1.521   .     S
C322   H323    1.113   .     S
C322   H1152   1.109   1_554 S
H324   C1150   1.109   .     S
C325   H328    1.111   .     S
C325   H326    1.109   .     S
H327   C601    1.111   .     S
O329   C330    1.406   .     S
O329   C466    1.384   1_455 S
C330   H331    1.109   .     S
C330   C333    1.519   .     S
C330   H516    1.114   1_455 S
H332   C422    1.114   .     S
C333   H336    1.111   .     S
C333   H334    1.110   .     S
C333   H611    1.110   .     S
O337   C338    1.417   .     S
C338   H339    1.106   .     S
C338   C341    1.520   .     S
H340   C614    1.115   .     S
C341   H344    1.110   .     S
C341   H343    1.109   .     S
C341   H342    1.110   .     S
O345   C346    1.413   .     S
O345   C560    1.387   .     S
C346   H347    1.116   .     S
C346   C349    1.519   .     S
C346   H624    1.114   .     S
C349   H350    1.111   .     S
C349   H351    1.111   .     S
C349   H352    1.110   .     S
O353   N495    1.346   1_455 S
O353   C538    1.401   1_455 S
C354   H355    1.106   .     S
C354   O445    1.401   .     S
C354   H448    1.113   .     S
C354   C449    1.523   .     S
H356   C538    1.113   1_455 S
C357   H358    1.109   .     S
C357   H359    1.108   .     S
C357   H360    1.109   .     S
C357   C538    1.523   1_455 S
O361   N404    1.346   .     S
O361   C454    1.398   .     S
C362   H363    1.106   .     S
C362   H364    1.113   .     S
C362   O545    1.398   1_455 S
C362   C549    1.519   1_455 S
C365   H368    1.111   .     S
C365   H366    1.110   .     S
C365   C454    1.519   .     S
C365   H459    1.109   .     S
H367   C549    1.109   1_455 S
C369   O405    1.291   .     A
C369   C375    1.440   .     S
C369   O407    1.296   .     A
C370   O406    1.288   .     A
C370   C376    1.436   .     S
C370   O408    1.298   .     A
C371   H401    1.075   .     S
C371   C392    1.418   .     A
C371   C373    1.394   .     A
C372   H402    1.076   .     S
C372   C374    1.391   .     A
C372   C391    1.416   .     A
C373   C1217   1.402   1_554 S
C374   C1218   1.401   .     S
C374   O513    1.384   .     S
C375   C652    1.354   .     S
C375   O705    1.391   .     S
C377   O411    1.300   .     A
C377   C379    1.464   .     S
C377   O409    1.304   .     A
C378   O410    1.305   .     A
C378   O412    1.299   .     A
C378   C380    1.466   .     S
C379   C383    1.395   .     A
C379   C385    1.396   .     A
C380   C384    1.393   .     A
C380   C386    1.398   .     A
C381   C389    1.411   .     A
C381   C383    1.391   .     A
C382   C384    1.390   .     A
C382   C390    1.410   .     A
C382   H492    1.082   .     S
C383   H398    1.083   .     S
C384   H397    1.080   .     S
C385   H396    1.075   .     S
C385   C387    1.406   .     A
C386   C388    1.406   .     A
C386   H395    1.071   .     S
C387   C389    1.421   .     A
C387   C391    1.427   .     A
C388   C392    1.430   .     A
C388   C390    1.422   .     A
C389   C1201   1.402   .     S
C390   C1202   1.401   1_554 S
C391   C1220   1.420   .     S
C392   C1219   1.420   1_554 S
Cu393  O408    1.966   .     S
Cu393  O405    1.968   .     S
Cu393  O412    1.930   .     S
Cu393  O409    1.947   .     S
Cu393  Cu394   2.702   .     S
Cu393  N404    2.030   .     S
Cu394  O407    1.966   .     S
Cu394  O411    1.930   .     S
Cu394  O406    1.968   .     S
Cu394  O410    1.947   .     S
Cu394  N403    2.030   .     S
H399   C473    1.082   .     S
N403   N496    1.293   .     S
N403   O537    1.346   .     S
O413   C414    1.407   .     S
O413   C465    1.385   .     S
C414   C417    1.521   .     S
C414   H415    1.113   .     S
C414   H1244   1.109   1_554 S
H416   C1242   1.109   .     S
C417   H420    1.111   .     S
C417   H418    1.109   .     S
H419   C693    1.111   .     S
O421   C422    1.406   .     S
C422   H423    1.109   .     S
C422   C425    1.519   .     S
H424   C514    1.114   .     S
C425   H428    1.111   .     S
C425   H426    1.110   .     S
C425   H703    1.110   .     S
O429   C430    1.417   .     S
C430   H431    1.106   .     S
C430   C433    1.520   .     S
H432   C706    1.115   .     S
C433   H436    1.110   .     S
C433   H435    1.109   .     S
C433   H434    1.110   .     S
O437   C438    1.413   .     S
O437   C652    1.387   .     S
C438   H439    1.116   .     S
C438   C441    1.519   .     S
C438   H716    1.114   .     S
C441   H442    1.111   .     S
C441   H443    1.111   .     S
C441   H444    1.110   .     S
C446   H447    1.106   .     S
C446   O537    1.401   .     S
C446   H540    1.113   .     S
C446   C541    1.523   .     S
C449   H450    1.109   .     S
C449   H451    1.108   .     S
C449   H452    1.109   .     S
O453   N496    1.346   .     S
O453   C546    1.398   .     S
C454   H455    1.106   .     S
C454   H456    1.113   .     S
C457   H460    1.111   .     S
C457   H458    1.110   .     S
C457   C546    1.519   .     S
C457   H551    1.109   .     S
C461   O497    1.291   .     A
C461   C467    1.440   .     S
C461   O499    1.296   .     A
C462   O498    1.288   .     A
C462   C468    1.436   .     S
C462   O500    1.298   .     A
C463   H493    1.075   .     S
C463   C484    1.418   .     A
C463   C465    1.394   .     A
C464   H494    1.076   .     S
C464   C466    1.391   .     A
C464   C483    1.416   .     A
C465   C1309   1.402   1_554 S
C466   C1310   1.401   .     S
C466   O329    1.384   1_655 S
C467   C744    1.354   .     S
C467   O797    1.391   .     S
C469   O503    1.300   .     A
C469   C471    1.464   .     S
C469   O501    1.304   .     A
C470   O502    1.305   .     A
C470   O504    1.299   .     A
C470   C472    1.466   .     S
C471   C475    1.395   .     A
C471   C477    1.396   .     A
C472   C476    1.393   .     A
C472   C478    1.398   .     A
C473   C481    1.411   .     A
C473   C475    1.391   .     A
C474   C476    1.390   .     A
C474   C482    1.410   .     A
C474   H308    1.082   1_655 S
C475   H490    1.083   .     S
C476   H489    1.080   .     S
C477   H488    1.075   .     S
C477   C479    1.406   .     A
C478   C480    1.406   .     A
C478   H487    1.071   .     S
C479   C481    1.421   .     A
C479   C483    1.427   .     A
C480   C484    1.430   .     A
C480   C482    1.422   .     A
C481   C1293   1.402   .     S
C482   C1294   1.401   1_554 S
C483   C1312   1.420   .     S
C484   C1311   1.420   1_554 S
Cu485  O500    1.966   .     S
Cu485  O497    1.968   .     S
Cu485  O504    1.930   .     S
Cu485  O501    1.947   .     S
Cu485  Cu486   2.702   .     S
Cu485  N496    2.030   .     S
Cu486  O499    1.966   .     S
Cu486  O503    1.930   .     S
Cu486  O498    1.968   .     S
Cu486  O502    1.947   .     S
Cu486  N495    2.030   .     S
H491   C289    1.082   1_655 S
N495   N312    1.293   1_655 S
N495   O353    1.346   1_655 S
O505   C506    1.407   .     S
O505   C281    1.385   1_655 S
C506   C509    1.521   .     S
C506   H507    1.113   .     S
C506   H1336   1.109   1_554 S
H508   C1334   1.109   .     S
C509   H512    1.111   .     S
C509   H510    1.109   .     S
H511   C785    1.111   .     S
O513   C514    1.406   .     S
C514   H515    1.109   .     S
C514   C517    1.519   .     S
H516   C330    1.114   1_655 S
C517   H520    1.111   .     S
C517   H518    1.110   .     S
C517   H795    1.110   .     S
O521   C522    1.417   .     S
C522   H523    1.106   .     S
C522   C525    1.520   .     S
H524   C798    1.115   .     S
C525   H528    1.110   .     S
C525   H527    1.109   .     S
C525   H526    1.110   .     S
O529   C530    1.413   .     S
O529   C744    1.387   .     S
C530   H531    1.116   .     S
C530   C533    1.519   .     S
C530   H808    1.114   .     S
C533   H534    1.111   .     S
C533   H535    1.111   .     S
C533   H536    1.110   .     S
C538   H539    1.106   .     S
C538   O353    1.401   1_655 S
C538   H356    1.113   1_655 S
C538   C357    1.523   1_655 S
C541   H542    1.109   .     S
C541   H543    1.108   .     S
C541   H544    1.109   .     S
O545   N312    1.346   1_655 S
O545   C362    1.398   1_655 S
C546   H547    1.106   .     S
C546   H548    1.113   .     S
C549   H552    1.111   .     S
C549   H550    1.110   .     S
C549   C362    1.519   1_655 S
C549   H367    1.109   1_655 S
C553   O589    1.291   .     A
C553   C559    1.440   .     S
C553   O591    1.296   .     A
C554   O590    1.288   .     A
C554   C560    1.436   .     S
C554   O592    1.298   .     A
C555   H585    1.075   .     S
C555   C576    1.418   .     A
C555   C557    1.394   .     A
C556   H586    1.076   .     S
C556   C558    1.391   .     A
C556   C575    1.416   .     A
C557   C1401   1.402   1_554 S
C557   O781    1.385   1_455 S
C558   C1402   1.401   .     S
C558   O697    1.384   .     S
C559   C8      1.354   1_565 S
C559   O61     1.391   1_565 S
C561   O595    1.300   .     A
C561   C563    1.464   .     S
C561   O593    1.304   .     A
C562   O594    1.305   .     A
C562   O596    1.299   .     A
C562   C564    1.466   .     S
C563   C567    1.395   .     A
C563   C569    1.396   .     A
C564   C568    1.393   .     A
C564   C570    1.398   .     A
C565   C573    1.411   .     A
C565   C567    1.391   .     A
C565   H767    1.082   1_455 S
C566   C568    1.390   .     A
C566   C574    1.410   .     A
C566   H676    1.082   .     S
C567   H582    1.083   .     S
C568   H581    1.080   .     S
C569   H580    1.075   .     S
C569   C571    1.406   .     A
C570   C572    1.406   .     A
C570   H579    1.071   .     S
C571   C573    1.421   .     A
C571   C575    1.427   .     A
C572   C576    1.430   .     A
C572   C574    1.422   .     A
C573   C1385   1.402   .     S
C574   C1386   1.401   1_554 S
C575   C1404   1.420   .     S
C576   C1403   1.420   1_554 S
Cu577  O592    1.966   .     S
Cu577  O589    1.968   .     S
Cu577  O596    1.930   .     S
Cu577  O593    1.947   .     S
Cu577  Cu578   2.702   .     S
Cu577  N588    2.030   .     S
Cu578  O591    1.966   .     S
Cu578  O595    1.930   .     S
Cu578  O590    1.968   .     S
Cu578  O594    1.947   .     S
Cu578  N587    2.030   .     S
H583   C657    1.082   .     S
H584   C750    1.082   1_455 S
N587   N680    1.293   .     S
N587   O721    1.346   .     S
N588   N771    1.293   1_455 S
N588   O821    1.346   1_455 S
O597   C598    1.407   .     S
O597   C649    1.385   .     S
C598   C601    1.521   .     S
C598   H599    1.113   .     S
C598   H1428   1.109   1_554 S
H600   C1426   1.109   .     S
C601   H604    1.111   .     S
C601   H602    1.109   .     S
H603   C49     1.111   1_565 S
O605   C606    1.406   .     S
O605   C742    1.384   1_455 S
C606   H607    1.109   .     S
C606   C609    1.519   .     S
C606   H792    1.114   1_455 S
H608   C698    1.114   .     S
C609   H612    1.111   .     S
C609   H610    1.110   .     S
C609   H59     1.110   1_565 S
O613   C614    1.417   .     S
C614   H615    1.106   .     S
C614   C617    1.520   .     S
H616   C62     1.115   1_565 S
C617   H620    1.110   .     S
C617   H619    1.109   .     S
C617   H618    1.110   .     S
O621   C622    1.413   .     S
O621   C8      1.387   1_565 S
C622   H623    1.116   .     S
C622   C625    1.519   .     S
C622   H72     1.114   1_565 S
C625   H626    1.111   .     S
C625   H627    1.111   .     S
C625   H628    1.110   .     S
O629   N771    1.346   1_455 S
O629   C814    1.401   1_455 S
C630   H631    1.106   .     S
C630   O721    1.401   .     S
C630   H724    1.113   .     S
C630   C725    1.523   .     S
H632   C814    1.113   1_455 S
C633   H634    1.109   .     S
C633   H635    1.108   .     S
C633   H636    1.109   .     S
C633   C814    1.523   1_455 S
O637   N680    1.346   .     S
O637   C730    1.398   .     S
C638   H639    1.106   .     S
C638   H640    1.113   .     S
C638   O821    1.398   1_455 S
C638   C825    1.519   1_455 S
C641   H644    1.111   .     S
C641   H642    1.110   .     S
C641   C730    1.519   .     S
C641   H735    1.109   .     S
H643   C825    1.109   1_455 S
C645   O681    1.291   .     A
C645   C651    1.440   .     S
C645   O683    1.296   .     A
C646   O682    1.288   .     A
C646   C652    1.436   .     S
C646   O684    1.298   .     A
C647   H677    1.075   .     S
C647   C668    1.418   .     A
C647   C649    1.394   .     A
C648   H678    1.076   .     S
C648   C650    1.391   .     A
C648   C667    1.416   .     A
C649   C1493   1.402   1_554 S
C650   C1494   1.401   .     S
C650   O789    1.384   .     S
C651   C100    1.354   1_565 S
C651   O153    1.391   1_565 S
C653   O687    1.300   .     A
C653   C655    1.464   .     S
C653   O685    1.304   .     A
C654   O686    1.305   .     A
C654   O688    1.299   .     A
C654   C656    1.466   .     S
C655   C659    1.395   .     A
C655   C661    1.396   .     A
C656   C660    1.393   .     A
C656   C662    1.398   .     A
C657   C665    1.411   .     A
C657   C659    1.391   .     A
C658   C660    1.390   .     A
C658   C666    1.410   .     A
C658   H768    1.082   .     S
C659   H674    1.083   .     S
C660   H673    1.080   .     S
C661   H672    1.075   .     S
C661   C663    1.406   .     A
C662   C664    1.406   .     A
C662   H671    1.071   .     S
C663   C665    1.421   .     A
C663   C667    1.427   .     A
C664   C668    1.430   .     A
C664   C666    1.422   .     A
C665   C1477   1.402   .     S
C666   C1478   1.401   1_554 S
C667   C1496   1.420   .     S
C668   C1495   1.420   1_554 S
Cu669  O684    1.966   .     S
Cu669  O681    1.968   .     S
Cu669  O688    1.930   .     S
Cu669  O685    1.947   .     S
Cu669  Cu670   2.702   .     S
Cu669  N680    2.030   .     S
Cu670  O683    1.966   .     S
Cu670  O687    1.930   .     S
Cu670  O682    1.968   .     S
Cu670  O686    1.947   .     S
Cu670  N679    2.030   .     S
H675   C749    1.082   .     S
N679   N772    1.293   .     S
N679   O813    1.346   .     S
O689   C690    1.407   .     S
O689   C741    1.385   .     S
C690   C693    1.521   .     S
C690   H691    1.113   .     S
C690   H1520   1.109   1_554 S
H692   C1518   1.109   .     S
C693   H696    1.111   .     S
C693   H694    1.109   .     S
H695   C141    1.111   1_565 S
O697   C698    1.406   .     S
C698   H699    1.109   .     S
C698   C701    1.519   .     S
H700   C790    1.114   .     S
C701   H704    1.111   .     S
C701   H702    1.110   .     S
C701   H151    1.110   1_565 S
O705   C706    1.417   .     S
C706   H707    1.106   .     S
C706   C709    1.520   .     S
H708   C154    1.115   1_565 S
C709   H712    1.110   .     S
C709   H711    1.109   .     S
C709   H710    1.110   .     S
O713   C714    1.413   .     S
O713   C100    1.387   1_565 S
C714   H715    1.116   .     S
C714   C717    1.519   .     S
C714   H164    1.114   1_565 S
C717   H718    1.111   .     S
C717   H719    1.111   .     S
C717   H720    1.110   .     S
C722   H723    1.106   .     S
C722   O813    1.401   .     S
C722   H816    1.113   .     S
C722   C817    1.523   .     S
C725   H726    1.109   .     S
C725   H727    1.108   .     S
C725   H728    1.109   .     S
O729   N772    1.346   .     S
O729   C822    1.398   .     S
C730   H731    1.106   .     S
C730   H732    1.113   .     S
C733   H736    1.111   .     S
C733   H734    1.110   .     S
C733   C822    1.519   .     S
C733   H827    1.109   .     S
C737   O773    1.291   .     A
C737   C743    1.440   .     S
C737   O775    1.296   .     A
C738   O774    1.288   .     A
C738   C744    1.436   .     S
C738   O776    1.298   .     A
C739   H769    1.075   .     S
C739   C760    1.418   .     A
C739   C741    1.394   .     A
C740   H770    1.076   .     S
C740   C742    1.391   .     A
C740   C759    1.416   .     A
C741   C1585   1.402   1_554 S
C742   C1586   1.401   .     S
C742   O605    1.384   1_655 S
C743   C192    1.354   1_565 S
C743   O245    1.391   1_565 S
C745   O779    1.300   .     A
C745   C747    1.464   .     S
C745   O777    1.304   .     A
C746   O778    1.305   .     A
C746   O780    1.299   .     A
C746   C748    1.466   .     S
C747   C751    1.395   .     A
C747   C753    1.396   .     A
C748   C752    1.393   .     A
C748   C754    1.398   .     A
C749   C757    1.411   .     A
C749   C751    1.391   .     A
C750   C752    1.390   .     A
C750   C758    1.410   .     A
C750   H584    1.082   1_655 S
C751   H766    1.083   .     S
C752   H765    1.080   .     S
C753   H764    1.075   .     S
C753   C755    1.406   .     A
C754   C756    1.406   .     A
C754   H763    1.071   .     S
C755   C757    1.421   .     A
C755   C759    1.427   .     A
C756   C760    1.430   .     A
C756   C758    1.422   .     A
C757   C1569   1.402   .     S
C758   C1570   1.401   1_554 S
C759   C1588   1.420   .     S
C760   C1587   1.420   1_554 S
Cu761  O776    1.966   .     S
Cu761  O773    1.968   .     S
Cu761  O780    1.930   .     S
Cu761  O777    1.947   .     S
Cu761  Cu762   2.702   .     S
Cu761  N772    2.030   .     S
Cu762  O775    1.966   .     S
Cu762  O779    1.930   .     S
Cu762  O774    1.968   .     S
Cu762  O778    1.947   .     S
Cu762  N771    2.030   .     S
H767   C565    1.082   1_655 S
N771   N588    1.293   1_655 S
N771   O629    1.346   1_655 S
O781   C782    1.407   .     S
O781   C557    1.385   1_655 S
C782   C785    1.521   .     S
C782   H783    1.113   .     S
C782   H1612   1.109   1_554 S
H784   C1610   1.109   .     S
C785   H788    1.111   .     S
C785   H786    1.109   .     S
H787   C233    1.111   1_565 S
O789   C790    1.406   .     S
C790   H791    1.109   .     S
C790   C793    1.519   .     S
H792   C606    1.114   1_655 S
C793   H796    1.111   .     S
C793   H794    1.110   .     S
C793   H243    1.110   1_565 S
O797   C798    1.417   .     S
C798   H799    1.106   .     S
C798   C801    1.520   .     S
H800   C246    1.115   1_565 S
C801   H804    1.110   .     S
C801   H803    1.109   .     S
C801   H802    1.110   .     S
O805   C806    1.413   .     S
O805   C192    1.387   1_565 S
C806   H807    1.116   .     S
C806   C809    1.519   .     S
C806   H256    1.114   1_565 S
C809   H810    1.111   .     S
C809   H811    1.111   .     S
C809   H812    1.110   .     S
C814   H815    1.106   .     S
C814   O629    1.401   1_655 S
C814   H632    1.113   1_655 S
C814   C633    1.523   1_655 S
C817   H818    1.109   .     S
C817   H819    1.108   .     S
C817   H820    1.109   .     S
O821   N588    1.346   1_655 S
O821   C638    1.398   1_655 S
C822   H823    1.106   .     S
C822   H824    1.113   .     S
C825   H828    1.111   .     S
C825   H826    1.110   .     S
C825   C638    1.519   1_655 S
C825   H643    1.109   1_655 S
C829   O865    1.291   .     A
C829   C835    1.440   .     S
C829   O867    1.296   .     A
C830   O866    1.288   .     A
C830   C836    1.436   .     S
C830   O868    1.298   .     A
C831   H861    1.075   .     S
C831   C852    1.418   .     A
C831   C833    1.394   .     A
C832   H862    1.076   .     S
C832   C834    1.391   .     A
C832   C851    1.416   .     A
C833   O1057   1.385   1_455 S
C834   C22     1.401   1_556 S
C834   O973    1.384   .     S
C835   C1112   1.354   .     S
C835   O1165   1.391   .     S
C836   C1387   1.354   1_545 S
C836   O1449   1.387   1_545 S
C837   O871    1.300   .     A
C837   C839    1.464   .     S
C837   O869    1.304   .     A
C838   O870    1.305   .     A
C838   O872    1.299   .     A
C838   C840    1.466   .     S
C839   C843    1.395   .     A
C839   C845    1.396   .     A
C840   C844    1.393   .     A
C840   C846    1.398   .     A
C841   C849    1.411   .     A
C841   C843    1.391   .     A
C841   H1043   1.082   1_455 S
C842   C844    1.390   .     A
C842   C850    1.410   .     A
C842   H952    1.082   .     S
C843   H858    1.083   .     S
C844   H857    1.080   .     S
C845   H856    1.075   .     S
C845   C847    1.406   .     A
C846   C848    1.406   .     A
C846   H855    1.071   .     S
C847   C849    1.421   .     A
C847   C851    1.427   .     A
C848   C852    1.430   .     A
C848   C850    1.422   .     A
C849   C5      1.402   1_556 S
C851   C24     1.420   1_556 S
Cu853  O868    1.966   .     S
Cu853  O865    1.968   .     S
Cu853  O872    1.930   .     S
Cu853  O869    1.947   .     S
Cu853  Cu854   2.702   .     S
Cu853  N864    2.030   .     S
Cu854  O867    1.966   .     S
Cu854  O871    1.930   .     S
Cu854  O866    1.968   .     S
Cu854  O870    1.947   .     S
Cu854  N863    2.030   .     S
H859   C933    1.082   .     S
H860   C1026   1.082   1_455 S
N863   N956    1.293   .     S
N863   O997    1.346   .     S
N864   N1047   1.293   1_455 S
N864   O1097   1.346   1_455 S
O873   C874    1.407   .     S
O873   C925    1.385   .     S
C874   C877    1.521   .     S
C874   H875    1.113   .     S
H876   C46     1.109   1_556 S
C877   H880    1.111   .     S
C877   H878    1.109   .     S
C877   H1431   1.111   1_545 S
H879   C1153   1.111   .     S
O881   C882    1.406   .     S
O881   C1018   1.384   1_455 S
C882   H883    1.109   .     S
C882   C885    1.519   .     S
C882   H1068   1.114   1_455 S
H884   C974    1.114   .     S
C885   H888    1.111   .     S
C885   H886    1.110   .     S
C885   H1163   1.110   .     S
H887   C1437   1.110   1_545 S
O889   C890    1.417   .     S
O889   C1387   1.391   1_545 S
C890   H891    1.106   .     S
C890   C893    1.520   .     S
C890   H1444   1.115   1_545 S
H892   C1166   1.115   .     S
C893   H896    1.110   .     S
C893   H895    1.109   .     S
C893   H894    1.110   .     S
O897   C898    1.413   .     S
O897   C1112   1.387   .     S
C898   H899    1.116   .     S
C898   C901    1.519   .     S
C898   H1176   1.114   .     S
H900   C1450   1.114   1_545 S
C901   H902    1.111   .     S
C901   H903    1.111   .     S
C901   H904    1.110   .     S
O905   N1047   1.346   1_455 S
O905   C1090   1.401   1_455 S
C906   H907    1.106   .     S
C906   O997    1.401   .     S
C906   H1000   1.113   .     S
C906   C1001   1.523   .     S
H908   C1090   1.113   1_455 S
C909   H910    1.109   .     S
C909   H911    1.108   .     S
C909   H912    1.109   .     S
C909   C1090   1.523   1_455 S
O913   N956    1.346   .     S
O913   C1006   1.398   .     S
C914   H915    1.106   .     S
C914   H916    1.113   .     S
C914   O1097   1.398   1_455 S
C914   C1101   1.519   1_455 S
C917   H920    1.111   .     S
C917   H918    1.110   .     S
C917   C1006   1.519   .     S
C917   H1011   1.109   .     S
H919   C1101   1.109   1_455 S
C921   O957    1.291   .     A
C921   C927    1.440   .     S
C921   O959    1.296   .     A
C922   O958    1.288   .     A
C922   C928    1.436   .     S
C922   O960    1.298   .     A
C923   H953    1.075   .     S
C923   C944    1.418   .     A
C923   C925    1.394   .     A
C924   H954    1.076   .     S
C924   C926    1.391   .     A
C924   C943    1.416   .     A
C926   C114    1.401   1_556 S
C926   O1065   1.384   .     S
C927   C1204   1.354   .     S
C927   O1257   1.391   .     S
C928   C1479   1.354   1_545 S
C928   O1541   1.387   1_545 S
C929   O963    1.300   .     A
C929   C931    1.464   .     S
C929   O961    1.304   .     A
C930   O962    1.305   .     A
C930   O964    1.299   .     A
C930   C932    1.466   .     S
C931   C935    1.395   .     A
C931   C937    1.396   .     A
C932   C936    1.393   .     A
C932   C938    1.398   .     A
C933   C941    1.411   .     A
C933   C935    1.391   .     A
C934   C936    1.390   .     A
C934   C942    1.410   .     A
C934   H1044   1.082   .     S
C935   H950    1.083   .     S
C936   H949    1.080   .     S
C937   H948    1.075   .     S
C937   C939    1.406   .     A
C938   C940    1.406   .     A
C938   H947    1.071   .     S
C939   C941    1.421   .     A
C939   C943    1.427   .     A
C940   C944    1.430   .     A
C940   C942    1.422   .     A
C941   C97     1.402   1_556 S
C943   C116    1.420   1_556 S
Cu945  O960    1.966   .     S
Cu945  O957    1.968   .     S
Cu945  O964    1.930   .     S
Cu945  O961    1.947   .     S
Cu945  Cu946   2.702   .     S
Cu945  N956    2.030   .     S
Cu946  O959    1.966   .     S
Cu946  O963    1.930   .     S
Cu946  O958    1.968   .     S
Cu946  O962    1.947   .     S
Cu946  N955    2.030   .     S
H951   C1025   1.082   .     S
N955   N1048   1.293   .     S
N955   O1089   1.346   .     S
O965   C966    1.407   .     S
O965   C1017   1.385   .     S
C966   C969    1.521   .     S
C966   H967    1.113   .     S
H968   C138    1.109   1_556 S
C969   H972    1.111   .     S
C969   H970    1.109   .     S
C969   H1523   1.111   1_545 S
H971   C1245   1.111   .     S
O973   C974    1.406   .     S
C974   H975    1.109   .     S
C974   C977    1.519   .     S
H976   C1066   1.114   .     S
C977   H980    1.111   .     S
C977   H978    1.110   .     S
C977   H1255   1.110   .     S
H979   C1529   1.110   1_545 S
O981   C982    1.417   .     S
O981   C1479   1.391   1_545 S
C982   H983    1.106   .     S
C982   C985    1.520   .     S
C982   H1536   1.115   1_545 S
H984   C1258   1.115   .     S
C985   H988    1.110   .     S
C985   H987    1.109   .     S
C985   H986    1.110   .     S
O989   C990    1.413   .     S
O989   C1204   1.387   .     S
C990   H991    1.116   .     S
C990   C993    1.519   .     S
C990   H1268   1.114   .     S
H992   C1542   1.114   1_545 S
C993   H994    1.111   .     S
C993   H995    1.111   .     S
C993   H996    1.110   .     S
C998   H999    1.106   .     S
C998   O1089   1.401   .     S
C998   H1092   1.113   .     S
C998   C1093   1.523   .     S
C1001  H1002   1.109   .     S
C1001  H1003   1.108   .     S
C1001  H1004   1.109   .     S
O1005  N1048   1.346   .     S
O1005  C1098   1.398   .     S
C1006  H1007   1.106   .     S
C1006  H1008   1.113   .     S
C1009  H1012   1.111   .     S
C1009  H1010   1.110   .     S
C1009  C1098   1.519   .     S
C1009  H1103   1.109   .     S
C1013  O1049   1.291   .     A
C1013  C1019   1.440   .     S
C1013  O1051   1.296   .     A
C1014  O1050   1.288   .     A
C1014  C1020   1.436   .     S
C1014  O1052   1.298   .     A
C1015  H1045   1.075   .     S
C1015  C1036   1.418   .     A
C1015  C1017   1.394   .     A
C1016  H1046   1.076   .     S
C1016  C1018   1.391   .     A
C1016  C1035   1.416   .     A
C1018  C206    1.401   1_556 S
C1018  O881    1.384   1_655 S
C1019  C1296   1.354   .     S
C1019  O1349   1.391   .     S
C1020  C1571   1.354   1_545 S
C1020  O1633   1.387   1_545 S
C1021  O1055   1.300   .     A
C1021  C1023   1.464   .     S
C1021  O1053   1.304   .     A
C1022  O1054   1.305   .     A
C1022  O1056   1.299   .     A
C1022  C1024   1.466   .     S
C1023  C1027   1.395   .     A
C1023  C1029   1.396   .     A
C1024  C1028   1.393   .     A
C1024  C1030   1.398   .     A
C1025  C1033   1.411   .     A
C1025  C1027   1.391   .     A
C1026  C1028   1.390   .     A
C1026  C1034   1.410   .     A
C1026  H860    1.082   1_655 S
C1027  H1042   1.083   .     S
C1028  H1041   1.080   .     S
C1029  H1040   1.075   .     S
C1029  C1031   1.406   .     A
C1030  C1032   1.406   .     A
C1030  H1039   1.071   .     S
C1031  C1033   1.421   .     A
C1031  C1035   1.427   .     A
C1032  C1036   1.430   .     A
C1032  C1034   1.422   .     A
C1033  C189    1.402   1_556 S
C1035  C208    1.420   1_556 S
Cu1037 O1052   1.966   .     S
Cu1037 O1049   1.968   .     S
Cu1037 O1056   1.930   .     S
Cu1037 O1053   1.947   .     S
Cu1037 Cu1038  2.702   .     S
Cu1037 N1048   2.030   .     S
Cu1038 O1051   1.966   .     S
Cu1038 O1055   1.930   .     S
Cu1038 O1050   1.968   .     S
Cu1038 O1054   1.947   .     S
Cu1038 N1047   2.030   .     S
H1043  C841    1.082   1_655 S
N1047  N864    1.293   1_655 S
N1047  O905    1.346   1_655 S
O1057  C1058   1.407   .     S
O1057  C833    1.385   1_655 S
C1058  C1061   1.521   .     S
C1058  H1059   1.113   .     S
H1060  C230    1.109   1_556 S
C1061  H1064   1.111   .     S
C1061  H1062   1.109   .     S
C1061  H1615   1.111   1_545 S
H1063  C1337   1.111   .     S
O1065  C1066   1.406   .     S
C1066  H1067   1.109   .     S
C1066  C1069   1.519   .     S
H1068  C882    1.114   1_655 S
C1069  H1072   1.111   .     S
C1069  H1070   1.110   .     S
C1069  H1347   1.110   .     S
H1071  C1621   1.110   1_545 S
O1073  C1074   1.417   .     S
O1073  C1571   1.391   1_545 S
C1074  H1075   1.106   .     S
C1074  C1077   1.520   .     S
C1074  H1628   1.115   1_545 S
H1076  C1350   1.115   .     S
C1077  H1080   1.110   .     S
C1077  H1079   1.109   .     S
C1077  H1078   1.110   .     S
O1081  C1082   1.413   .     S
O1081  C1296   1.387   .     S
C1082  H1083   1.116   .     S
C1082  C1085   1.519   .     S
C1082  H1360   1.114   .     S
H1084  C1634   1.114   1_545 S
C1085  H1086   1.111   .     S
C1085  H1087   1.111   .     S
C1085  H1088   1.110   .     S
C1090  H1091   1.106   .     S
C1090  O905    1.401   1_655 S
C1090  H908    1.113   1_655 S
C1090  C909    1.523   1_655 S
C1093  H1094   1.109   .     S
C1093  H1095   1.108   .     S
C1093  H1096   1.109   .     S
O1097  N864    1.346   1_655 S
O1097  C914    1.398   1_655 S
C1098  H1099   1.106   .     S
C1098  H1100   1.113   .     S
C1101  H1104   1.111   .     S
C1101  H1102   1.110   .     S
C1101  C914    1.519   1_655 S
C1101  H919    1.109   1_655 S
C1105  O1141   1.291   .     A
C1105  C1111   1.440   .     S
C1105  O1143   1.296   .     A
C1106  O1142   1.288   .     A
C1106  C1112   1.436   .     S
C1106  O1144   1.298   .     A
C1107  H1137   1.075   .     S
C1107  C1128   1.418   .     A
C1107  C1109   1.394   .     A
C1108  H1138   1.076   .     S
C1108  C1110   1.391   .     A
C1108  C1127   1.416   .     A
C1109  O1333   1.385   1_455 S
C1110  C298    1.401   1_556 S
C1110  O1249   1.384   .     S
C1111  C1388   1.354   .     S
C1111  O1441   1.391   .     S
C1113  O1147   1.300   .     A
C1113  C1115   1.464   .     S
C1113  O1145   1.304   .     A
C1114  O1146   1.305   .     A
C1114  O1148   1.299   .     A
C1114  C1116   1.466   .     S
C1115  C1119   1.395   .     A
C1115  C1121   1.396   .     A
C1116  C1120   1.393   .     A
C1116  C1122   1.398   .     A
C1117  C1125   1.411   .     A
C1117  C1119   1.391   .     A
C1117  H1319   1.082   1_455 S
C1118  C1120   1.390   .     A
C1118  C1126   1.410   .     A
C1118  H1228   1.082   .     S
C1119  H1134   1.083   .     S
C1120  H1133   1.080   .     S
C1121  H1132   1.075   .     S
C1121  C1123   1.406   .     A
C1122  C1124   1.406   .     A
C1122  H1131   1.071   .     S
C1123  C1125   1.421   .     A
C1123  C1127   1.427   .     A
C1124  C1128   1.430   .     A
C1124  C1126   1.422   .     A
C1125  C281    1.402   1_556 S
C1127  C300    1.420   1_556 S
Cu1129 O1144   1.966   .     S
Cu1129 O1141   1.968   .     S
Cu1129 O1148   1.930   .     S
Cu1129 O1145   1.947   .     S
Cu1129 Cu1130  2.702   .     S
Cu1129 N1140   2.030   .     S
Cu1130 O1143   1.966   .     S
Cu1130 O1147   1.930   .     S
Cu1130 O1142   1.968   .     S
Cu1130 O1146   1.947   .     S
Cu1130 N1139   2.030   .     S
H1135  C1209   1.082   .     S
H1136  C1302   1.082   1_455 S
N1139  N1232   1.293   .     S
N1139  O1273   1.346   .     S
N1140  N1323   1.293   1_455 S
N1140  O1373   1.346   1_455 S
O1149  C1150   1.407   .     S
O1149  C1201   1.385   .     S
C1150  C1153   1.521   .     S
C1150  H1151   1.113   .     S
H1152  C322    1.109   1_556 S
C1153  H1156   1.111   .     S
C1153  H1154   1.109   .     S
H1155  C1429   1.111   .     S
O1157  C1158   1.406   .     S
O1157  C1294   1.384   1_455 S
C1158  H1159   1.109   .     S
C1158  C1161   1.519   .     S
C1158  H1344   1.114   1_455 S
H1160  C1250   1.114   .     S
C1161  H1164   1.111   .     S
C1161  H1162   1.110   .     S
C1161  H1439   1.110   .     S
O1165  C1166   1.417   .     S
C1166  H1167   1.106   .     S
C1166  C1169   1.520   .     S
H1168  C1442   1.115   .     S
C1169  H1172   1.110   .     S
C1169  H1171   1.109   .     S
C1169  H1170   1.110   .     S
O1173  C1174   1.413   .     S
O1173  C1388   1.387   .     S
C1174  H1175   1.116   .     S
C1174  C1177   1.519   .     S
C1174  H1452   1.114   .     S
C1177  H1178   1.111   .     S
C1177  H1179   1.111   .     S
C1177  H1180   1.110   .     S
O1181  N1323   1.346   1_455 S
O1181  C1366   1.401   1_455 S
C1182  H1183   1.106   .     S
C1182  O1273   1.401   .     S
C1182  H1276   1.113   .     S
C1182  C1277   1.523   .     S
H1184  C1366   1.113   1_455 S
C1185  H1186   1.109   .     S
C1185  H1187   1.108   .     S
C1185  H1188   1.109   .     S
C1185  C1366   1.523   1_455 S
O1189  N1232   1.346   .     S
O1189  C1282   1.398   .     S
C1190  H1191   1.106   .     S
C1190  H1192   1.113   .     S
C1190  O1373   1.398   1_455 S
C1190  C1377   1.519   1_455 S
C1193  H1196   1.111   .     S
C1193  H1194   1.110   .     S
C1193  C1282   1.519   .     S
C1193  H1287   1.109   .     S
H1195  C1377   1.109   1_455 S
C1197  O1233   1.291   .     A
C1197  C1203   1.440   .     S
C1197  O1235   1.296   .     A
C1198  O1234   1.288   .     A
C1198  C1204   1.436   .     S
C1198  O1236   1.298   .     A
C1199  H1229   1.075   .     S
C1199  C1220   1.418   .     A
C1199  C1201   1.394   .     A
C1200  H1230   1.076   .     S
C1200  C1202   1.391   .     A
C1200  C1219   1.416   .     A
C1202  C390    1.401   1_556 S
C1202  O1341   1.384   .     S
C1203  C1480   1.354   .     S
C1203  O1533   1.391   .     S
C1205  O1239   1.300   .     A
C1205  C1207   1.464   .     S
C1205  O1237   1.304   .     A
C1206  O1238   1.305   .     A
C1206  O1240   1.299   .     A
C1206  C1208   1.466   .     S
C1207  C1211   1.395   .     A
C1207  C1213   1.396   .     A
C1208  C1212   1.393   .     A
C1208  C1214   1.398   .     A
C1209  C1217   1.411   .     A
C1209  C1211   1.391   .     A
C1210  C1212   1.390   .     A
C1210  C1218   1.410   .     A
C1210  H1320   1.082   .     S
C1211  H1226   1.083   .     S
C1212  H1225   1.080   .     S
C1213  H1224   1.075   .     S
C1213  C1215   1.406   .     A
C1214  C1216   1.406   .     A
C1214  H1223   1.071   .     S
C1215  C1217   1.421   .     A
C1215  C1219   1.427   .     A
C1216  C1220   1.430   .     A
C1216  C1218   1.422   .     A
C1217  C373    1.402   1_556 S
C1219  C392    1.420   1_556 S
Cu1221 O1236   1.966   .     S
Cu1221 O1233   1.968   .     S
Cu1221 O1240   1.930   .     S
Cu1221 O1237   1.947   .     S
Cu1221 Cu1222  2.702   .     S
Cu1221 N1232   2.030   .     S
Cu1222 O1235   1.966   .     S
Cu1222 O1239   1.930   .     S
Cu1222 O1234   1.968   .     S
Cu1222 O1238   1.947   .     S
Cu1222 N1231   2.030   .     S
H1227  C1301   1.082   .     S
N1231  N1324   1.293   .     S
N1231  O1365   1.346   .     S
O1241  C1242   1.407   .     S
O1241  C1293   1.385   .     S
C1242  C1245   1.521   .     S
C1242  H1243   1.113   .     S
H1244  C414    1.109   1_556 S
C1245  H1248   1.111   .     S
C1245  H1246   1.109   .     S
H1247  C1521   1.111   .     S
O1249  C1250   1.406   .     S
C1250  H1251   1.109   .     S
C1250  C1253   1.519   .     S
H1252  C1342   1.114   .     S
C1253  H1256   1.111   .     S
C1253  H1254   1.110   .     S
C1253  H1531   1.110   .     S
O1257  C1258   1.417   .     S
C1258  H1259   1.106   .     S
C1258  C1261   1.520   .     S
H1260  C1534   1.115   .     S
C1261  H1264   1.110   .     S
C1261  H1263   1.109   .     S
C1261  H1262   1.110   .     S
O1265  C1266   1.413   .     S
O1265  C1480   1.387   .     S
C1266  H1267   1.116   .     S
C1266  C1269   1.519   .     S
C1266  H1544   1.114   .     S
C1269  H1270   1.111   .     S
C1269  H1271   1.111   .     S
C1269  H1272   1.110   .     S
C1274  H1275   1.106   .     S
C1274  O1365   1.401   .     S
C1274  H1368   1.113   .     S
C1274  C1369   1.523   .     S
C1277  H1278   1.109   .     S
C1277  H1279   1.108   .     S
C1277  H1280   1.109   .     S
O1281  N1324   1.346   .     S
O1281  C1374   1.398   .     S
C1282  H1283   1.106   .     S
C1282  H1284   1.113   .     S
C1285  H1288   1.111   .     S
C1285  H1286   1.110   .     S
C1285  C1374   1.519   .     S
C1285  H1379   1.109   .     S
C1289  O1325   1.291   .     A
C1289  C1295   1.440   .     S
C1289  O1327   1.296   .     A
C1290  O1326   1.288   .     A
C1290  C1296   1.436   .     S
C1290  O1328   1.298   .     A
C1291  H1321   1.075   .     S
C1291  C1312   1.418   .     A
C1291  C1293   1.394   .     A
C1292  H1322   1.076   .     S
C1292  C1294   1.391   .     A
C1292  C1311   1.416   .     A
C1294  C482    1.401   1_556 S
C1294  O1157   1.384   1_655 S
C1295  C1572   1.354   .     S
C1295  O1625   1.391   .     S
C1297  O1331   1.300   .     A
C1297  C1299   1.464   .     S
C1297  O1329   1.304   .     A
C1298  O1330   1.305   .     A
C1298  O1332   1.299   .     A
C1298  C1300   1.466   .     S
C1299  C1303   1.395   .     A
C1299  C1305   1.396   .     A
C1300  C1304   1.393   .     A
C1300  C1306   1.398   .     A
C1301  C1309   1.411   .     A
C1301  C1303   1.391   .     A
C1302  C1304   1.390   .     A
C1302  C1310   1.410   .     A
C1302  H1136   1.082   1_655 S
C1303  H1318   1.083   .     S
C1304  H1317   1.080   .     S
C1305  H1316   1.075   .     S
C1305  C1307   1.406   .     A
C1306  C1308   1.406   .     A
C1306  H1315   1.071   .     S
C1307  C1309   1.421   .     A
C1307  C1311   1.427   .     A
C1308  C1312   1.430   .     A
C1308  C1310   1.422   .     A
C1309  C465    1.402   1_556 S
C1311  C484    1.420   1_556 S
Cu1313 O1328   1.966   .     S
Cu1313 O1325   1.968   .     S
Cu1313 O1332   1.930   .     S
Cu1313 O1329   1.947   .     S
Cu1313 Cu1314  2.702   .     S
Cu1313 N1324   2.030   .     S
Cu1314 O1327   1.966   .     S
Cu1314 O1331   1.930   .     S
Cu1314 O1326   1.968   .     S
Cu1314 O1330   1.947   .     S
Cu1314 N1323   2.030   .     S
H1319  C1117   1.082   1_655 S
N1323  N1140   1.293   1_655 S
N1323  O1181   1.346   1_655 S
O1333  C1334   1.407   .     S
O1333  C1109   1.385   1_655 S
C1334  C1337   1.521   .     S
C1334  H1335   1.113   .     S
H1336  C506    1.109   1_556 S
C1337  H1340   1.111   .     S
C1337  H1338   1.109   .     S
H1339  C1613   1.111   .     S
O1341  C1342   1.406   .     S
C1342  H1343   1.109   .     S
C1342  C1345   1.519   .     S
H1344  C1158   1.114   1_655 S
C1345  H1348   1.111   .     S
C1345  H1346   1.110   .     S
C1345  H1623   1.110   .     S
O1349  C1350   1.417   .     S
C1350  H1351   1.106   .     S
C1350  C1353   1.520   .     S
H1352  C1626   1.115   .     S
C1353  H1356   1.110   .     S
C1353  H1355   1.109   .     S
C1353  H1354   1.110   .     S
O1357  C1358   1.413   .     S
O1357  C1572   1.387   .     S
C1358  H1359   1.116   .     S
C1358  C1361   1.519   .     S
C1358  H1636   1.114   .     S
C1361  H1362   1.111   .     S
C1361  H1363   1.111   .     S
C1361  H1364   1.110   .     S
C1366  H1367   1.106   .     S
C1366  O1181   1.401   1_655 S
C1366  H1184   1.113   1_655 S
C1366  C1185   1.523   1_655 S
C1369  H1370   1.109   .     S
C1369  H1371   1.108   .     S
C1369  H1372   1.109   .     S
O1373  N1140   1.346   1_655 S
O1373  C1190   1.398   1_655 S
C1374  H1375   1.106   .     S
C1374  H1376   1.113   .     S
C1377  H1380   1.111   .     S
C1377  H1378   1.110   .     S
C1377  C1190   1.519   1_655 S
C1377  H1195   1.109   1_655 S
C1381  O1417   1.291   .     A
C1381  C1387   1.440   .     S
C1381  O1419   1.296   .     A
C1382  O1418   1.288   .     A
C1382  C1388   1.436   .     S
C1382  O1420   1.298   .     A
C1383  H1413   1.075   .     S
C1383  C1404   1.418   .     A
C1383  C1385   1.394   .     A
C1384  H1414   1.076   .     S
C1384  C1386   1.391   .     A
C1384  C1403   1.416   .     A
C1385  O1609   1.385   1_455 S
C1386  C574    1.401   1_556 S
C1386  O1525   1.384   .     S
C1387  C836    1.354   1_565 S
C1387  O889    1.391   1_565 S
C1389  O1423   1.300   .     A
C1389  C1391   1.464   .     S
C1389  O1421   1.304   .     A
C1390  O1422   1.305   .     A
C1390  O1424   1.299   .     A
C1390  C1392   1.466   .     S
C1391  C1395   1.395   .     A
C1391  C1397   1.396   .     A
C1392  C1396   1.393   .     A
C1392  C1398   1.398   .     A
C1393  C1401   1.411   .     A
C1393  C1395   1.391   .     A
C1393  H1595   1.082   1_455 S
C1394  C1396   1.390   .     A
C1394  C1402   1.410   .     A
C1394  H1504   1.082   .     S
C1395  H1410   1.083   .     S
C1396  H1409   1.080   .     S
C1397  H1408   1.075   .     S
C1397  C1399   1.406   .     A
C1398  C1400   1.406   .     A
C1398  H1407   1.071   .     S
C1399  C1401   1.421   .     A
C1399  C1403   1.427   .     A
C1400  C1404   1.430   .     A
C1400  C1402   1.422   .     A
C1401  C557    1.402   1_556 S
C1403  C576    1.420   1_556 S
Cu1405 O1420   1.966   .     S
Cu1405 O1417   1.968   .     S
Cu1405 O1424   1.930   .     S
Cu1405 O1421   1.947   .     S
Cu1405 Cu1406  2.702   .     S
Cu1405 N1416   2.030   .     S
Cu1406 O1419   1.966   .     S
Cu1406 O1423   1.930   .     S
Cu1406 O1418   1.968   .     S
Cu1406 O1422   1.947   .     S
Cu1406 N1415   2.030   .     S
H1411  C1485   1.082   .     S
H1412  C1578   1.082   1_455 S
N1415  N1508   1.293   .     S
N1415  O1549   1.346   .     S
N1416  N1599   1.293   1_455 S
N1416  O1649   1.346   1_455 S
O1425  C1426   1.407   .     S
O1425  C1477   1.385   .     S
C1426  C1429   1.521   .     S
C1426  H1427   1.113   .     S
H1428  C598    1.109   1_556 S
C1429  H1432   1.111   .     S
C1429  H1430   1.109   .     S
H1431  C877    1.111   1_565 S
O1433  C1434   1.406   .     S
O1433  C1570   1.384   1_455 S
C1434  H1435   1.109   .     S
C1434  C1437   1.519   .     S
C1434  H1620   1.114   1_455 S
H1436  C1526   1.114   .     S
C1437  H1440   1.111   .     S
C1437  H1438   1.110   .     S
C1437  H887    1.110   1_565 S
O1441  C1442   1.417   .     S
C1442  H1443   1.106   .     S
C1442  C1445   1.520   .     S
H1444  C890    1.115   1_565 S
C1445  H1448   1.110   .     S
C1445  H1447   1.109   .     S
C1445  H1446   1.110   .     S
O1449  C1450   1.413   .     S
O1449  C836    1.387   1_565 S
C1450  H1451   1.116   .     S
C1450  C1453   1.519   .     S
C1450  H900    1.114   1_565 S
C1453  H1454   1.111   .     S
C1453  H1455   1.111   .     S
C1453  H1456   1.110   .     S
O1457  N1599   1.346   1_455 S
O1457  C1642   1.401   1_455 S
C1458  H1459   1.106   .     S
C1458  O1549   1.401   .     S
C1458  H1552   1.113   .     S
C1458  C1553   1.523   .     S
H1460  C1642   1.113   1_455 S
C1461  H1462   1.109   .     S
C1461  H1463   1.108   .     S
C1461  H1464   1.109   .     S
C1461  C1642   1.523   1_455 S
O1465  N1508   1.346   .     S
O1465  C1558   1.398   .     S
C1466  H1467   1.106   .     S
C1466  H1468   1.113   .     S
C1466  O1649   1.398   1_455 S
C1466  C1653   1.519   1_455 S
C1469  H1472   1.111   .     S
C1469  H1470   1.110   .     S
C1469  C1558   1.519   .     S
C1469  H1563   1.109   .     S
H1471  C1653   1.109   1_455 S
C1473  O1509   1.291   .     A
C1473  C1479   1.440   .     S
C1473  O1511   1.296   .     A
C1474  O1510   1.288   .     A
C1474  C1480   1.436   .     S
C1474  O1512   1.298   .     A
C1475  H1505   1.075   .     S
C1475  C1496   1.418   .     A
C1475  C1477   1.394   .     A
C1476  H1506   1.076   .     S
C1476  C1478   1.391   .     A
C1476  C1495   1.416   .     A
C1478  C666    1.401   1_556 S
C1478  O1617   1.384   .     S
C1479  C928    1.354   1_565 S
C1479  O981    1.391   1_565 S
C1481  O1515   1.300   .     A
C1481  C1483   1.464   .     S
C1481  O1513   1.304   .     A
C1482  O1514   1.305   .     A
C1482  O1516   1.299   .     A
C1482  C1484   1.466   .     S
C1483  C1487   1.395   .     A
C1483  C1489   1.396   .     A
C1484  C1488   1.393   .     A
C1484  C1490   1.398   .     A
C1485  C1493   1.411   .     A
C1485  C1487   1.391   .     A
C1486  C1488   1.390   .     A
C1486  C1494   1.410   .     A
C1486  H1596   1.082   .     S
C1487  H1502   1.083   .     S
C1488  H1501   1.080   .     S
C1489  H1500   1.075   .     S
C1489  C1491   1.406   .     A
C1490  C1492   1.406   .     A
C1490  H1499   1.071   .     S
C1491  C1493   1.421   .     A
C1491  C1495   1.427   .     A
C1492  C1496   1.430   .     A
C1492  C1494   1.422   .     A
C1493  C649    1.402   1_556 S
C1495  C668    1.420   1_556 S
Cu1497 O1512   1.966   .     S
Cu1497 O1509   1.968   .     S
Cu1497 O1516   1.930   .     S
Cu1497 O1513   1.947   .     S
Cu1497 Cu1498  2.702   .     S
Cu1497 N1508   2.030   .     S
Cu1498 O1511   1.966   .     S
Cu1498 O1515   1.930   .     S
Cu1498 O1510   1.968   .     S
Cu1498 O1514   1.947   .     S
Cu1498 N1507   2.030   .     S
H1503  C1577   1.082   .     S
N1507  N1600   1.293   .     S
N1507  O1641   1.346   .     S
O1517  C1518   1.407   .     S
O1517  C1569   1.385   .     S
C1518  C1521   1.521   .     S
C1518  H1519   1.113   .     S
H1520  C690    1.109   1_556 S
C1521  H1524   1.111   .     S
C1521  H1522   1.109   .     S
H1523  C969    1.111   1_565 S
O1525  C1526   1.406   .     S
C1526  H1527   1.109   .     S
C1526  C1529   1.519   .     S
H1528  C1618   1.114   .     S
C1529  H1532   1.111   .     S
C1529  H1530   1.110   .     S
C1529  H979    1.110   1_565 S
O1533  C1534   1.417   .     S
C1534  H1535   1.106   .     S
C1534  C1537   1.520   .     S
H1536  C982    1.115   1_565 S
C1537  H1540   1.110   .     S
C1537  H1539   1.109   .     S
C1537  H1538   1.110   .     S
O1541  C1542   1.413   .     S
O1541  C928    1.387   1_565 S
C1542  H1543   1.116   .     S
C1542  C1545   1.519   .     S
C1542  H992    1.114   1_565 S
C1545  H1546   1.111   .     S
C1545  H1547   1.111   .     S
C1545  H1548   1.110   .     S
C1550  H1551   1.106   .     S
C1550  O1641   1.401   .     S
C1550  H1644   1.113   .     S
C1550  C1645   1.523   .     S
C1553  H1554   1.109   .     S
C1553  H1555   1.108   .     S
C1553  H1556   1.109   .     S
O1557  N1600   1.346   .     S
O1557  C1650   1.398   .     S
C1558  H1559   1.106   .     S
C1558  H1560   1.113   .     S
C1561  H1564   1.111   .     S
C1561  H1562   1.110   .     S
C1561  C1650   1.519   .     S
C1561  H1655   1.109   .     S
C1565  O1601   1.291   .     A
C1565  C1571   1.440   .     S
C1565  O1603   1.296   .     A
C1566  O1602   1.288   .     A
C1566  C1572   1.436   .     S
C1566  O1604   1.298   .     A
C1567  H1597   1.075   .     S
C1567  C1588   1.418   .     A
C1567  C1569   1.394   .     A
C1568  H1598   1.076   .     S
C1568  C1570   1.391   .     A
C1568  C1587   1.416   .     A
C1570  C758    1.401   1_556 S
C1570  O1433   1.384   1_655 S
C1571  C1020   1.354   1_565 S
C1571  O1073   1.391   1_565 S
C1573  O1607   1.300   .     A
C1573  C1575   1.464   .     S
C1573  O1605   1.304   .     A
C1574  O1606   1.305   .     A
C1574  O1608   1.299   .     A
C1574  C1576   1.466   .     S
C1575  C1579   1.395   .     A
C1575  C1581   1.396   .     A
C1576  C1580   1.393   .     A
C1576  C1582   1.398   .     A
C1577  C1585   1.411   .     A
C1577  C1579   1.391   .     A
C1578  C1580   1.390   .     A
C1578  C1586   1.410   .     A
C1578  H1412   1.082   1_655 S
C1579  H1594   1.083   .     S
C1580  H1593   1.080   .     S
C1581  H1592   1.075   .     S
C1581  C1583   1.406   .     A
C1582  C1584   1.406   .     A
C1582  H1591   1.071   .     S
C1583  C1585   1.421   .     A
C1583  C1587   1.427   .     A
C1584  C1588   1.430   .     A
C1584  C1586   1.422   .     A
C1585  C741    1.402   1_556 S
C1587  C760    1.420   1_556 S
Cu1589 O1604   1.966   .     S
Cu1589 O1601   1.968   .     S
Cu1589 O1608   1.930   .     S
Cu1589 O1605   1.947   .     S
Cu1589 Cu1590  2.702   .     S
Cu1589 N1600   2.030   .     S
Cu1590 O1603   1.966   .     S
Cu1590 O1607   1.930   .     S
Cu1590 O1602   1.968   .     S
Cu1590 O1606   1.947   .     S
Cu1590 N1599   2.030   .     S
H1595  C1393   1.082   1_655 S
N1599  N1416   1.293   1_655 S
N1599  O1457   1.346   1_655 S
O1609  C1610   1.407   .     S
O1609  C1385   1.385   1_655 S
C1610  C1613   1.521   .     S
C1610  H1611   1.113   .     S
H1612  C782    1.109   1_556 S
C1613  H1616   1.111   .     S
C1613  H1614   1.109   .     S
H1615  C1061   1.111   1_565 S
O1617  C1618   1.406   .     S
C1618  H1619   1.109   .     S
C1618  C1621   1.519   .     S
H1620  C1434   1.114   1_655 S
C1621  H1624   1.111   .     S
C1621  H1622   1.110   .     S
C1621  H1071   1.110   1_565 S
O1625  C1626   1.417   .     S
C1626  H1627   1.106   .     S
C1626  C1629   1.520   .     S
H1628  C1074   1.115   1_565 S
C1629  H1632   1.110   .     S
C1629  H1631   1.109   .     S
C1629  H1630   1.110   .     S
O1633  C1634   1.413   .     S
O1633  C1020   1.387   1_565 S
C1634  H1635   1.116   .     S
C1634  C1637   1.519   .     S
C1634  H1084   1.114   1_565 S
C1637  H1638   1.111   .     S
C1637  H1639   1.111   .     S
C1637  H1640   1.110   .     S
C1642  H1643   1.106   .     S
C1642  O1457   1.401   1_655 S
C1642  H1460   1.113   1_655 S
C1642  C1461   1.523   1_655 S
C1645  H1646   1.109   .     S
C1645  H1647   1.108   .     S
C1645  H1648   1.109   .     S
O1649  N1416   1.346   1_655 S
O1649  C1466   1.398   1_655 S
C1650  H1651   1.106   .     S
C1650  H1652   1.113   .     S
C1653  H1656   1.111   .     S
C1653  H1654   1.110   .     S
C1653  C1466   1.519   1_655 S
C1653  H1471   1.109   1_655 S
