data_str_m2_o1_o2_pcu_sym.135
_audit_creation_date              2020-01-03
_audit_creation_method            'Materials Studio'
_symmetry_space_group_name_H-M    'P1'
_symmetry_Int_Tables_number       1
_symmetry_cell_setting            triclinic
loop_
_symmetry_equiv_pos_as_xyz
  x,y,z
_cell_length_a                    32.5161
_cell_length_b                    28.9778
_cell_length_c                    30.1599
_cell_angle_alpha                 90.4878
_cell_angle_beta                  93.1535
_cell_angle_gamma                 90.0753
loop_
_atom_site_label
_atom_site_type_symbol
_atom_site_fract_x
_atom_site_fract_y
_atom_site_fract_z
_atom_site_U_iso_or_equiv
_atom_site_adp_type
_atom_site_occupancy
C1     C     0.08751   0.16661   0.25040   0.00000  Uiso   1.00
C2     C     0.24582   0.16662   0.24955   0.00000  Uiso   1.00
C3     C     0.16625   0.16659   0.16527   0.00000  Uiso   1.00
C4     C     0.16566   0.16688   0.33497   0.00000  Uiso   1.00
C5     C     0.14307   0.02429   0.21900   0.00000  Uiso   1.00
C6     C     0.19311   0.30918   0.27834   0.00000  Uiso   1.00
C7     C     0.19101   0.02499   0.28028   0.00000  Uiso   1.00
C8     C     0.14220   0.30831   0.21977   0.00000  Uiso   1.00
C9     C     0.02124   0.12446   0.24992   0.00000  Uiso   1.00
C10    C     0.31209   0.20811   0.24938   0.00000  Uiso   1.00
C11    C     0.31195   0.12444   0.24904   0.00000  Uiso   1.00
C12    C     0.02130   0.20817   0.25151   0.00000  Uiso   1.00
C13    C     0.19490   0.18925   0.04922   0.00000  Uiso   1.00
C14    C     0.15232   0.12742   0.45199   0.00000  Uiso   1.00
C15    C     0.16900   0.20900   0.45357   0.00000  Uiso   1.00
C16    C     0.13019   0.14708   0.04685   0.00000  Uiso   1.00
C17    C     0.19633   0.18867   0.09539   0.00000  Uiso   1.00
C18    C     0.15327   0.12715   0.40592   0.00000  Uiso   1.00
C19    C     0.16970   0.20877   0.40755   0.00000  Uiso   1.00
C20    C     0.13157   0.14681   0.09302   0.00000  Uiso   1.00
C21    C     0.16500   0.16677   0.11722   0.00000  Uiso   1.00
C22    C     0.16305   0.16754   0.38339   0.00000  Uiso   1.00
C23    C     0.16195   0.16816   0.02471   0.00000  Uiso   1.00
C24    C     0.16087   0.16821   0.47608   0.00000  Uiso   1.00
C25    C     0.29048   0.16636   0.24910   0.00000  Uiso   1.00
C26    C     0.04282   0.16640   0.25083   0.00000  Uiso   1.00
Cu27   Cu    0.16667   0.21355   0.25000   0.00000  Uiso   1.00
Cu28   Cu    0.16667   0.11978   0.25000   0.00000  Uiso   1.00
H29    H     0.21974   0.20557   0.03264   0.00000  Uiso   1.00
H30    H     0.14567   0.09565   0.46887   0.00000  Uiso   1.00
H31    H     0.17468   0.24107   0.47162   0.00000  Uiso   1.00
H32    H     0.10408   0.13160   0.02844   0.00000  Uiso   1.00
H33    H     0.22198   0.20480   0.11407   0.00000  Uiso   1.00
H34    H     0.14613   0.09541   0.38799   0.00000  Uiso   1.00
H35    H     0.17561   0.24089   0.39113   0.00000  Uiso   1.00
H36    H     0.10619   0.13214   0.10992   0.00000  Uiso   1.00
H37    H     0.03713   0.09167   0.25002   0.00000  Uiso   1.00
H38    H     0.29621   0.24072   0.24781   0.00000  Uiso   1.00
H39    H     0.29598   0.09163   0.24813   0.00000  Uiso   1.00
H40    H     0.03713   0.24097   0.25372   0.00000  Uiso   1.00
N41    N     0.16667   0.28402   0.25000   0.00000  Uiso   1.00
N42    N     0.16667   0.04931   0.25000   0.00000  Uiso   1.00
O43    O     0.10655   0.20625   0.24999   0.00000  Uiso   1.00
O44    O     0.22679   0.12709   0.25001   0.00000  Uiso   1.00
O45    O     0.22679   0.20625   0.25000   0.00000  Uiso   1.00
O46    O     0.10655   0.12709   0.24999   0.00000  Uiso   1.00
O47    O     0.16666   0.20626   0.18573   0.00000  Uiso   1.00
O48    O     0.16667   0.12707   0.31427   0.00000  Uiso   1.00
O49    O     0.16667   0.20626   0.31427   0.00000  Uiso   1.00
O50    O     0.16666   0.12707   0.18573   0.00000  Uiso   1.00
C51    C     0.11987   0.04743   0.18217   0.00000  Uiso   1.00
O52    O     0.08658   0.06521   0.18801   0.00000  Uiso   1.00
O53    O     0.13417   0.04376   0.13943   0.00000  Uiso   1.00
H54    H     0.11295   0.05382   0.11565   0.00000  Uiso   1.00
C55    C     0.22883   0.28755   0.30278   0.00000  Uiso   1.00
O56    O     0.22415   0.26105   0.33319   0.00000  Uiso   1.00
O57    O     0.26847   0.30247   0.29415   0.00000  Uiso   1.00
H58    H     0.29050   0.28822   0.31483   0.00000  Uiso   1.00
C59    C     0.21445   0.04862   0.31728   0.00000  Uiso   1.00
O60    O     0.24631   0.06917   0.31086   0.00000  Uiso   1.00
O61    O     0.20239   0.04245   0.36057   0.00000  Uiso   1.00
H62    H     0.22161   0.05836   0.38351   0.00000  Uiso   1.00
C63    C     0.11616   0.28392   0.18537   0.00000  Uiso   1.00
O64    O     0.12925   0.27701   0.14866   0.00000  Uiso   1.00
O65    O     0.07521   0.27402   0.19301   0.00000  Uiso   1.00
H66    H     0.06012   0.25869   0.16648   0.00000  Uiso   1.00
C67    C     0.42084   0.16661   0.25040   0.00000  Uiso   1.00
C68    C     0.57915   0.16662   0.24955   0.00000  Uiso   1.00
C69    C     0.49958   0.16659   0.16527   0.00000  Uiso   1.00
C70    C     0.49899   0.16688   0.33497   0.00000  Uiso   1.00
C71    C     0.47641   0.02429   0.21900   0.00000  Uiso   1.00
C72    C     0.52645   0.30918   0.27834   0.00000  Uiso   1.00
C73    C     0.52435   0.02499   0.28028   0.00000  Uiso   1.00
C74    C     0.47553   0.30831   0.21977   0.00000  Uiso   1.00
C75    C     0.35458   0.12446   0.24992   0.00000  Uiso   1.00
C76    C     0.64542   0.20811   0.24938   0.00000  Uiso   1.00
C77    C     0.64529   0.12444   0.24904   0.00000  Uiso   1.00
C78    C     0.35464   0.20817   0.25151   0.00000  Uiso   1.00
C79    C     0.52823   0.18925   0.04922   0.00000  Uiso   1.00
C80    C     0.48566   0.12742   0.45199   0.00000  Uiso   1.00
C81    C     0.50234   0.20900   0.45357   0.00000  Uiso   1.00
C82    C     0.46352   0.14708   0.04685   0.00000  Uiso   1.00
C83    C     0.52966   0.18867   0.09539   0.00000  Uiso   1.00
C84    C     0.48660   0.12715   0.40592   0.00000  Uiso   1.00
C85    C     0.50303   0.20877   0.40755   0.00000  Uiso   1.00
C86    C     0.46491   0.14681   0.09302   0.00000  Uiso   1.00
C87    C     0.49833   0.16677   0.11722   0.00000  Uiso   1.00
C88    C     0.49638   0.16754   0.38339   0.00000  Uiso   1.00
C89    C     0.49529   0.16816   0.02471   0.00000  Uiso   1.00
C90    C     0.49421   0.16821   0.47608   0.00000  Uiso   1.00
C91    C     0.62382   0.16636   0.24910   0.00000  Uiso   1.00
C92    C     0.37616   0.16640   0.25083   0.00000  Uiso   1.00
Cu93   Cu    0.50000   0.21355   0.25000   0.00000  Uiso   1.00
Cu94   Cu    0.50000   0.11978   0.25000   0.00000  Uiso   1.00
H95    H     0.55307   0.20557   0.03264   0.00000  Uiso   1.00
H96    H     0.47901   0.09565   0.46887   0.00000  Uiso   1.00
H97    H     0.50801   0.24107   0.47162   0.00000  Uiso   1.00
H98    H     0.43742   0.13160   0.02844   0.00000  Uiso   1.00
H99    H     0.55531   0.20480   0.11407   0.00000  Uiso   1.00
H100   H     0.47946   0.09541   0.38799   0.00000  Uiso   1.00
H101   H     0.50894   0.24089   0.39113   0.00000  Uiso   1.00
H102   H     0.43952   0.13214   0.10992   0.00000  Uiso   1.00
H103   H     0.37046   0.09167   0.25002   0.00000  Uiso   1.00
H104   H     0.62954   0.24072   0.24781   0.00000  Uiso   1.00
H105   H     0.62932   0.09163   0.24813   0.00000  Uiso   1.00
H106   H     0.37047   0.24097   0.25372   0.00000  Uiso   1.00
N107   N     0.50000   0.28402   0.25000   0.00000  Uiso   1.00
N108   N     0.50000   0.04931   0.25000   0.00000  Uiso   1.00
O109   O     0.43988   0.20625   0.24999   0.00000  Uiso   1.00
O110   O     0.56012   0.12709   0.25001   0.00000  Uiso   1.00
O111   O     0.56012   0.20625   0.25000   0.00000  Uiso   1.00
O112   O     0.43988   0.12709   0.24999   0.00000  Uiso   1.00
O113   O     0.50000   0.20626   0.18573   0.00000  Uiso   1.00
O114   O     0.50000   0.12707   0.31427   0.00000  Uiso   1.00
O115   O     0.50000   0.20626   0.31427   0.00000  Uiso   1.00
O116   O     0.50000   0.12707   0.18573   0.00000  Uiso   1.00
C117   C     0.45321   0.04743   0.18217   0.00000  Uiso   1.00
O118   O     0.41992   0.06521   0.18801   0.00000  Uiso   1.00
O119   O     0.46750   0.04376   0.13943   0.00000  Uiso   1.00
H120   H     0.44628   0.05382   0.11565   0.00000  Uiso   1.00
C121   C     0.56216   0.28755   0.30278   0.00000  Uiso   1.00
O122   O     0.55748   0.26105   0.33319   0.00000  Uiso   1.00
O123   O     0.60181   0.30247   0.29415   0.00000  Uiso   1.00
H124   H     0.62383   0.28822   0.31483   0.00000  Uiso   1.00
C125   C     0.54778   0.04862   0.31728   0.00000  Uiso   1.00
O126   O     0.57964   0.06917   0.31086   0.00000  Uiso   1.00
O127   O     0.53573   0.04245   0.36057   0.00000  Uiso   1.00
H128   H     0.55495   0.05836   0.38351   0.00000  Uiso   1.00
C129   C     0.44949   0.28392   0.18537   0.00000  Uiso   1.00
O130   O     0.46259   0.27701   0.14866   0.00000  Uiso   1.00
O131   O     0.40854   0.27402   0.19301   0.00000  Uiso   1.00
H132   H     0.39346   0.25869   0.16648   0.00000  Uiso   1.00
C133   C     0.75417   0.16661   0.25040   0.00000  Uiso   1.00
C134   C     0.91248   0.16662   0.24955   0.00000  Uiso   1.00
C135   C     0.83292   0.16659   0.16527   0.00000  Uiso   1.00
C136   C     0.83233   0.16688   0.33497   0.00000  Uiso   1.00
C137   C     0.80974   0.02429   0.21900   0.00000  Uiso   1.00
C138   C     0.85978   0.30918   0.27834   0.00000  Uiso   1.00
C139   C     0.85768   0.02499   0.28028   0.00000  Uiso   1.00
C140   C     0.80886   0.30831   0.21977   0.00000  Uiso   1.00
C141   C     0.68791   0.12446   0.24992   0.00000  Uiso   1.00
C142   C     0.97875   0.20811   0.24938   0.00000  Uiso   1.00
C143   C     0.97862   0.12444   0.24904   0.00000  Uiso   1.00
C144   C     0.68797   0.20817   0.25151   0.00000  Uiso   1.00
C145   C     0.86157   0.18925   0.04922   0.00000  Uiso   1.00
C146   C     0.81899   0.12742   0.45199   0.00000  Uiso   1.00
C147   C     0.83567   0.20900   0.45357   0.00000  Uiso   1.00
C148   C     0.79686   0.14708   0.04685   0.00000  Uiso   1.00
C149   C     0.86300   0.18867   0.09539   0.00000  Uiso   1.00
C150   C     0.81993   0.12715   0.40592   0.00000  Uiso   1.00
C151   C     0.83636   0.20877   0.40755   0.00000  Uiso   1.00
C152   C     0.79824   0.14681   0.09302   0.00000  Uiso   1.00
C153   C     0.83166   0.16677   0.11722   0.00000  Uiso   1.00
C154   C     0.82971   0.16754   0.38339   0.00000  Uiso   1.00
C155   C     0.82862   0.16816   0.02471   0.00000  Uiso   1.00
C156   C     0.82754   0.16821   0.47608   0.00000  Uiso   1.00
C157   C     0.95715   0.16636   0.24910   0.00000  Uiso   1.00
C158   C     0.70949   0.16640   0.25083   0.00000  Uiso   1.00
Cu159  Cu    0.83333   0.21355   0.25000   0.00000  Uiso   1.00
Cu160  Cu    0.83333   0.11978   0.25000   0.00000  Uiso   1.00
H161   H     0.88640   0.20557   0.03264   0.00000  Uiso   1.00
H162   H     0.81234   0.09565   0.46887   0.00000  Uiso   1.00
H163   H     0.84135   0.24107   0.47162   0.00000  Uiso   1.00
H164   H     0.77075   0.13160   0.02844   0.00000  Uiso   1.00
H165   H     0.88865   0.20480   0.11407   0.00000  Uiso   1.00
H166   H     0.81280   0.09541   0.38799   0.00000  Uiso   1.00
H167   H     0.84227   0.24089   0.39113   0.00000  Uiso   1.00
H168   H     0.77285   0.13214   0.10992   0.00000  Uiso   1.00
H169   H     0.70379   0.09167   0.25002   0.00000  Uiso   1.00
H170   H     0.96287   0.24072   0.24781   0.00000  Uiso   1.00
H171   H     0.96265   0.09163   0.24813   0.00000  Uiso   1.00
H172   H     0.70380   0.24097   0.25372   0.00000  Uiso   1.00
N173   N     0.83333   0.28402   0.25000   0.00000  Uiso   1.00
N174   N     0.83333   0.04931   0.25000   0.00000  Uiso   1.00
O175   O     0.77321   0.20625   0.24999   0.00000  Uiso   1.00
O176   O     0.89345   0.12709   0.25001   0.00000  Uiso   1.00
O177   O     0.89345   0.20625   0.25000   0.00000  Uiso   1.00
O178   O     0.77321   0.12709   0.24999   0.00000  Uiso   1.00
O179   O     0.83333   0.20626   0.18573   0.00000  Uiso   1.00
O180   O     0.83334   0.12707   0.31427   0.00000  Uiso   1.00
O181   O     0.83334   0.20626   0.31427   0.00000  Uiso   1.00
O182   O     0.83333   0.12707   0.18573   0.00000  Uiso   1.00
C183   C     0.78654   0.04743   0.18217   0.00000  Uiso   1.00
O184   O     0.75325   0.06521   0.18801   0.00000  Uiso   1.00
O185   O     0.80084   0.04376   0.13943   0.00000  Uiso   1.00
H186   H     0.77961   0.05382   0.11565   0.00000  Uiso   1.00
C187   C     0.89550   0.28755   0.30278   0.00000  Uiso   1.00
O188   O     0.89082   0.26105   0.33319   0.00000  Uiso   1.00
O189   O     0.93514   0.30247   0.29415   0.00000  Uiso   1.00
H190   H     0.95716   0.28822   0.31483   0.00000  Uiso   1.00
C191   C     0.88112   0.04862   0.31728   0.00000  Uiso   1.00
O192   O     0.91298   0.06917   0.31086   0.00000  Uiso   1.00
O193   O     0.86906   0.04245   0.36057   0.00000  Uiso   1.00
H194   H     0.88828   0.05836   0.38351   0.00000  Uiso   1.00
C195   C     0.78282   0.28392   0.18537   0.00000  Uiso   1.00
O196   O     0.79592   0.27701   0.14866   0.00000  Uiso   1.00
O197   O     0.74187   0.27402   0.19301   0.00000  Uiso   1.00
H198   H     0.72679   0.25869   0.16648   0.00000  Uiso   1.00
C199   C     0.08751   0.49994   0.25040   0.00000  Uiso   1.00
C200   C     0.24582   0.49995   0.24955   0.00000  Uiso   1.00
C201   C     0.16625   0.49992   0.16527   0.00000  Uiso   1.00
C202   C     0.16566   0.50021   0.33497   0.00000  Uiso   1.00
C203   C     0.14307   0.35763   0.21900   0.00000  Uiso   1.00
C204   C     0.19311   0.64251   0.27834   0.00000  Uiso   1.00
C205   C     0.19101   0.35832   0.28028   0.00000  Uiso   1.00
C206   C     0.14220   0.64164   0.21977   0.00000  Uiso   1.00
C207   C     0.02124   0.45779   0.24992   0.00000  Uiso   1.00
C208   C     0.31209   0.54144   0.24938   0.00000  Uiso   1.00
C209   C     0.31195   0.45777   0.24904   0.00000  Uiso   1.00
C210   C     0.02130   0.54150   0.25151   0.00000  Uiso   1.00
C211   C     0.19490   0.52259   0.04922   0.00000  Uiso   1.00
C212   C     0.15232   0.46076   0.45199   0.00000  Uiso   1.00
C213   C     0.16900   0.54234   0.45357   0.00000  Uiso   1.00
C214   C     0.13019   0.48041   0.04685   0.00000  Uiso   1.00
C215   C     0.19633   0.52200   0.09539   0.00000  Uiso   1.00
C216   C     0.15327   0.46048   0.40592   0.00000  Uiso   1.00
C217   C     0.16970   0.54210   0.40755   0.00000  Uiso   1.00
C218   C     0.13157   0.48015   0.09302   0.00000  Uiso   1.00
C219   C     0.16500   0.50010   0.11722   0.00000  Uiso   1.00
C220   C     0.16305   0.50088   0.38339   0.00000  Uiso   1.00
C221   C     0.16195   0.50150   0.02471   0.00000  Uiso   1.00
C222   C     0.16087   0.50155   0.47608   0.00000  Uiso   1.00
C223   C     0.29048   0.49969   0.24910   0.00000  Uiso   1.00
C224   C     0.04282   0.49973   0.25083   0.00000  Uiso   1.00
Cu225  Cu    0.16667   0.54689   0.25000   0.00000  Uiso   1.00
Cu226  Cu    0.16667   0.45311   0.25000   0.00000  Uiso   1.00
H227   H     0.21974   0.53890   0.03264   0.00000  Uiso   1.00
H228   H     0.14567   0.42898   0.46887   0.00000  Uiso   1.00
H229   H     0.17468   0.57440   0.47162   0.00000  Uiso   1.00
H230   H     0.10408   0.46493   0.02844   0.00000  Uiso   1.00
H231   H     0.22198   0.53813   0.11407   0.00000  Uiso   1.00
H232   H     0.14613   0.42874   0.38799   0.00000  Uiso   1.00
H233   H     0.17561   0.57423   0.39113   0.00000  Uiso   1.00
H234   H     0.10619   0.46547   0.10992   0.00000  Uiso   1.00
H235   H     0.03713   0.42500   0.25002   0.00000  Uiso   1.00
H236   H     0.29621   0.57406   0.24781   0.00000  Uiso   1.00
H237   H     0.29598   0.42496   0.24813   0.00000  Uiso   1.00
H238   H     0.03713   0.57430   0.25372   0.00000  Uiso   1.00
N239   N     0.16667   0.61736   0.25000   0.00000  Uiso   1.00
N240   N     0.16667   0.38264   0.25000   0.00000  Uiso   1.00
O241   O     0.10655   0.53958   0.24999   0.00000  Uiso   1.00
O242   O     0.22679   0.46042   0.25001   0.00000  Uiso   1.00
O243   O     0.22679   0.53958   0.25000   0.00000  Uiso   1.00
O244   O     0.10655   0.46042   0.24999   0.00000  Uiso   1.00
O245   O     0.16666   0.53959   0.18573   0.00000  Uiso   1.00
O246   O     0.16667   0.46041   0.31427   0.00000  Uiso   1.00
O247   O     0.16667   0.53959   0.31427   0.00000  Uiso   1.00
O248   O     0.16666   0.46041   0.18573   0.00000  Uiso   1.00
C249   C     0.11987   0.38076   0.18217   0.00000  Uiso   1.00
O250   O     0.08658   0.39854   0.18801   0.00000  Uiso   1.00
O251   O     0.13417   0.37709   0.13943   0.00000  Uiso   1.00
H252   H     0.11295   0.38715   0.11565   0.00000  Uiso   1.00
C253   C     0.22883   0.62088   0.30278   0.00000  Uiso   1.00
O254   O     0.22415   0.59438   0.33319   0.00000  Uiso   1.00
O255   O     0.26847   0.63580   0.29415   0.00000  Uiso   1.00
H256   H     0.29050   0.62155   0.31483   0.00000  Uiso   1.00
C257   C     0.21445   0.38196   0.31728   0.00000  Uiso   1.00
O258   O     0.24631   0.40250   0.31086   0.00000  Uiso   1.00
O259   O     0.20239   0.37578   0.36057   0.00000  Uiso   1.00
H260   H     0.22161   0.39169   0.38351   0.00000  Uiso   1.00
C261   C     0.11616   0.61725   0.18537   0.00000  Uiso   1.00
O262   O     0.12925   0.61035   0.14866   0.00000  Uiso   1.00
O263   O     0.07521   0.60736   0.19301   0.00000  Uiso   1.00
H264   H     0.06012   0.59202   0.16648   0.00000  Uiso   1.00
C265   C     0.42084   0.49994   0.25040   0.00000  Uiso   1.00
C266   C     0.57915   0.49995   0.24955   0.00000  Uiso   1.00
C267   C     0.49958   0.49992   0.16527   0.00000  Uiso   1.00
C268   C     0.49899   0.50021   0.33497   0.00000  Uiso   1.00
C269   C     0.47641   0.35763   0.21900   0.00000  Uiso   1.00
C270   C     0.52645   0.64251   0.27834   0.00000  Uiso   1.00
C271   C     0.52435   0.35832   0.28028   0.00000  Uiso   1.00
C272   C     0.47553   0.64164   0.21977   0.00000  Uiso   1.00
C273   C     0.35458   0.45779   0.24992   0.00000  Uiso   1.00
C274   C     0.64542   0.54144   0.24938   0.00000  Uiso   1.00
C275   C     0.64529   0.45777   0.24904   0.00000  Uiso   1.00
C276   C     0.35464   0.54150   0.25151   0.00000  Uiso   1.00
C277   C     0.52823   0.52259   0.04922   0.00000  Uiso   1.00
C278   C     0.48566   0.46076   0.45199   0.00000  Uiso   1.00
C279   C     0.50234   0.54234   0.45357   0.00000  Uiso   1.00
C280   C     0.46352   0.48041   0.04685   0.00000  Uiso   1.00
C281   C     0.52966   0.52200   0.09539   0.00000  Uiso   1.00
C282   C     0.48660   0.46048   0.40592   0.00000  Uiso   1.00
C283   C     0.50303   0.54210   0.40755   0.00000  Uiso   1.00
C284   C     0.46491   0.48015   0.09302   0.00000  Uiso   1.00
C285   C     0.49833   0.50010   0.11722   0.00000  Uiso   1.00
C286   C     0.49638   0.50088   0.38339   0.00000  Uiso   1.00
C287   C     0.49529   0.50150   0.02471   0.00000  Uiso   1.00
C288   C     0.49421   0.50155   0.47608   0.00000  Uiso   1.00
C289   C     0.62382   0.49969   0.24910   0.00000  Uiso   1.00
C290   C     0.37616   0.49973   0.25083   0.00000  Uiso   1.00
Cu291  Cu    0.50000   0.54689   0.25000   0.00000  Uiso   1.00
Cu292  Cu    0.50000   0.45311   0.25000   0.00000  Uiso   1.00
H293   H     0.55307   0.53890   0.03264   0.00000  Uiso   1.00
H294   H     0.47901   0.42898   0.46887   0.00000  Uiso   1.00
H295   H     0.50801   0.57440   0.47162   0.00000  Uiso   1.00
H296   H     0.43742   0.46493   0.02844   0.00000  Uiso   1.00
H297   H     0.55531   0.53813   0.11407   0.00000  Uiso   1.00
H298   H     0.47946   0.42874   0.38799   0.00000  Uiso   1.00
H299   H     0.50894   0.57423   0.39113   0.00000  Uiso   1.00
H300   H     0.43952   0.46547   0.10992   0.00000  Uiso   1.00
H301   H     0.37046   0.42500   0.25002   0.00000  Uiso   1.00
H302   H     0.62954   0.57406   0.24781   0.00000  Uiso   1.00
H303   H     0.62932   0.42496   0.24813   0.00000  Uiso   1.00
H304   H     0.37047   0.57430   0.25372   0.00000  Uiso   1.00
N305   N     0.50000   0.61736   0.25000   0.00000  Uiso   1.00
N306   N     0.50000   0.38264   0.25000   0.00000  Uiso   1.00
O307   O     0.43988   0.53958   0.24999   0.00000  Uiso   1.00
O308   O     0.56012   0.46042   0.25001   0.00000  Uiso   1.00
O309   O     0.56012   0.53958   0.25000   0.00000  Uiso   1.00
O310   O     0.43988   0.46042   0.24999   0.00000  Uiso   1.00
O311   O     0.50000   0.53959   0.18573   0.00000  Uiso   1.00
O312   O     0.50000   0.46041   0.31427   0.00000  Uiso   1.00
O313   O     0.50000   0.53959   0.31427   0.00000  Uiso   1.00
O314   O     0.50000   0.46041   0.18573   0.00000  Uiso   1.00
C315   C     0.45321   0.38076   0.18217   0.00000  Uiso   1.00
O316   O     0.41992   0.39854   0.18801   0.00000  Uiso   1.00
O317   O     0.46750   0.37709   0.13943   0.00000  Uiso   1.00
H318   H     0.44628   0.38715   0.11565   0.00000  Uiso   1.00
C319   C     0.56216   0.62088   0.30278   0.00000  Uiso   1.00
O320   O     0.55748   0.59438   0.33319   0.00000  Uiso   1.00
O321   O     0.60181   0.63580   0.29415   0.00000  Uiso   1.00
H322   H     0.62383   0.62155   0.31483   0.00000  Uiso   1.00
C323   C     0.54778   0.38196   0.31728   0.00000  Uiso   1.00
O324   O     0.57964   0.40250   0.31086   0.00000  Uiso   1.00
O325   O     0.53573   0.37578   0.36057   0.00000  Uiso   1.00
H326   H     0.55495   0.39169   0.38351   0.00000  Uiso   1.00
C327   C     0.44949   0.61725   0.18537   0.00000  Uiso   1.00
O328   O     0.46259   0.61035   0.14866   0.00000  Uiso   1.00
O329   O     0.40854   0.60736   0.19301   0.00000  Uiso   1.00
H330   H     0.39346   0.59202   0.16648   0.00000  Uiso   1.00
C331   C     0.75417   0.49994   0.25040   0.00000  Uiso   1.00
C332   C     0.91248   0.49995   0.24955   0.00000  Uiso   1.00
C333   C     0.83292   0.49992   0.16527   0.00000  Uiso   1.00
C334   C     0.83233   0.50021   0.33497   0.00000  Uiso   1.00
C335   C     0.80974   0.35763   0.21900   0.00000  Uiso   1.00
C336   C     0.85978   0.64251   0.27834   0.00000  Uiso   1.00
C337   C     0.85768   0.35832   0.28028   0.00000  Uiso   1.00
C338   C     0.80886   0.64164   0.21977   0.00000  Uiso   1.00
C339   C     0.68791   0.45779   0.24992   0.00000  Uiso   1.00
C340   C     0.97875   0.54144   0.24938   0.00000  Uiso   1.00
C341   C     0.97862   0.45777   0.24904   0.00000  Uiso   1.00
C342   C     0.68797   0.54150   0.25151   0.00000  Uiso   1.00
C343   C     0.86157   0.52259   0.04922   0.00000  Uiso   1.00
C344   C     0.81899   0.46076   0.45199   0.00000  Uiso   1.00
C345   C     0.83567   0.54234   0.45357   0.00000  Uiso   1.00
C346   C     0.79686   0.48041   0.04685   0.00000  Uiso   1.00
C347   C     0.86300   0.52200   0.09539   0.00000  Uiso   1.00
C348   C     0.81993   0.46048   0.40592   0.00000  Uiso   1.00
C349   C     0.83636   0.54210   0.40755   0.00000  Uiso   1.00
C350   C     0.79824   0.48015   0.09302   0.00000  Uiso   1.00
C351   C     0.83166   0.50010   0.11722   0.00000  Uiso   1.00
C352   C     0.82971   0.50088   0.38339   0.00000  Uiso   1.00
C353   C     0.82862   0.50150   0.02471   0.00000  Uiso   1.00
C354   C     0.82754   0.50155   0.47608   0.00000  Uiso   1.00
C355   C     0.95715   0.49969   0.24910   0.00000  Uiso   1.00
C356   C     0.70949   0.49973   0.25083   0.00000  Uiso   1.00
Cu357  Cu    0.83333   0.54689   0.25000   0.00000  Uiso   1.00
Cu358  Cu    0.83333   0.45311   0.25000   0.00000  Uiso   1.00
H359   H     0.88640   0.53890   0.03264   0.00000  Uiso   1.00
H360   H     0.81234   0.42898   0.46887   0.00000  Uiso   1.00
H361   H     0.84135   0.57440   0.47162   0.00000  Uiso   1.00
H362   H     0.77075   0.46493   0.02844   0.00000  Uiso   1.00
H363   H     0.88865   0.53813   0.11407   0.00000  Uiso   1.00
H364   H     0.81280   0.42874   0.38799   0.00000  Uiso   1.00
H365   H     0.84227   0.57423   0.39113   0.00000  Uiso   1.00
H366   H     0.77285   0.46547   0.10992   0.00000  Uiso   1.00
H367   H     0.70379   0.42500   0.25002   0.00000  Uiso   1.00
H368   H     0.96287   0.57406   0.24781   0.00000  Uiso   1.00
H369   H     0.96265   0.42496   0.24813   0.00000  Uiso   1.00
H370   H     0.70380   0.57430   0.25372   0.00000  Uiso   1.00
N371   N     0.83333   0.61736   0.25000   0.00000  Uiso   1.00
N372   N     0.83333   0.38264   0.25000   0.00000  Uiso   1.00
O373   O     0.77321   0.53958   0.24999   0.00000  Uiso   1.00
O374   O     0.89345   0.46042   0.25001   0.00000  Uiso   1.00
O375   O     0.89345   0.53958   0.25000   0.00000  Uiso   1.00
O376   O     0.77321   0.46042   0.24999   0.00000  Uiso   1.00
O377   O     0.83333   0.53959   0.18573   0.00000  Uiso   1.00
O378   O     0.83334   0.46041   0.31427   0.00000  Uiso   1.00
O379   O     0.83334   0.53959   0.31427   0.00000  Uiso   1.00
O380   O     0.83333   0.46041   0.18573   0.00000  Uiso   1.00
C381   C     0.78654   0.38076   0.18217   0.00000  Uiso   1.00
O382   O     0.75325   0.39854   0.18801   0.00000  Uiso   1.00
O383   O     0.80084   0.37709   0.13943   0.00000  Uiso   1.00
H384   H     0.77961   0.38715   0.11565   0.00000  Uiso   1.00
C385   C     0.89550   0.62088   0.30278   0.00000  Uiso   1.00
O386   O     0.89082   0.59438   0.33319   0.00000  Uiso   1.00
O387   O     0.93514   0.63580   0.29415   0.00000  Uiso   1.00
H388   H     0.95716   0.62155   0.31483   0.00000  Uiso   1.00
C389   C     0.88112   0.38196   0.31728   0.00000  Uiso   1.00
O390   O     0.91298   0.40250   0.31086   0.00000  Uiso   1.00
O391   O     0.86906   0.37578   0.36057   0.00000  Uiso   1.00
H392   H     0.88828   0.39169   0.38351   0.00000  Uiso   1.00
C393   C     0.78282   0.61725   0.18537   0.00000  Uiso   1.00
O394   O     0.79592   0.61035   0.14866   0.00000  Uiso   1.00
O395   O     0.74187   0.60736   0.19301   0.00000  Uiso   1.00
H396   H     0.72679   0.59202   0.16648   0.00000  Uiso   1.00
C397   C     0.08751   0.83328   0.25040   0.00000  Uiso   1.00
C398   C     0.24582   0.83329   0.24955   0.00000  Uiso   1.00
C399   C     0.16625   0.83325   0.16527   0.00000  Uiso   1.00
C400   C     0.16566   0.83355   0.33497   0.00000  Uiso   1.00
C401   C     0.14307   0.69096   0.21900   0.00000  Uiso   1.00
C402   C     0.19311   0.97584   0.27834   0.00000  Uiso   1.00
C403   C     0.19101   0.69165   0.28028   0.00000  Uiso   1.00
C404   C     0.14220   0.97498   0.21977   0.00000  Uiso   1.00
C405   C     0.02124   0.79113   0.24992   0.00000  Uiso   1.00
C406   C     0.31209   0.87477   0.24938   0.00000  Uiso   1.00
C407   C     0.31195   0.79111   0.24904   0.00000  Uiso   1.00
C408   C     0.02130   0.87484   0.25151   0.00000  Uiso   1.00
C409   C     0.19490   0.85592   0.04922   0.00000  Uiso   1.00
C410   C     0.15232   0.79409   0.45199   0.00000  Uiso   1.00
C411   C     0.16900   0.87567   0.45357   0.00000  Uiso   1.00
C412   C     0.13019   0.81375   0.04685   0.00000  Uiso   1.00
C413   C     0.19633   0.85533   0.09539   0.00000  Uiso   1.00
C414   C     0.15327   0.79381   0.40592   0.00000  Uiso   1.00
C415   C     0.16970   0.87544   0.40755   0.00000  Uiso   1.00
C416   C     0.13157   0.81348   0.09302   0.00000  Uiso   1.00
C417   C     0.16500   0.83343   0.11722   0.00000  Uiso   1.00
C418   C     0.16305   0.83421   0.38339   0.00000  Uiso   1.00
C419   C     0.16195   0.83483   0.02471   0.00000  Uiso   1.00
C420   C     0.16087   0.83488   0.47608   0.00000  Uiso   1.00
C421   C     0.29048   0.83303   0.24910   0.00000  Uiso   1.00
C422   C     0.04282   0.83306   0.25083   0.00000  Uiso   1.00
Cu423  Cu    0.16667   0.88022   0.25000   0.00000  Uiso   1.00
Cu424  Cu    0.16667   0.78645   0.25000   0.00000  Uiso   1.00
H425   H     0.21974   0.87223   0.03264   0.00000  Uiso   1.00
H426   H     0.14567   0.76231   0.46887   0.00000  Uiso   1.00
H427   H     0.17468   0.90774   0.47162   0.00000  Uiso   1.00
H428   H     0.10408   0.79826   0.02844   0.00000  Uiso   1.00
H429   H     0.22198   0.87146   0.11407   0.00000  Uiso   1.00
H430   H     0.14613   0.76207   0.38799   0.00000  Uiso   1.00
H431   H     0.17561   0.90756   0.39113   0.00000  Uiso   1.00
H432   H     0.10619   0.79881   0.10992   0.00000  Uiso   1.00
H433   H     0.03713   0.75833   0.25002   0.00000  Uiso   1.00
H434   H     0.29621   0.90739   0.24781   0.00000  Uiso   1.00
H435   H     0.29598   0.75829   0.24813   0.00000  Uiso   1.00
H436   H     0.03713   0.90764   0.25372   0.00000  Uiso   1.00
N437   N     0.16667   0.95069   0.25000   0.00000  Uiso   1.00
N438   N     0.16667   0.71598   0.25000   0.00000  Uiso   1.00
O439   O     0.10655   0.87291   0.24999   0.00000  Uiso   1.00
O440   O     0.22679   0.79375   0.25001   0.00000  Uiso   1.00
O441   O     0.22679   0.87291   0.25000   0.00000  Uiso   1.00
O442   O     0.10655   0.79375   0.24999   0.00000  Uiso   1.00
O443   O     0.16666   0.87293   0.18573   0.00000  Uiso   1.00
O444   O     0.16667   0.79374   0.31427   0.00000  Uiso   1.00
O445   O     0.16667   0.87293   0.31427   0.00000  Uiso   1.00
O446   O     0.16666   0.79374   0.18573   0.00000  Uiso   1.00
C447   C     0.11987   0.71409   0.18217   0.00000  Uiso   1.00
O448   O     0.08658   0.73187   0.18801   0.00000  Uiso   1.00
O449   O     0.13417   0.71043   0.13943   0.00000  Uiso   1.00
H450   H     0.11295   0.72049   0.11565   0.00000  Uiso   1.00
C451   C     0.22883   0.95421   0.30278   0.00000  Uiso   1.00
O452   O     0.22415   0.92772   0.33319   0.00000  Uiso   1.00
O453   O     0.26847   0.96914   0.29415   0.00000  Uiso   1.00
H454   H     0.29050   0.95489   0.31483   0.00000  Uiso   1.00
C455   C     0.21445   0.71529   0.31728   0.00000  Uiso   1.00
O456   O     0.24631   0.73584   0.31086   0.00000  Uiso   1.00
O457   O     0.20239   0.70912   0.36057   0.00000  Uiso   1.00
H458   H     0.22161   0.72503   0.38351   0.00000  Uiso   1.00
C459   C     0.11616   0.95059   0.18537   0.00000  Uiso   1.00
O460   O     0.12925   0.94368   0.14866   0.00000  Uiso   1.00
O461   O     0.07521   0.94069   0.19301   0.00000  Uiso   1.00
H462   H     0.06012   0.92535   0.16648   0.00000  Uiso   1.00
C463   C     0.42084   0.83328   0.25040   0.00000  Uiso   1.00
C464   C     0.57915   0.83329   0.24955   0.00000  Uiso   1.00
C465   C     0.49958   0.83325   0.16527   0.00000  Uiso   1.00
C466   C     0.49899   0.83355   0.33497   0.00000  Uiso   1.00
C467   C     0.47641   0.69096   0.21900   0.00000  Uiso   1.00
C468   C     0.52645   0.97584   0.27834   0.00000  Uiso   1.00
C469   C     0.52435   0.69165   0.28028   0.00000  Uiso   1.00
C470   C     0.47553   0.97498   0.21977   0.00000  Uiso   1.00
C471   C     0.35458   0.79113   0.24992   0.00000  Uiso   1.00
C472   C     0.64542   0.87477   0.24938   0.00000  Uiso   1.00
C473   C     0.64529   0.79111   0.24904   0.00000  Uiso   1.00
C474   C     0.35464   0.87484   0.25151   0.00000  Uiso   1.00
C475   C     0.52823   0.85592   0.04922   0.00000  Uiso   1.00
C476   C     0.48566   0.79409   0.45199   0.00000  Uiso   1.00
C477   C     0.50234   0.87567   0.45357   0.00000  Uiso   1.00
C478   C     0.46352   0.81375   0.04685   0.00000  Uiso   1.00
C479   C     0.52966   0.85533   0.09539   0.00000  Uiso   1.00
C480   C     0.48660   0.79381   0.40592   0.00000  Uiso   1.00
C481   C     0.50303   0.87544   0.40755   0.00000  Uiso   1.00
C482   C     0.46491   0.81348   0.09302   0.00000  Uiso   1.00
C483   C     0.49833   0.83343   0.11722   0.00000  Uiso   1.00
C484   C     0.49638   0.83421   0.38339   0.00000  Uiso   1.00
C485   C     0.49529   0.83483   0.02471   0.00000  Uiso   1.00
C486   C     0.49421   0.83488   0.47608   0.00000  Uiso   1.00
C487   C     0.62382   0.83303   0.24910   0.00000  Uiso   1.00
C488   C     0.37616   0.83306   0.25083   0.00000  Uiso   1.00
Cu489  Cu    0.50000   0.88022   0.25000   0.00000  Uiso   1.00
Cu490  Cu    0.50000   0.78645   0.25000   0.00000  Uiso   1.00
H491   H     0.55307   0.87223   0.03264   0.00000  Uiso   1.00
H492   H     0.47901   0.76231   0.46887   0.00000  Uiso   1.00
H493   H     0.50801   0.90774   0.47162   0.00000  Uiso   1.00
H494   H     0.43742   0.79826   0.02844   0.00000  Uiso   1.00
H495   H     0.55531   0.87146   0.11407   0.00000  Uiso   1.00
H496   H     0.47946   0.76207   0.38799   0.00000  Uiso   1.00
H497   H     0.50894   0.90756   0.39113   0.00000  Uiso   1.00
H498   H     0.43952   0.79881   0.10992   0.00000  Uiso   1.00
H499   H     0.37046   0.75833   0.25002   0.00000  Uiso   1.00
H500   H     0.62954   0.90739   0.24781   0.00000  Uiso   1.00
H501   H     0.62932   0.75829   0.24813   0.00000  Uiso   1.00
H502   H     0.37047   0.90764   0.25372   0.00000  Uiso   1.00
N503   N     0.50000   0.95069   0.25000   0.00000  Uiso   1.00
N504   N     0.50000   0.71598   0.25000   0.00000  Uiso   1.00
O505   O     0.43988   0.87291   0.24999   0.00000  Uiso   1.00
O506   O     0.56012   0.79375   0.25001   0.00000  Uiso   1.00
O507   O     0.56012   0.87291   0.25000   0.00000  Uiso   1.00
O508   O     0.43988   0.79375   0.24999   0.00000  Uiso   1.00
O509   O     0.50000   0.87293   0.18573   0.00000  Uiso   1.00
O510   O     0.50000   0.79374   0.31427   0.00000  Uiso   1.00
O511   O     0.50000   0.87293   0.31427   0.00000  Uiso   1.00
O512   O     0.50000   0.79374   0.18573   0.00000  Uiso   1.00
C513   C     0.45321   0.71409   0.18217   0.00000  Uiso   1.00
O514   O     0.41992   0.73187   0.18801   0.00000  Uiso   1.00
O515   O     0.46750   0.71043   0.13943   0.00000  Uiso   1.00
H516   H     0.44628   0.72049   0.11565   0.00000  Uiso   1.00
C517   C     0.56216   0.95421   0.30278   0.00000  Uiso   1.00
O518   O     0.55748   0.92772   0.33319   0.00000  Uiso   1.00
O519   O     0.60181   0.96914   0.29415   0.00000  Uiso   1.00
H520   H     0.62383   0.95489   0.31483   0.00000  Uiso   1.00
C521   C     0.54778   0.71529   0.31728   0.00000  Uiso   1.00
O522   O     0.57964   0.73584   0.31086   0.00000  Uiso   1.00
O523   O     0.53573   0.70912   0.36057   0.00000  Uiso   1.00
H524   H     0.55495   0.72503   0.38351   0.00000  Uiso   1.00
C525   C     0.44949   0.95059   0.18537   0.00000  Uiso   1.00
O526   O     0.46259   0.94368   0.14866   0.00000  Uiso   1.00
O527   O     0.40854   0.94069   0.19301   0.00000  Uiso   1.00
H528   H     0.39346   0.92535   0.16648   0.00000  Uiso   1.00
C529   C     0.75417   0.83328   0.25040   0.00000  Uiso   1.00
C530   C     0.91248   0.83329   0.24955   0.00000  Uiso   1.00
C531   C     0.83292   0.83325   0.16527   0.00000  Uiso   1.00
C532   C     0.83233   0.83355   0.33497   0.00000  Uiso   1.00
C533   C     0.80974   0.69096   0.21900   0.00000  Uiso   1.00
C534   C     0.85978   0.97584   0.27834   0.00000  Uiso   1.00
C535   C     0.85768   0.69165   0.28028   0.00000  Uiso   1.00
C536   C     0.80886   0.97498   0.21977   0.00000  Uiso   1.00
C537   C     0.68791   0.79113   0.24992   0.00000  Uiso   1.00
C538   C     0.97875   0.87477   0.24938   0.00000  Uiso   1.00
C539   C     0.97862   0.79111   0.24904   0.00000  Uiso   1.00
C540   C     0.68797   0.87484   0.25151   0.00000  Uiso   1.00
C541   C     0.86157   0.85592   0.04922   0.00000  Uiso   1.00
C542   C     0.81899   0.79409   0.45199   0.00000  Uiso   1.00
C543   C     0.83567   0.87567   0.45357   0.00000  Uiso   1.00
C544   C     0.79686   0.81375   0.04685   0.00000  Uiso   1.00
C545   C     0.86300   0.85533   0.09539   0.00000  Uiso   1.00
C546   C     0.81993   0.79381   0.40592   0.00000  Uiso   1.00
C547   C     0.83636   0.87544   0.40755   0.00000  Uiso   1.00
C548   C     0.79824   0.81348   0.09302   0.00000  Uiso   1.00
C549   C     0.83166   0.83343   0.11722   0.00000  Uiso   1.00
C550   C     0.82971   0.83421   0.38339   0.00000  Uiso   1.00
C551   C     0.82862   0.83483   0.02471   0.00000  Uiso   1.00
C552   C     0.82754   0.83488   0.47608   0.00000  Uiso   1.00
C553   C     0.95715   0.83303   0.24910   0.00000  Uiso   1.00
C554   C     0.70949   0.83306   0.25083   0.00000  Uiso   1.00
Cu555  Cu    0.83333   0.88022   0.25000   0.00000  Uiso   1.00
Cu556  Cu    0.83333   0.78645   0.25000   0.00000  Uiso   1.00
H557   H     0.88640   0.87223   0.03264   0.00000  Uiso   1.00
H558   H     0.81234   0.76231   0.46887   0.00000  Uiso   1.00
H559   H     0.84135   0.90774   0.47162   0.00000  Uiso   1.00
H560   H     0.77075   0.79826   0.02844   0.00000  Uiso   1.00
H561   H     0.88865   0.87146   0.11407   0.00000  Uiso   1.00
H562   H     0.81280   0.76207   0.38799   0.00000  Uiso   1.00
H563   H     0.84227   0.90756   0.39113   0.00000  Uiso   1.00
H564   H     0.77285   0.79881   0.10992   0.00000  Uiso   1.00
H565   H     0.70379   0.75833   0.25002   0.00000  Uiso   1.00
H566   H     0.96287   0.90739   0.24781   0.00000  Uiso   1.00
H567   H     0.96265   0.75829   0.24813   0.00000  Uiso   1.00
H568   H     0.70380   0.90764   0.25372   0.00000  Uiso   1.00
N569   N     0.83333   0.95069   0.25000   0.00000  Uiso   1.00
N570   N     0.83333   0.71598   0.25000   0.00000  Uiso   1.00
O571   O     0.77321   0.87291   0.24999   0.00000  Uiso   1.00
O572   O     0.89345   0.79375   0.25001   0.00000  Uiso   1.00
O573   O     0.89345   0.87291   0.25000   0.00000  Uiso   1.00
O574   O     0.77321   0.79375   0.24999   0.00000  Uiso   1.00
O575   O     0.83333   0.87293   0.18573   0.00000  Uiso   1.00
O576   O     0.83334   0.79374   0.31427   0.00000  Uiso   1.00
O577   O     0.83334   0.87293   0.31427   0.00000  Uiso   1.00
O578   O     0.83333   0.79374   0.18573   0.00000  Uiso   1.00
C579   C     0.78654   0.71409   0.18217   0.00000  Uiso   1.00
O580   O     0.75325   0.73187   0.18801   0.00000  Uiso   1.00
O581   O     0.80084   0.71043   0.13943   0.00000  Uiso   1.00
H582   H     0.77961   0.72049   0.11565   0.00000  Uiso   1.00
C583   C     0.89550   0.95421   0.30278   0.00000  Uiso   1.00
O584   O     0.89082   0.92772   0.33319   0.00000  Uiso   1.00
O585   O     0.93514   0.96914   0.29415   0.00000  Uiso   1.00
H586   H     0.95716   0.95489   0.31483   0.00000  Uiso   1.00
C587   C     0.88112   0.71529   0.31728   0.00000  Uiso   1.00
O588   O     0.91298   0.73584   0.31086   0.00000  Uiso   1.00
O589   O     0.86906   0.70912   0.36057   0.00000  Uiso   1.00
H590   H     0.88828   0.72503   0.38351   0.00000  Uiso   1.00
C591   C     0.78282   0.95059   0.18537   0.00000  Uiso   1.00
O592   O     0.79592   0.94368   0.14866   0.00000  Uiso   1.00
O593   O     0.74187   0.94069   0.19301   0.00000  Uiso   1.00
H594   H     0.72679   0.92535   0.16648   0.00000  Uiso   1.00
C595   C     0.08751   0.16661   0.75040   0.00000  Uiso   1.00
C596   C     0.24582   0.16662   0.74955   0.00000  Uiso   1.00
C597   C     0.16625   0.16659   0.66527   0.00000  Uiso   1.00
C598   C     0.16566   0.16688   0.83497   0.00000  Uiso   1.00
C599   C     0.14307   0.02429   0.71900   0.00000  Uiso   1.00
C600   C     0.19311   0.30918   0.77834   0.00000  Uiso   1.00
C601   C     0.19101   0.02499   0.78028   0.00000  Uiso   1.00
C602   C     0.14220   0.30831   0.71977   0.00000  Uiso   1.00
C603   C     0.02124   0.12446   0.74992   0.00000  Uiso   1.00
C604   C     0.31209   0.20811   0.74938   0.00000  Uiso   1.00
C605   C     0.31195   0.12444   0.74904   0.00000  Uiso   1.00
C606   C     0.02130   0.20817   0.75151   0.00000  Uiso   1.00
C607   C     0.19490   0.18925   0.54922   0.00000  Uiso   1.00
C608   C     0.15232   0.12742   0.95199   0.00000  Uiso   1.00
C609   C     0.16900   0.20900   0.95357   0.00000  Uiso   1.00
C610   C     0.13019   0.14708   0.54685   0.00000  Uiso   1.00
C611   C     0.19633   0.18867   0.59539   0.00000  Uiso   1.00
C612   C     0.15327   0.12715   0.90592   0.00000  Uiso   1.00
C613   C     0.16970   0.20877   0.90755   0.00000  Uiso   1.00
C614   C     0.13157   0.14681   0.59302   0.00000  Uiso   1.00
C615   C     0.16500   0.16677   0.61722   0.00000  Uiso   1.00
C616   C     0.16305   0.16754   0.88339   0.00000  Uiso   1.00
C617   C     0.16195   0.16816   0.52471   0.00000  Uiso   1.00
C618   C     0.16087   0.16821   0.97608   0.00000  Uiso   1.00
C619   C     0.29048   0.16636   0.74910   0.00000  Uiso   1.00
C620   C     0.04282   0.16640   0.75083   0.00000  Uiso   1.00
Cu621  Cu    0.16667   0.21355   0.75000   0.00000  Uiso   1.00
Cu622  Cu    0.16667   0.11978   0.75000   0.00000  Uiso   1.00
H623   H     0.21974   0.20557   0.53264   0.00000  Uiso   1.00
H624   H     0.14567   0.09565   0.96887   0.00000  Uiso   1.00
H625   H     0.17468   0.24107   0.97162   0.00000  Uiso   1.00
H626   H     0.10408   0.13160   0.52844   0.00000  Uiso   1.00
H627   H     0.22198   0.20480   0.61407   0.00000  Uiso   1.00
H628   H     0.14613   0.09541   0.88799   0.00000  Uiso   1.00
H629   H     0.17561   0.24089   0.89113   0.00000  Uiso   1.00
H630   H     0.10619   0.13214   0.60992   0.00000  Uiso   1.00
H631   H     0.03713   0.09167   0.75002   0.00000  Uiso   1.00
H632   H     0.29621   0.24072   0.74781   0.00000  Uiso   1.00
H633   H     0.29598   0.09163   0.74813   0.00000  Uiso   1.00
H634   H     0.03713   0.24097   0.75372   0.00000  Uiso   1.00
N635   N     0.16667   0.28402   0.75000   0.00000  Uiso   1.00
N636   N     0.16667   0.04931   0.75000   0.00000  Uiso   1.00
O637   O     0.10655   0.20625   0.74999   0.00000  Uiso   1.00
O638   O     0.22679   0.12709   0.75001   0.00000  Uiso   1.00
O639   O     0.22679   0.20625   0.75000   0.00000  Uiso   1.00
O640   O     0.10655   0.12709   0.74999   0.00000  Uiso   1.00
O641   O     0.16666   0.20626   0.68573   0.00000  Uiso   1.00
O642   O     0.16667   0.12707   0.81427   0.00000  Uiso   1.00
O643   O     0.16667   0.20626   0.81427   0.00000  Uiso   1.00
O644   O     0.16666   0.12707   0.68573   0.00000  Uiso   1.00
C645   C     0.11987   0.04743   0.68217   0.00000  Uiso   1.00
O646   O     0.08658   0.06521   0.68801   0.00000  Uiso   1.00
O647   O     0.13417   0.04376   0.63943   0.00000  Uiso   1.00
H648   H     0.11295   0.05382   0.61565   0.00000  Uiso   1.00
C649   C     0.22883   0.28755   0.80278   0.00000  Uiso   1.00
O650   O     0.22415   0.26105   0.83319   0.00000  Uiso   1.00
O651   O     0.26847   0.30247   0.79415   0.00000  Uiso   1.00
H652   H     0.29050   0.28822   0.81483   0.00000  Uiso   1.00
C653   C     0.21445   0.04862   0.81728   0.00000  Uiso   1.00
O654   O     0.24631   0.06917   0.81086   0.00000  Uiso   1.00
O655   O     0.20239   0.04245   0.86057   0.00000  Uiso   1.00
H656   H     0.22161   0.05836   0.88351   0.00000  Uiso   1.00
C657   C     0.11616   0.28392   0.68537   0.00000  Uiso   1.00
O658   O     0.12925   0.27701   0.64866   0.00000  Uiso   1.00
O659   O     0.07521   0.27402   0.69301   0.00000  Uiso   1.00
H660   H     0.06012   0.25869   0.66648   0.00000  Uiso   1.00
C661   C     0.42084   0.16661   0.75040   0.00000  Uiso   1.00
C662   C     0.57915   0.16662   0.74955   0.00000  Uiso   1.00
C663   C     0.49958   0.16659   0.66527   0.00000  Uiso   1.00
C664   C     0.49899   0.16688   0.83497   0.00000  Uiso   1.00
C665   C     0.47641   0.02429   0.71900   0.00000  Uiso   1.00
C666   C     0.52645   0.30918   0.77834   0.00000  Uiso   1.00
C667   C     0.52435   0.02499   0.78028   0.00000  Uiso   1.00
C668   C     0.47553   0.30831   0.71977   0.00000  Uiso   1.00
C669   C     0.35458   0.12446   0.74992   0.00000  Uiso   1.00
C670   C     0.64542   0.20811   0.74938   0.00000  Uiso   1.00
C671   C     0.64529   0.12444   0.74904   0.00000  Uiso   1.00
C672   C     0.35464   0.20817   0.75151   0.00000  Uiso   1.00
C673   C     0.52823   0.18925   0.54922   0.00000  Uiso   1.00
C674   C     0.48566   0.12742   0.95199   0.00000  Uiso   1.00
C675   C     0.50234   0.20900   0.95357   0.00000  Uiso   1.00
C676   C     0.46352   0.14708   0.54685   0.00000  Uiso   1.00
C677   C     0.52966   0.18867   0.59539   0.00000  Uiso   1.00
C678   C     0.48660   0.12715   0.90592   0.00000  Uiso   1.00
C679   C     0.50303   0.20877   0.90755   0.00000  Uiso   1.00
C680   C     0.46491   0.14681   0.59302   0.00000  Uiso   1.00
C681   C     0.49833   0.16677   0.61722   0.00000  Uiso   1.00
C682   C     0.49638   0.16754   0.88339   0.00000  Uiso   1.00
C683   C     0.49529   0.16816   0.52471   0.00000  Uiso   1.00
C684   C     0.49421   0.16821   0.97608   0.00000  Uiso   1.00
C685   C     0.62382   0.16636   0.74910   0.00000  Uiso   1.00
C686   C     0.37616   0.16640   0.75083   0.00000  Uiso   1.00
Cu687  Cu    0.50000   0.21355   0.75000   0.00000  Uiso   1.00
Cu688  Cu    0.50000   0.11978   0.75000   0.00000  Uiso   1.00
H689   H     0.55307   0.20557   0.53264   0.00000  Uiso   1.00
H690   H     0.47901   0.09565   0.96887   0.00000  Uiso   1.00
H691   H     0.50801   0.24107   0.97162   0.00000  Uiso   1.00
H692   H     0.43742   0.13160   0.52844   0.00000  Uiso   1.00
H693   H     0.55531   0.20480   0.61407   0.00000  Uiso   1.00
H694   H     0.47946   0.09541   0.88799   0.00000  Uiso   1.00
H695   H     0.50894   0.24089   0.89113   0.00000  Uiso   1.00
H696   H     0.43952   0.13214   0.60992   0.00000  Uiso   1.00
H697   H     0.37046   0.09167   0.75002   0.00000  Uiso   1.00
H698   H     0.62954   0.24072   0.74781   0.00000  Uiso   1.00
H699   H     0.62932   0.09163   0.74813   0.00000  Uiso   1.00
H700   H     0.37047   0.24097   0.75372   0.00000  Uiso   1.00
N701   N     0.50000   0.28402   0.75000   0.00000  Uiso   1.00
N702   N     0.50000   0.04931   0.75000   0.00000  Uiso   1.00
O703   O     0.43988   0.20625   0.74999   0.00000  Uiso   1.00
O704   O     0.56012   0.12709   0.75001   0.00000  Uiso   1.00
O705   O     0.56012   0.20625   0.75000   0.00000  Uiso   1.00
O706   O     0.43988   0.12709   0.74999   0.00000  Uiso   1.00
O707   O     0.50000   0.20626   0.68573   0.00000  Uiso   1.00
O708   O     0.50000   0.12707   0.81427   0.00000  Uiso   1.00
O709   O     0.50000   0.20626   0.81427   0.00000  Uiso   1.00
O710   O     0.50000   0.12707   0.68573   0.00000  Uiso   1.00
C711   C     0.45321   0.04743   0.68217   0.00000  Uiso   1.00
O712   O     0.41992   0.06521   0.68801   0.00000  Uiso   1.00
O713   O     0.46750   0.04376   0.63943   0.00000  Uiso   1.00
H714   H     0.44628   0.05382   0.61565   0.00000  Uiso   1.00
C715   C     0.56216   0.28755   0.80278   0.00000  Uiso   1.00
O716   O     0.55748   0.26105   0.83319   0.00000  Uiso   1.00
O717   O     0.60181   0.30247   0.79415   0.00000  Uiso   1.00
H718   H     0.62383   0.28822   0.81483   0.00000  Uiso   1.00
C719   C     0.54778   0.04862   0.81728   0.00000  Uiso   1.00
O720   O     0.57964   0.06917   0.81086   0.00000  Uiso   1.00
O721   O     0.53573   0.04245   0.86057   0.00000  Uiso   1.00
H722   H     0.55495   0.05836   0.88351   0.00000  Uiso   1.00
C723   C     0.44949   0.28392   0.68537   0.00000  Uiso   1.00
O724   O     0.46259   0.27701   0.64866   0.00000  Uiso   1.00
O725   O     0.40854   0.27402   0.69301   0.00000  Uiso   1.00
H726   H     0.39346   0.25869   0.66648   0.00000  Uiso   1.00
C727   C     0.75417   0.16661   0.75040   0.00000  Uiso   1.00
C728   C     0.91248   0.16662   0.74955   0.00000  Uiso   1.00
C729   C     0.83292   0.16659   0.66527   0.00000  Uiso   1.00
C730   C     0.83233   0.16688   0.83497   0.00000  Uiso   1.00
C731   C     0.80974   0.02429   0.71900   0.00000  Uiso   1.00
C732   C     0.85978   0.30918   0.77834   0.00000  Uiso   1.00
C733   C     0.85768   0.02499   0.78028   0.00000  Uiso   1.00
C734   C     0.80886   0.30831   0.71977   0.00000  Uiso   1.00
C735   C     0.68791   0.12446   0.74992   0.00000  Uiso   1.00
C736   C     0.97875   0.20811   0.74938   0.00000  Uiso   1.00
C737   C     0.97862   0.12444   0.74904   0.00000  Uiso   1.00
C738   C     0.68797   0.20817   0.75151   0.00000  Uiso   1.00
C739   C     0.86157   0.18925   0.54922   0.00000  Uiso   1.00
C740   C     0.81899   0.12742   0.95199   0.00000  Uiso   1.00
C741   C     0.83567   0.20900   0.95357   0.00000  Uiso   1.00
C742   C     0.79686   0.14708   0.54685   0.00000  Uiso   1.00
C743   C     0.86300   0.18867   0.59539   0.00000  Uiso   1.00
C744   C     0.81993   0.12715   0.90592   0.00000  Uiso   1.00
C745   C     0.83636   0.20877   0.90755   0.00000  Uiso   1.00
C746   C     0.79824   0.14681   0.59302   0.00000  Uiso   1.00
C747   C     0.83166   0.16677   0.61722   0.00000  Uiso   1.00
C748   C     0.82971   0.16754   0.88339   0.00000  Uiso   1.00
C749   C     0.82862   0.16816   0.52471   0.00000  Uiso   1.00
C750   C     0.82754   0.16821   0.97608   0.00000  Uiso   1.00
C751   C     0.95715   0.16636   0.74910   0.00000  Uiso   1.00
C752   C     0.70949   0.16640   0.75083   0.00000  Uiso   1.00
Cu753  Cu    0.83333   0.21355   0.75000   0.00000  Uiso   1.00
Cu754  Cu    0.83333   0.11978   0.75000   0.00000  Uiso   1.00
H755   H     0.88640   0.20557   0.53264   0.00000  Uiso   1.00
H756   H     0.81234   0.09565   0.96887   0.00000  Uiso   1.00
H757   H     0.84135   0.24107   0.97162   0.00000  Uiso   1.00
H758   H     0.77075   0.13160   0.52844   0.00000  Uiso   1.00
H759   H     0.88865   0.20480   0.61407   0.00000  Uiso   1.00
H760   H     0.81280   0.09541   0.88799   0.00000  Uiso   1.00
H761   H     0.84227   0.24089   0.89113   0.00000  Uiso   1.00
H762   H     0.77285   0.13214   0.60992   0.00000  Uiso   1.00
H763   H     0.70379   0.09167   0.75002   0.00000  Uiso   1.00
H764   H     0.96287   0.24072   0.74781   0.00000  Uiso   1.00
H765   H     0.96265   0.09163   0.74813   0.00000  Uiso   1.00
H766   H     0.70380   0.24097   0.75372   0.00000  Uiso   1.00
N767   N     0.83333   0.28402   0.75000   0.00000  Uiso   1.00
N768   N     0.83333   0.04931   0.75000   0.00000  Uiso   1.00
O769   O     0.77321   0.20625   0.74999   0.00000  Uiso   1.00
O770   O     0.89345   0.12709   0.75001   0.00000  Uiso   1.00
O771   O     0.89345   0.20625   0.75000   0.00000  Uiso   1.00
O772   O     0.77321   0.12709   0.74999   0.00000  Uiso   1.00
O773   O     0.83333   0.20626   0.68573   0.00000  Uiso   1.00
O774   O     0.83334   0.12707   0.81427   0.00000  Uiso   1.00
O775   O     0.83334   0.20626   0.81427   0.00000  Uiso   1.00
O776   O     0.83333   0.12707   0.68573   0.00000  Uiso   1.00
C777   C     0.78654   0.04743   0.68217   0.00000  Uiso   1.00
O778   O     0.75325   0.06521   0.68801   0.00000  Uiso   1.00
O779   O     0.80084   0.04376   0.63943   0.00000  Uiso   1.00
H780   H     0.77961   0.05382   0.61565   0.00000  Uiso   1.00
C781   C     0.89550   0.28755   0.80278   0.00000  Uiso   1.00
O782   O     0.89082   0.26105   0.83319   0.00000  Uiso   1.00
O783   O     0.93514   0.30247   0.79415   0.00000  Uiso   1.00
H784   H     0.95716   0.28822   0.81483   0.00000  Uiso   1.00
C785   C     0.88112   0.04862   0.81728   0.00000  Uiso   1.00
O786   O     0.91298   0.06917   0.81086   0.00000  Uiso   1.00
O787   O     0.86906   0.04245   0.86057   0.00000  Uiso   1.00
H788   H     0.88828   0.05836   0.88351   0.00000  Uiso   1.00
C789   C     0.78282   0.28392   0.68537   0.00000  Uiso   1.00
O790   O     0.79592   0.27701   0.64866   0.00000  Uiso   1.00
O791   O     0.74187   0.27402   0.69301   0.00000  Uiso   1.00
H792   H     0.72679   0.25869   0.66648   0.00000  Uiso   1.00
C793   C     0.08751   0.49994   0.75040   0.00000  Uiso   1.00
C794   C     0.24582   0.49995   0.74955   0.00000  Uiso   1.00
C795   C     0.16625   0.49992   0.66527   0.00000  Uiso   1.00
C796   C     0.16566   0.50021   0.83497   0.00000  Uiso   1.00
C797   C     0.14307   0.35763   0.71900   0.00000  Uiso   1.00
C798   C     0.19311   0.64251   0.77834   0.00000  Uiso   1.00
C799   C     0.19101   0.35832   0.78028   0.00000  Uiso   1.00
C800   C     0.14220   0.64164   0.71977   0.00000  Uiso   1.00
C801   C     0.02124   0.45779   0.74992   0.00000  Uiso   1.00
C802   C     0.31209   0.54144   0.74938   0.00000  Uiso   1.00
C803   C     0.31195   0.45777   0.74904   0.00000  Uiso   1.00
C804   C     0.02130   0.54150   0.75151   0.00000  Uiso   1.00
C805   C     0.19490   0.52259   0.54922   0.00000  Uiso   1.00
C806   C     0.15232   0.46076   0.95199   0.00000  Uiso   1.00
C807   C     0.16900   0.54234   0.95357   0.00000  Uiso   1.00
C808   C     0.13019   0.48041   0.54685   0.00000  Uiso   1.00
C809   C     0.19633   0.52200   0.59539   0.00000  Uiso   1.00
C810   C     0.15327   0.46048   0.90592   0.00000  Uiso   1.00
C811   C     0.16970   0.54210   0.90755   0.00000  Uiso   1.00
C812   C     0.13157   0.48015   0.59302   0.00000  Uiso   1.00
C813   C     0.16500   0.50010   0.61722   0.00000  Uiso   1.00
C814   C     0.16305   0.50088   0.88339   0.00000  Uiso   1.00
C815   C     0.16195   0.50150   0.52471   0.00000  Uiso   1.00
C816   C     0.16087   0.50155   0.97608   0.00000  Uiso   1.00
C817   C     0.29048   0.49969   0.74910   0.00000  Uiso   1.00
C818   C     0.04282   0.49973   0.75083   0.00000  Uiso   1.00
Cu819  Cu    0.16667   0.54689   0.75000   0.00000  Uiso   1.00
Cu820  Cu    0.16667   0.45311   0.75000   0.00000  Uiso   1.00
H821   H     0.21974   0.53890   0.53264   0.00000  Uiso   1.00
H822   H     0.14567   0.42898   0.96887   0.00000  Uiso   1.00
H823   H     0.17468   0.57440   0.97162   0.00000  Uiso   1.00
H824   H     0.10408   0.46493   0.52844   0.00000  Uiso   1.00
H825   H     0.22198   0.53813   0.61407   0.00000  Uiso   1.00
H826   H     0.14613   0.42874   0.88799   0.00000  Uiso   1.00
H827   H     0.17561   0.57423   0.89113   0.00000  Uiso   1.00
H828   H     0.10619   0.46547   0.60992   0.00000  Uiso   1.00
H829   H     0.03713   0.42500   0.75002   0.00000  Uiso   1.00
H830   H     0.29621   0.57406   0.74781   0.00000  Uiso   1.00
H831   H     0.29598   0.42496   0.74813   0.00000  Uiso   1.00
H832   H     0.03713   0.57430   0.75372   0.00000  Uiso   1.00
N833   N     0.16667   0.61736   0.75000   0.00000  Uiso   1.00
N834   N     0.16667   0.38264   0.75000   0.00000  Uiso   1.00
O835   O     0.10655   0.53958   0.74999   0.00000  Uiso   1.00
O836   O     0.22679   0.46042   0.75001   0.00000  Uiso   1.00
O837   O     0.22679   0.53958   0.75000   0.00000  Uiso   1.00
O838   O     0.10655   0.46042   0.74999   0.00000  Uiso   1.00
O839   O     0.16666   0.53959   0.68573   0.00000  Uiso   1.00
O840   O     0.16667   0.46041   0.81427   0.00000  Uiso   1.00
O841   O     0.16667   0.53959   0.81427   0.00000  Uiso   1.00
O842   O     0.16666   0.46041   0.68573   0.00000  Uiso   1.00
C843   C     0.11987   0.38076   0.68217   0.00000  Uiso   1.00
O844   O     0.08658   0.39854   0.68801   0.00000  Uiso   1.00
O845   O     0.13417   0.37709   0.63943   0.00000  Uiso   1.00
H846   H     0.11295   0.38715   0.61565   0.00000  Uiso   1.00
C847   C     0.22883   0.62088   0.80278   0.00000  Uiso   1.00
O848   O     0.22415   0.59438   0.83319   0.00000  Uiso   1.00
O849   O     0.26847   0.63580   0.79415   0.00000  Uiso   1.00
H850   H     0.29050   0.62155   0.81483   0.00000  Uiso   1.00
C851   C     0.21445   0.38196   0.81728   0.00000  Uiso   1.00
O852   O     0.24631   0.40250   0.81086   0.00000  Uiso   1.00
O853   O     0.20239   0.37578   0.86057   0.00000  Uiso   1.00
H854   H     0.22161   0.39169   0.88351   0.00000  Uiso   1.00
C855   C     0.11616   0.61725   0.68537   0.00000  Uiso   1.00
O856   O     0.12925   0.61035   0.64866   0.00000  Uiso   1.00
O857   O     0.07521   0.60736   0.69301   0.00000  Uiso   1.00
H858   H     0.06012   0.59202   0.66648   0.00000  Uiso   1.00
C859   C     0.42084   0.49994   0.75040   0.00000  Uiso   1.00
C860   C     0.57915   0.49995   0.74955   0.00000  Uiso   1.00
C861   C     0.49958   0.49992   0.66527   0.00000  Uiso   1.00
C862   C     0.49899   0.50021   0.83497   0.00000  Uiso   1.00
C863   C     0.47641   0.35763   0.71900   0.00000  Uiso   1.00
C864   C     0.52645   0.64251   0.77834   0.00000  Uiso   1.00
C865   C     0.52435   0.35832   0.78028   0.00000  Uiso   1.00
C866   C     0.47553   0.64164   0.71977   0.00000  Uiso   1.00
C867   C     0.35458   0.45779   0.74992   0.00000  Uiso   1.00
C868   C     0.64542   0.54144   0.74938   0.00000  Uiso   1.00
C869   C     0.64529   0.45777   0.74904   0.00000  Uiso   1.00
C870   C     0.35464   0.54150   0.75151   0.00000  Uiso   1.00
C871   C     0.52823   0.52259   0.54922   0.00000  Uiso   1.00
C872   C     0.48566   0.46076   0.95199   0.00000  Uiso   1.00
C873   C     0.50234   0.54234   0.95357   0.00000  Uiso   1.00
C874   C     0.46352   0.48041   0.54685   0.00000  Uiso   1.00
C875   C     0.52966   0.52200   0.59539   0.00000  Uiso   1.00
C876   C     0.48660   0.46048   0.90592   0.00000  Uiso   1.00
C877   C     0.50303   0.54210   0.90755   0.00000  Uiso   1.00
C878   C     0.46491   0.48015   0.59302   0.00000  Uiso   1.00
C879   C     0.49833   0.50010   0.61722   0.00000  Uiso   1.00
C880   C     0.49638   0.50088   0.88339   0.00000  Uiso   1.00
C881   C     0.49529   0.50150   0.52471   0.00000  Uiso   1.00
C882   C     0.49421   0.50155   0.97608   0.00000  Uiso   1.00
C883   C     0.62382   0.49969   0.74910   0.00000  Uiso   1.00
C884   C     0.37616   0.49973   0.75083   0.00000  Uiso   1.00
Cu885  Cu    0.50000   0.54689   0.75000   0.00000  Uiso   1.00
Cu886  Cu    0.50000   0.45311   0.75000   0.00000  Uiso   1.00
H887   H     0.55307   0.53890   0.53264   0.00000  Uiso   1.00
H888   H     0.47901   0.42898   0.96887   0.00000  Uiso   1.00
H889   H     0.50801   0.57440   0.97162   0.00000  Uiso   1.00
H890   H     0.43742   0.46493   0.52844   0.00000  Uiso   1.00
H891   H     0.55531   0.53813   0.61407   0.00000  Uiso   1.00
H892   H     0.47946   0.42874   0.88799   0.00000  Uiso   1.00
H893   H     0.50894   0.57423   0.89113   0.00000  Uiso   1.00
H894   H     0.43952   0.46547   0.60992   0.00000  Uiso   1.00
H895   H     0.37046   0.42500   0.75002   0.00000  Uiso   1.00
H896   H     0.62954   0.57406   0.74781   0.00000  Uiso   1.00
H897   H     0.62932   0.42496   0.74813   0.00000  Uiso   1.00
H898   H     0.37047   0.57430   0.75372   0.00000  Uiso   1.00
N899   N     0.50000   0.61736   0.75000   0.00000  Uiso   1.00
N900   N     0.50000   0.38264   0.75000   0.00000  Uiso   1.00
O901   O     0.43988   0.53958   0.74999   0.00000  Uiso   1.00
O902   O     0.56012   0.46042   0.75001   0.00000  Uiso   1.00
O903   O     0.56012   0.53958   0.75000   0.00000  Uiso   1.00
O904   O     0.43988   0.46042   0.74999   0.00000  Uiso   1.00
O905   O     0.50000   0.53959   0.68573   0.00000  Uiso   1.00
O906   O     0.50000   0.46041   0.81427   0.00000  Uiso   1.00
O907   O     0.50000   0.53959   0.81427   0.00000  Uiso   1.00
O908   O     0.50000   0.46041   0.68573   0.00000  Uiso   1.00
C909   C     0.45321   0.38076   0.68217   0.00000  Uiso   1.00
O910   O     0.41992   0.39854   0.68801   0.00000  Uiso   1.00
O911   O     0.46750   0.37709   0.63943   0.00000  Uiso   1.00
H912   H     0.44628   0.38715   0.61565   0.00000  Uiso   1.00
C913   C     0.56216   0.62088   0.80278   0.00000  Uiso   1.00
O914   O     0.55748   0.59438   0.83319   0.00000  Uiso   1.00
O915   O     0.60181   0.63580   0.79415   0.00000  Uiso   1.00
H916   H     0.62383   0.62155   0.81483   0.00000  Uiso   1.00
C917   C     0.54778   0.38196   0.81728   0.00000  Uiso   1.00
O918   O     0.57964   0.40250   0.81086   0.00000  Uiso   1.00
O919   O     0.53573   0.37578   0.86057   0.00000  Uiso   1.00
H920   H     0.55495   0.39169   0.88351   0.00000  Uiso   1.00
C921   C     0.44949   0.61725   0.68537   0.00000  Uiso   1.00
O922   O     0.46259   0.61035   0.64866   0.00000  Uiso   1.00
O923   O     0.40854   0.60736   0.69301   0.00000  Uiso   1.00
H924   H     0.39346   0.59202   0.66648   0.00000  Uiso   1.00
C925   C     0.75417   0.49994   0.75040   0.00000  Uiso   1.00
C926   C     0.91248   0.49995   0.74955   0.00000  Uiso   1.00
C927   C     0.83292   0.49992   0.66527   0.00000  Uiso   1.00
C928   C     0.83233   0.50021   0.83497   0.00000  Uiso   1.00
C929   C     0.80974   0.35763   0.71900   0.00000  Uiso   1.00
C930   C     0.85978   0.64251   0.77834   0.00000  Uiso   1.00
C931   C     0.85768   0.35832   0.78028   0.00000  Uiso   1.00
C932   C     0.80886   0.64164   0.71977   0.00000  Uiso   1.00
C933   C     0.68791   0.45779   0.74992   0.00000  Uiso   1.00
C934   C     0.97875   0.54144   0.74938   0.00000  Uiso   1.00
C935   C     0.97862   0.45777   0.74904   0.00000  Uiso   1.00
C936   C     0.68797   0.54150   0.75151   0.00000  Uiso   1.00
C937   C     0.86157   0.52259   0.54922   0.00000  Uiso   1.00
C938   C     0.81899   0.46076   0.95199   0.00000  Uiso   1.00
C939   C     0.83567   0.54234   0.95357   0.00000  Uiso   1.00
C940   C     0.79686   0.48041   0.54685   0.00000  Uiso   1.00
C941   C     0.86300   0.52200   0.59539   0.00000  Uiso   1.00
C942   C     0.81993   0.46048   0.90592   0.00000  Uiso   1.00
C943   C     0.83636   0.54210   0.90755   0.00000  Uiso   1.00
C944   C     0.79824   0.48015   0.59302   0.00000  Uiso   1.00
C945   C     0.83166   0.50010   0.61722   0.00000  Uiso   1.00
C946   C     0.82971   0.50088   0.88339   0.00000  Uiso   1.00
C947   C     0.82862   0.50150   0.52471   0.00000  Uiso   1.00
C948   C     0.82754   0.50155   0.97608   0.00000  Uiso   1.00
C949   C     0.95715   0.49969   0.74910   0.00000  Uiso   1.00
C950   C     0.70949   0.49973   0.75083   0.00000  Uiso   1.00
Cu951  Cu    0.83333   0.54689   0.75000   0.00000  Uiso   1.00
Cu952  Cu    0.83333   0.45311   0.75000   0.00000  Uiso   1.00
H953   H     0.88640   0.53890   0.53264   0.00000  Uiso   1.00
H954   H     0.81234   0.42898   0.96887   0.00000  Uiso   1.00
H955   H     0.84135   0.57440   0.97162   0.00000  Uiso   1.00
H956   H     0.77075   0.46493   0.52844   0.00000  Uiso   1.00
H957   H     0.88865   0.53813   0.61407   0.00000  Uiso   1.00
H958   H     0.81280   0.42874   0.88799   0.00000  Uiso   1.00
H959   H     0.84227   0.57423   0.89113   0.00000  Uiso   1.00
H960   H     0.77285   0.46547   0.60992   0.00000  Uiso   1.00
H961   H     0.70379   0.42500   0.75002   0.00000  Uiso   1.00
H962   H     0.96287   0.57406   0.74781   0.00000  Uiso   1.00
H963   H     0.96265   0.42496   0.74813   0.00000  Uiso   1.00
H964   H     0.70380   0.57430   0.75372   0.00000  Uiso   1.00
N965   N     0.83333   0.61736   0.75000   0.00000  Uiso   1.00
N966   N     0.83333   0.38264   0.75000   0.00000  Uiso   1.00
O967   O     0.77321   0.53958   0.74999   0.00000  Uiso   1.00
O968   O     0.89345   0.46042   0.75001   0.00000  Uiso   1.00
O969   O     0.89345   0.53958   0.75000   0.00000  Uiso   1.00
O970   O     0.77321   0.46042   0.74999   0.00000  Uiso   1.00
O971   O     0.83333   0.53959   0.68573   0.00000  Uiso   1.00
O972   O     0.83334   0.46041   0.81427   0.00000  Uiso   1.00
O973   O     0.83334   0.53959   0.81427   0.00000  Uiso   1.00
O974   O     0.83333   0.46041   0.68573   0.00000  Uiso   1.00
C975   C     0.78654   0.38076   0.68217   0.00000  Uiso   1.00
O976   O     0.75325   0.39854   0.68801   0.00000  Uiso   1.00
O977   O     0.80084   0.37709   0.63943   0.00000  Uiso   1.00
H978   H     0.77961   0.38715   0.61565   0.00000  Uiso   1.00
C979   C     0.89550   0.62088   0.80278   0.00000  Uiso   1.00
O980   O     0.89082   0.59438   0.83319   0.00000  Uiso   1.00
O981   O     0.93514   0.63580   0.79415   0.00000  Uiso   1.00
H982   H     0.95716   0.62155   0.81483   0.00000  Uiso   1.00
C983   C     0.88112   0.38196   0.81728   0.00000  Uiso   1.00
O984   O     0.91298   0.40250   0.81086   0.00000  Uiso   1.00
O985   O     0.86906   0.37578   0.86057   0.00000  Uiso   1.00
H986   H     0.88828   0.39169   0.88351   0.00000  Uiso   1.00
C987   C     0.78282   0.61725   0.68537   0.00000  Uiso   1.00
O988   O     0.79592   0.61035   0.64866   0.00000  Uiso   1.00
O989   O     0.74187   0.60736   0.69301   0.00000  Uiso   1.00
H990   H     0.72679   0.59202   0.66648   0.00000  Uiso   1.00
C991   C     0.08751   0.83328   0.75040   0.00000  Uiso   1.00
C992   C     0.24582   0.83329   0.74955   0.00000  Uiso   1.00
C993   C     0.16625   0.83325   0.66527   0.00000  Uiso   1.00
C994   C     0.16566   0.83355   0.83497   0.00000  Uiso   1.00
C995   C     0.14307   0.69096   0.71900   0.00000  Uiso   1.00
C996   C     0.19311   0.97584   0.77834   0.00000  Uiso   1.00
C997   C     0.19101   0.69165   0.78028   0.00000  Uiso   1.00
C998   C     0.14220   0.97498   0.71977   0.00000  Uiso   1.00
C999   C     0.02124   0.79113   0.74992   0.00000  Uiso   1.00
C1000  C     0.31209   0.87477   0.74938   0.00000  Uiso   1.00
C1001  C     0.31195   0.79111   0.74904   0.00000  Uiso   1.00
C1002  C     0.02130   0.87484   0.75151   0.00000  Uiso   1.00
C1003  C     0.19490   0.85592   0.54922   0.00000  Uiso   1.00
C1004  C     0.15232   0.79409   0.95199   0.00000  Uiso   1.00
C1005  C     0.16900   0.87567   0.95357   0.00000  Uiso   1.00
C1006  C     0.13019   0.81375   0.54685   0.00000  Uiso   1.00
C1007  C     0.19633   0.85533   0.59539   0.00000  Uiso   1.00
C1008  C     0.15327   0.79381   0.90592   0.00000  Uiso   1.00
C1009  C     0.16970   0.87544   0.90755   0.00000  Uiso   1.00
C1010  C     0.13157   0.81348   0.59302   0.00000  Uiso   1.00
C1011  C     0.16500   0.83343   0.61722   0.00000  Uiso   1.00
C1012  C     0.16305   0.83421   0.88339   0.00000  Uiso   1.00
C1013  C     0.16195   0.83483   0.52471   0.00000  Uiso   1.00
C1014  C     0.16087   0.83488   0.97608   0.00000  Uiso   1.00
C1015  C     0.29048   0.83303   0.74910   0.00000  Uiso   1.00
C1016  C     0.04282   0.83306   0.75083   0.00000  Uiso   1.00
Cu1017 Cu    0.16667   0.88022   0.75000   0.00000  Uiso   1.00
Cu1018 Cu    0.16667   0.78645   0.75000   0.00000  Uiso   1.00
H1019  H     0.21974   0.87223   0.53264   0.00000  Uiso   1.00
H1020  H     0.14567   0.76231   0.96887   0.00000  Uiso   1.00
H1021  H     0.17468   0.90774   0.97162   0.00000  Uiso   1.00
H1022  H     0.10408   0.79826   0.52844   0.00000  Uiso   1.00
H1023  H     0.22198   0.87146   0.61407   0.00000  Uiso   1.00
H1024  H     0.14613   0.76207   0.88799   0.00000  Uiso   1.00
H1025  H     0.17561   0.90756   0.89113   0.00000  Uiso   1.00
H1026  H     0.10619   0.79881   0.60992   0.00000  Uiso   1.00
H1027  H     0.03713   0.75833   0.75002   0.00000  Uiso   1.00
H1028  H     0.29621   0.90739   0.74781   0.00000  Uiso   1.00
H1029  H     0.29598   0.75829   0.74813   0.00000  Uiso   1.00
H1030  H     0.03713   0.90764   0.75372   0.00000  Uiso   1.00
N1031  N     0.16667   0.95069   0.75000   0.00000  Uiso   1.00
N1032  N     0.16667   0.71598   0.75000   0.00000  Uiso   1.00
O1033  O     0.10655   0.87291   0.74999   0.00000  Uiso   1.00
O1034  O     0.22679   0.79375   0.75001   0.00000  Uiso   1.00
O1035  O     0.22679   0.87291   0.75000   0.00000  Uiso   1.00
O1036  O     0.10655   0.79375   0.74999   0.00000  Uiso   1.00
O1037  O     0.16666   0.87293   0.68573   0.00000  Uiso   1.00
O1038  O     0.16667   0.79374   0.81427   0.00000  Uiso   1.00
O1039  O     0.16667   0.87293   0.81427   0.00000  Uiso   1.00
O1040  O     0.16666   0.79374   0.68573   0.00000  Uiso   1.00
C1041  C     0.11987   0.71409   0.68217   0.00000  Uiso   1.00
O1042  O     0.08658   0.73187   0.68801   0.00000  Uiso   1.00
O1043  O     0.13417   0.71043   0.63943   0.00000  Uiso   1.00
H1044  H     0.11295   0.72049   0.61565   0.00000  Uiso   1.00
C1045  C     0.22883   0.95421   0.80278   0.00000  Uiso   1.00
O1046  O     0.22415   0.92772   0.83319   0.00000  Uiso   1.00
O1047  O     0.26847   0.96914   0.79415   0.00000  Uiso   1.00
H1048  H     0.29050   0.95489   0.81483   0.00000  Uiso   1.00
C1049  C     0.21445   0.71529   0.81728   0.00000  Uiso   1.00
O1050  O     0.24631   0.73584   0.81086   0.00000  Uiso   1.00
O1051  O     0.20239   0.70912   0.86057   0.00000  Uiso   1.00
H1052  H     0.22161   0.72503   0.88351   0.00000  Uiso   1.00
C1053  C     0.11616   0.95059   0.68537   0.00000  Uiso   1.00
O1054  O     0.12925   0.94368   0.64866   0.00000  Uiso   1.00
O1055  O     0.07521   0.94069   0.69301   0.00000  Uiso   1.00
H1056  H     0.06012   0.92535   0.66648   0.00000  Uiso   1.00
C1057  C     0.42084   0.83328   0.75040   0.00000  Uiso   1.00
C1058  C     0.57915   0.83329   0.74955   0.00000  Uiso   1.00
C1059  C     0.49958   0.83325   0.66527   0.00000  Uiso   1.00
C1060  C     0.49899   0.83355   0.83497   0.00000  Uiso   1.00
C1061  C     0.47641   0.69096   0.71900   0.00000  Uiso   1.00
C1062  C     0.52645   0.97584   0.77834   0.00000  Uiso   1.00
C1063  C     0.52435   0.69165   0.78028   0.00000  Uiso   1.00
C1064  C     0.47553   0.97498   0.71977   0.00000  Uiso   1.00
C1065  C     0.35458   0.79113   0.74992   0.00000  Uiso   1.00
C1066  C     0.64542   0.87477   0.74938   0.00000  Uiso   1.00
C1067  C     0.64529   0.79111   0.74904   0.00000  Uiso   1.00
C1068  C     0.35464   0.87484   0.75151   0.00000  Uiso   1.00
C1069  C     0.52823   0.85592   0.54922   0.00000  Uiso   1.00
C1070  C     0.48566   0.79409   0.95199   0.00000  Uiso   1.00
C1071  C     0.50234   0.87567   0.95357   0.00000  Uiso   1.00
C1072  C     0.46352   0.81375   0.54685   0.00000  Uiso   1.00
C1073  C     0.52966   0.85533   0.59539   0.00000  Uiso   1.00
C1074  C     0.48660   0.79381   0.90592   0.00000  Uiso   1.00
C1075  C     0.50303   0.87544   0.90755   0.00000  Uiso   1.00
C1076  C     0.46491   0.81348   0.59302   0.00000  Uiso   1.00
C1077  C     0.49833   0.83343   0.61722   0.00000  Uiso   1.00
C1078  C     0.49638   0.83421   0.88339   0.00000  Uiso   1.00
C1079  C     0.49529   0.83483   0.52471   0.00000  Uiso   1.00
C1080  C     0.49421   0.83488   0.97608   0.00000  Uiso   1.00
C1081  C     0.62382   0.83303   0.74910   0.00000  Uiso   1.00
C1082  C     0.37616   0.83306   0.75083   0.00000  Uiso   1.00
Cu1083 Cu    0.50000   0.88022   0.75000   0.00000  Uiso   1.00
Cu1084 Cu    0.50000   0.78645   0.75000   0.00000  Uiso   1.00
H1085  H     0.55307   0.87223   0.53264   0.00000  Uiso   1.00
H1086  H     0.47901   0.76231   0.96887   0.00000  Uiso   1.00
H1087  H     0.50801   0.90774   0.97162   0.00000  Uiso   1.00
H1088  H     0.43742   0.79826   0.52844   0.00000  Uiso   1.00
H1089  H     0.55531   0.87146   0.61407   0.00000  Uiso   1.00
H1090  H     0.47946   0.76207   0.88799   0.00000  Uiso   1.00
H1091  H     0.50894   0.90756   0.89113   0.00000  Uiso   1.00
H1092  H     0.43952   0.79881   0.60992   0.00000  Uiso   1.00
H1093  H     0.37046   0.75833   0.75002   0.00000  Uiso   1.00
H1094  H     0.62954   0.90739   0.74781   0.00000  Uiso   1.00
H1095  H     0.62932   0.75829   0.74813   0.00000  Uiso   1.00
H1096  H     0.37047   0.90764   0.75372   0.00000  Uiso   1.00
N1097  N     0.50000   0.95069   0.75000   0.00000  Uiso   1.00
N1098  N     0.50000   0.71598   0.75000   0.00000  Uiso   1.00
O1099  O     0.43988   0.87291   0.74999   0.00000  Uiso   1.00
O1100  O     0.56012   0.79375   0.75001   0.00000  Uiso   1.00
O1101  O     0.56012   0.87291   0.75000   0.00000  Uiso   1.00
O1102  O     0.43988   0.79375   0.74999   0.00000  Uiso   1.00
O1103  O     0.50000   0.87293   0.68573   0.00000  Uiso   1.00
O1104  O     0.50000   0.79374   0.81427   0.00000  Uiso   1.00
O1105  O     0.50000   0.87293   0.81427   0.00000  Uiso   1.00
O1106  O     0.50000   0.79374   0.68573   0.00000  Uiso   1.00
C1107  C     0.45321   0.71409   0.68217   0.00000  Uiso   1.00
O1108  O     0.41992   0.73187   0.68801   0.00000  Uiso   1.00
O1109  O     0.46750   0.71043   0.63943   0.00000  Uiso   1.00
H1110  H     0.44628   0.72049   0.61565   0.00000  Uiso   1.00
C1111  C     0.56216   0.95421   0.80278   0.00000  Uiso   1.00
O1112  O     0.55748   0.92772   0.83319   0.00000  Uiso   1.00
O1113  O     0.60181   0.96914   0.79415   0.00000  Uiso   1.00
H1114  H     0.62383   0.95489   0.81483   0.00000  Uiso   1.00
C1115  C     0.54778   0.71529   0.81728   0.00000  Uiso   1.00
O1116  O     0.57964   0.73584   0.81086   0.00000  Uiso   1.00
O1117  O     0.53573   0.70912   0.86057   0.00000  Uiso   1.00
H1118  H     0.55495   0.72503   0.88351   0.00000  Uiso   1.00
C1119  C     0.44949   0.95059   0.68537   0.00000  Uiso   1.00
O1120  O     0.46259   0.94368   0.64866   0.00000  Uiso   1.00
O1121  O     0.40854   0.94069   0.69301   0.00000  Uiso   1.00
H1122  H     0.39346   0.92535   0.66648   0.00000  Uiso   1.00
C1123  C     0.75417   0.83328   0.75040   0.00000  Uiso   1.00
C1124  C     0.91248   0.83329   0.74955   0.00000  Uiso   1.00
C1125  C     0.83292   0.83325   0.66527   0.00000  Uiso   1.00
C1126  C     0.83233   0.83355   0.83497   0.00000  Uiso   1.00
C1127  C     0.80974   0.69096   0.71900   0.00000  Uiso   1.00
C1128  C     0.85978   0.97584   0.77834   0.00000  Uiso   1.00
C1129  C     0.85768   0.69165   0.78028   0.00000  Uiso   1.00
C1130  C     0.80886   0.97498   0.71977   0.00000  Uiso   1.00
C1131  C     0.68791   0.79113   0.74992   0.00000  Uiso   1.00
C1132  C     0.97875   0.87477   0.74938   0.00000  Uiso   1.00
C1133  C     0.97862   0.79111   0.74904   0.00000  Uiso   1.00
C1134  C     0.68797   0.87484   0.75151   0.00000  Uiso   1.00
C1135  C     0.86157   0.85592   0.54922   0.00000  Uiso   1.00
C1136  C     0.81899   0.79409   0.95199   0.00000  Uiso   1.00
C1137  C     0.83567   0.87567   0.95357   0.00000  Uiso   1.00
C1138  C     0.79686   0.81375   0.54685   0.00000  Uiso   1.00
C1139  C     0.86300   0.85533   0.59539   0.00000  Uiso   1.00
C1140  C     0.81993   0.79381   0.90592   0.00000  Uiso   1.00
C1141  C     0.83636   0.87544   0.90755   0.00000  Uiso   1.00
C1142  C     0.79824   0.81348   0.59302   0.00000  Uiso   1.00
C1143  C     0.83166   0.83343   0.61722   0.00000  Uiso   1.00
C1144  C     0.82971   0.83421   0.88339   0.00000  Uiso   1.00
C1145  C     0.82862   0.83483   0.52471   0.00000  Uiso   1.00
C1146  C     0.82754   0.83488   0.97608   0.00000  Uiso   1.00
C1147  C     0.95715   0.83303   0.74910   0.00000  Uiso   1.00
C1148  C     0.70949   0.83306   0.75083   0.00000  Uiso   1.00
Cu1149 Cu    0.83333   0.88022   0.75000   0.00000  Uiso   1.00
Cu1150 Cu    0.83333   0.78645   0.75000   0.00000  Uiso   1.00
H1151  H     0.88640   0.87223   0.53264   0.00000  Uiso   1.00
H1152  H     0.81234   0.76231   0.96887   0.00000  Uiso   1.00
H1153  H     0.84135   0.90774   0.97162   0.00000  Uiso   1.00
H1154  H     0.77075   0.79826   0.52844   0.00000  Uiso   1.00
H1155  H     0.88865   0.87146   0.61407   0.00000  Uiso   1.00
H1156  H     0.81280   0.76207   0.88799   0.00000  Uiso   1.00
H1157  H     0.84227   0.90756   0.89113   0.00000  Uiso   1.00
H1158  H     0.77285   0.79881   0.60992   0.00000  Uiso   1.00
H1159  H     0.70379   0.75833   0.75002   0.00000  Uiso   1.00
H1160  H     0.96287   0.90739   0.74781   0.00000  Uiso   1.00
H1161  H     0.96265   0.75829   0.74813   0.00000  Uiso   1.00
H1162  H     0.70380   0.90764   0.75372   0.00000  Uiso   1.00
N1163  N     0.83333   0.95069   0.75000   0.00000  Uiso   1.00
N1164  N     0.83333   0.71598   0.75000   0.00000  Uiso   1.00
O1165  O     0.77321   0.87291   0.74999   0.00000  Uiso   1.00
O1166  O     0.89345   0.79375   0.75001   0.00000  Uiso   1.00
O1167  O     0.89345   0.87291   0.75000   0.00000  Uiso   1.00
O1168  O     0.77321   0.79375   0.74999   0.00000  Uiso   1.00
O1169  O     0.83333   0.87293   0.68573   0.00000  Uiso   1.00
O1170  O     0.83334   0.79374   0.81427   0.00000  Uiso   1.00
O1171  O     0.83334   0.87293   0.81427   0.00000  Uiso   1.00
O1172  O     0.83333   0.79374   0.68573   0.00000  Uiso   1.00
C1173  C     0.78654   0.71409   0.68217   0.00000  Uiso   1.00
O1174  O     0.75325   0.73187   0.68801   0.00000  Uiso   1.00
O1175  O     0.80084   0.71043   0.63943   0.00000  Uiso   1.00
H1176  H     0.77961   0.72049   0.61565   0.00000  Uiso   1.00
C1177  C     0.89550   0.95421   0.80278   0.00000  Uiso   1.00
O1178  O     0.89082   0.92772   0.83319   0.00000  Uiso   1.00
O1179  O     0.93514   0.96914   0.79415   0.00000  Uiso   1.00
H1180  H     0.95716   0.95489   0.81483   0.00000  Uiso   1.00
C1181  C     0.88112   0.71529   0.81728   0.00000  Uiso   1.00
O1182  O     0.91298   0.73584   0.81086   0.00000  Uiso   1.00
O1183  O     0.86906   0.70912   0.86057   0.00000  Uiso   1.00
H1184  H     0.88828   0.72503   0.88351   0.00000  Uiso   1.00
C1185  C     0.78282   0.95059   0.68537   0.00000  Uiso   1.00
O1186  O     0.79592   0.94368   0.64866   0.00000  Uiso   1.00
O1187  O     0.74187   0.94069   0.69301   0.00000  Uiso   1.00
H1188  H     0.72679   0.92535   0.66648   0.00000  Uiso   1.00
loop_
_geom_bond_atom_site_label_1
_geom_bond_atom_site_label_2
_geom_bond_distance
_geom_bond_site_symmetry_2
_ccdc_geom_bond_type
C1     C26     1.454   .     S
C1     O43     1.305   .     A
C1     O46     1.303   .     A
C2     O44     1.302   .     A
C2     C25     1.453   .     S
C2     O45     1.305   .     A
C3     O50     1.305   .     A
C3     C21     1.448   .     S
C3     O47     1.300   .     A
C4     C22     1.468   .     S
C4     O49     1.307   .     A
C4     O48     1.308   .     A
C5     N42     1.377   .     A
C5     C51     1.474   .     S
C5     C404    1.430   1_545 S
C6     C55     1.484   .     S
C6     N41     1.381   .     A
C6     C205    1.427   .     S
C7     C59     1.479   .     S
C7     N42     1.375   .     A
C7     C402    1.427   1_545 S
C8     N41     1.376   .     A
C8     C63     1.477   .     S
C8     C203    1.430   .     S
C9     H37     1.082   .     S
C9     C26     1.402   .     A
C9     C143    1.385   1_455 S
C10    H38     1.078   .     S
C10    C25     1.398   .     A
C10    C78     1.382   .     S
C11    H39     1.082   .     S
C11    C25     1.402   .     A
C11    C75     1.385   .     S
C12    H40     1.080   .     S
C12    C26     1.400   .     A
C12    C142    1.382   1_455 S
C13    C17     1.391   .     A
C13    C23     1.404   .     A
C13    H29     1.083   .     S
C14    C18     1.392   .     A
C14    H30     1.083   .     S
C14    C24     1.402   .     A
C15    C19     1.389   .     A
C15    H31     1.083   .     S
C15    C24     1.400   .     A
C16    H32     1.083   .     S
C16    C23     1.403   .     A
C16    C20     1.391   .     A
C17    H33     1.084   .     S
C17    C21     1.398   .     A
C18    H34     1.081   .     S
C18    C22     1.403   .     A
C19    H35     1.080   .     S
C19    C22     1.404   .     A
C20    H36     1.082   .     S
C20    C21     1.397   .     A
C23    C618    1.465   1_554 S
C24    C617    1.465   .     S
Cu27   O47     1.948   .     S
Cu27   O45     1.967   .     S
Cu27   O49     1.952   .     S
Cu27   O43     1.966   .     S
Cu27   Cu28    2.717   .     S
Cu27   N41     2.042   .     S
Cu28   O48     1.948   .     S
Cu28   O46     1.967   .     S
Cu28   N42     2.042   .     S
Cu28   O50     1.952   .     S
Cu28   O44     1.966   .     S
C51    O52     1.220   .     D
C51    O53     1.398   .     S
O53    H54     1.012   .     S
C55    O56     1.217   .     D
C55    O57     1.398   .     S
O57    H58     1.014   .     S
C59    O60     1.220   .     D
C59    O61     1.396   .     S
O61    H62     1.014   .     S
C63    O65     1.394   .     S
C63    O64     1.223   .     D
O65    H66     1.014   .     S
C67    C92     1.454   .     S
C67    O109    1.305   .     A
C67    O112    1.303   .     A
C68    O110    1.302   .     A
C68    C91     1.453   .     S
C68    O111    1.305   .     A
C69    O116    1.305   .     A
C69    C87     1.448   .     S
C69    O113    1.300   .     A
C70    C88     1.468   .     S
C70    O115    1.307   .     A
C70    O114    1.308   .     A
C71    N108    1.377   .     A
C71    C117    1.474   .     S
C71    C470    1.430   1_545 S
C72    C121    1.484   .     S
C72    N107    1.381   .     A
C72    C271    1.427   .     S
C73    C125    1.479   .     S
C73    N108    1.375   .     A
C73    C468    1.427   1_545 S
C74    N107    1.376   .     A
C74    C129    1.477   .     S
C74    C269    1.430   .     S
C75    H103    1.082   .     S
C75    C92     1.402   .     A
C76    H104    1.078   .     S
C76    C91     1.398   .     A
C76    C144    1.382   .     S
C77    H105    1.082   .     S
C77    C91     1.402   .     A
C77    C141    1.385   .     S
C78    H106    1.080   .     S
C78    C92     1.400   .     A
C79    C83     1.391   .     A
C79    C89     1.404   .     A
C79    H95     1.083   .     S
C80    C84     1.392   .     A
C80    H96     1.083   .     S
C80    C90     1.402   .     A
C81    C85     1.389   .     A
C81    H97     1.083   .     S
C81    C90     1.400   .     A
C82    H98     1.083   .     S
C82    C89     1.403   .     A
C82    C86     1.391   .     A
C83    H99     1.084   .     S
C83    C87     1.398   .     A
C84    H100    1.081   .     S
C84    C88     1.403   .     A
C85    H101    1.080   .     S
C85    C88     1.404   .     A
C86    H102    1.082   .     S
C86    C87     1.397   .     A
C89    C684    1.465   1_554 S
C90    C683    1.465   .     S
Cu93   O113    1.948   .     S
Cu93   O111    1.967   .     S
Cu93   O115    1.952   .     S
Cu93   O109    1.966   .     S
Cu93   Cu94    2.717   .     S
Cu93   N107    2.042   .     S
Cu94   O114    1.948   .     S
Cu94   O112    1.967   .     S
Cu94   N108    2.042   .     S
Cu94   O116    1.952   .     S
Cu94   O110    1.966   .     S
C117   O118    1.220   .     D
C117   O119    1.398   .     S
O119   H120    1.012   .     S
C121   O122    1.217   .     D
C121   O123    1.398   .     S
O123   H124    1.014   .     S
C125   O126    1.220   .     D
C125   O127    1.396   .     S
O127   H128    1.014   .     S
C129   O131    1.394   .     S
C129   O130    1.223   .     D
O131   H132    1.014   .     S
C133   C158    1.454   .     S
C133   O175    1.305   .     A
C133   O178    1.303   .     A
C134   O176    1.302   .     A
C134   C157    1.453   .     S
C134   O177    1.305   .     A
C135   O182    1.305   .     A
C135   C153    1.448   .     S
C135   O179    1.300   .     A
C136   C154    1.468   .     S
C136   O181    1.307   .     A
C136   O180    1.308   .     A
C137   N174    1.377   .     A
C137   C183    1.474   .     S
C137   C536    1.430   1_545 S
C138   C187    1.484   .     S
C138   N173    1.381   .     A
C138   C337    1.427   .     S
C139   C191    1.479   .     S
C139   N174    1.375   .     A
C139   C534    1.427   1_545 S
C140   N173    1.376   .     A
C140   C195    1.477   .     S
C140   C335    1.430   .     S
C141   H169    1.082   .     S
C141   C158    1.402   .     A
C142   H170    1.078   .     S
C142   C157    1.398   .     A
C142   C12     1.382   1_655 S
C143   H171    1.082   .     S
C143   C157    1.402   .     A
C143   C9      1.385   1_655 S
C144   H172    1.080   .     S
C144   C158    1.400   .     A
C145   C149    1.391   .     A
C145   C155    1.404   .     A
C145   H161    1.083   .     S
C146   C150    1.392   .     A
C146   H162    1.083   .     S
C146   C156    1.402   .     A
C147   C151    1.389   .     A
C147   H163    1.083   .     S
C147   C156    1.400   .     A
C148   H164    1.083   .     S
C148   C155    1.403   .     A
C148   C152    1.391   .     A
C149   H165    1.084   .     S
C149   C153    1.398   .     A
C150   H166    1.081   .     S
C150   C154    1.403   .     A
C151   H167    1.080   .     S
C151   C154    1.404   .     A
C152   H168    1.082   .     S
C152   C153    1.397   .     A
C155   C750    1.465   1_554 S
C156   C749    1.465   .     S
Cu159  O179    1.948   .     S
Cu159  O177    1.967   .     S
Cu159  O181    1.952   .     S
Cu159  O175    1.966   .     S
Cu159  Cu160   2.717   .     S
Cu159  N173    2.042   .     S
Cu160  O180    1.948   .     S
Cu160  O178    1.967   .     S
Cu160  N174    2.042   .     S
Cu160  O182    1.952   .     S
Cu160  O176    1.966   .     S
C183   O184    1.220   .     D
C183   O185    1.398   .     S
O185   H186    1.012   .     S
C187   O188    1.217   .     D
C187   O189    1.398   .     S
O189   H190    1.014   .     S
C191   O192    1.220   .     D
C191   O193    1.396   .     S
O193   H194    1.014   .     S
C195   O197    1.394   .     S
C195   O196    1.223   .     D
O197   H198    1.014   .     S
C199   C224    1.454   .     S
C199   O241    1.305   .     A
C199   O244    1.303   .     A
C200   O242    1.302   .     A
C200   C223    1.453   .     S
C200   O243    1.305   .     A
C201   O248    1.305   .     A
C201   C219    1.448   .     S
C201   O245    1.300   .     A
C202   C220    1.468   .     S
C202   O247    1.307   .     A
C202   O246    1.308   .     A
C203   N240    1.377   .     A
C203   C249    1.474   .     S
C204   C253    1.484   .     S
C204   N239    1.381   .     A
C204   C403    1.427   .     S
C205   C257    1.479   .     S
C205   N240    1.375   .     A
C206   N239    1.376   .     A
C206   C261    1.477   .     S
C206   C401    1.430   .     S
C207   H235    1.082   .     S
C207   C224    1.402   .     A
C207   C341    1.385   1_455 S
C208   H236    1.078   .     S
C208   C223    1.398   .     A
C208   C276    1.382   .     S
C209   H237    1.082   .     S
C209   C223    1.402   .     A
C209   C273    1.385   .     S
C210   H238    1.080   .     S
C210   C224    1.400   .     A
C210   C340    1.382   1_455 S
C211   C215    1.391   .     A
C211   C221    1.404   .     A
C211   H227    1.083   .     S
C212   C216    1.392   .     A
C212   H228    1.083   .     S
C212   C222    1.402   .     A
C213   C217    1.389   .     A
C213   H229    1.083   .     S
C213   C222    1.400   .     A
C214   H230    1.083   .     S
C214   C221    1.403   .     A
C214   C218    1.391   .     A
C215   H231    1.084   .     S
C215   C219    1.398   .     A
C216   H232    1.081   .     S
C216   C220    1.403   .     A
C217   H233    1.080   .     S
C217   C220    1.404   .     A
C218   H234    1.082   .     S
C218   C219    1.397   .     A
C221   C816    1.465   1_554 S
C222   C815    1.465   .     S
Cu225  O245    1.948   .     S
Cu225  O243    1.967   .     S
Cu225  O247    1.952   .     S
Cu225  O241    1.966   .     S
Cu225  Cu226   2.717   .     S
Cu225  N239    2.042   .     S
Cu226  O246    1.948   .     S
Cu226  O244    1.967   .     S
Cu226  N240    2.042   .     S
Cu226  O248    1.952   .     S
Cu226  O242    1.966   .     S
C249   O250    1.220   .     D
C249   O251    1.398   .     S
O251   H252    1.012   .     S
C253   O254    1.217   .     D
C253   O255    1.398   .     S
O255   H256    1.014   .     S
C257   O258    1.220   .     D
C257   O259    1.396   .     S
O259   H260    1.014   .     S
C261   O263    1.394   .     S
C261   O262    1.223   .     D
O263   H264    1.014   .     S
C265   C290    1.454   .     S
C265   O307    1.305   .     A
C265   O310    1.303   .     A
C266   O308    1.302   .     A
C266   C289    1.453   .     S
C266   O309    1.305   .     A
C267   O314    1.305   .     A
C267   C285    1.448   .     S
C267   O311    1.300   .     A
C268   C286    1.468   .     S
C268   O313    1.307   .     A
C268   O312    1.308   .     A
C269   N306    1.377   .     A
C269   C315    1.474   .     S
C270   C319    1.484   .     S
C270   N305    1.381   .     A
C270   C469    1.427   .     S
C271   C323    1.479   .     S
C271   N306    1.375   .     A
C272   N305    1.376   .     A
C272   C327    1.477   .     S
C272   C467    1.430   .     S
C273   H301    1.082   .     S
C273   C290    1.402   .     A
C274   H302    1.078   .     S
C274   C289    1.398   .     A
C274   C342    1.382   .     S
C275   H303    1.082   .     S
C275   C289    1.402   .     A
C275   C339    1.385   .     S
C276   H304    1.080   .     S
C276   C290    1.400   .     A
C277   C281    1.391   .     A
C277   C287    1.404   .     A
C277   H293    1.083   .     S
C278   C282    1.392   .     A
C278   H294    1.083   .     S
C278   C288    1.402   .     A
C279   C283    1.389   .     A
C279   H295    1.083   .     S
C279   C288    1.400   .     A
C280   H296    1.083   .     S
C280   C287    1.403   .     A
C280   C284    1.391   .     A
C281   H297    1.084   .     S
C281   C285    1.398   .     A
C282   H298    1.081   .     S
C282   C286    1.403   .     A
C283   H299    1.080   .     S
C283   C286    1.404   .     A
C284   H300    1.082   .     S
C284   C285    1.397   .     A
C287   C882    1.465   1_554 S
C288   C881    1.465   .     S
Cu291  O311    1.948   .     S
Cu291  O309    1.967   .     S
Cu291  O313    1.952   .     S
Cu291  O307    1.966   .     S
Cu291  Cu292   2.717   .     S
Cu291  N305    2.042   .     S
Cu292  O312    1.948   .     S
Cu292  O310    1.967   .     S
Cu292  N306    2.042   .     S
Cu292  O314    1.952   .     S
Cu292  O308    1.966   .     S
C315   O316    1.220   .     D
C315   O317    1.398   .     S
O317   H318    1.012   .     S
C319   O320    1.217   .     D
C319   O321    1.398   .     S
O321   H322    1.014   .     S
C323   O324    1.220   .     D
C323   O325    1.396   .     S
O325   H326    1.014   .     S
C327   O329    1.394   .     S
C327   O328    1.223   .     D
O329   H330    1.014   .     S
C331   C356    1.454   .     S
C331   O373    1.305   .     A
C331   O376    1.303   .     A
C332   O374    1.302   .     A
C332   C355    1.453   .     S
C332   O375    1.305   .     A
C333   O380    1.305   .     A
C333   C351    1.448   .     S
C333   O377    1.300   .     A
C334   C352    1.468   .     S
C334   O379    1.307   .     A
C334   O378    1.308   .     A
C335   N372    1.377   .     A
C335   C381    1.474   .     S
C336   C385    1.484   .     S
C336   N371    1.381   .     A
C336   C535    1.427   .     S
C337   C389    1.479   .     S
C337   N372    1.375   .     A
C338   N371    1.376   .     A
C338   C393    1.477   .     S
C338   C533    1.430   .     S
C339   H367    1.082   .     S
C339   C356    1.402   .     A
C340   H368    1.078   .     S
C340   C355    1.398   .     A
C340   C210    1.382   1_655 S
C341   H369    1.082   .     S
C341   C355    1.402   .     A
C341   C207    1.385   1_655 S
C342   H370    1.080   .     S
C342   C356    1.400   .     A
C343   C347    1.391   .     A
C343   C353    1.404   .     A
C343   H359    1.083   .     S
C344   C348    1.392   .     A
C344   H360    1.083   .     S
C344   C354    1.402   .     A
C345   C349    1.389   .     A
C345   H361    1.083   .     S
C345   C354    1.400   .     A
C346   H362    1.083   .     S
C346   C353    1.403   .     A
C346   C350    1.391   .     A
C347   H363    1.084   .     S
C347   C351    1.398   .     A
C348   H364    1.081   .     S
C348   C352    1.403   .     A
C349   H365    1.080   .     S
C349   C352    1.404   .     A
C350   H366    1.082   .     S
C350   C351    1.397   .     A
C353   C948    1.465   1_554 S
C354   C947    1.465   .     S
Cu357  O377    1.948   .     S
Cu357  O375    1.967   .     S
Cu357  O379    1.952   .     S
Cu357  O373    1.966   .     S
Cu357  Cu358   2.717   .     S
Cu357  N371    2.042   .     S
Cu358  O378    1.948   .     S
Cu358  O376    1.967   .     S
Cu358  N372    2.042   .     S
Cu358  O380    1.952   .     S
Cu358  O374    1.966   .     S
C381   O382    1.220   .     D
C381   O383    1.398   .     S
O383   H384    1.012   .     S
C385   O386    1.217   .     D
C385   O387    1.398   .     S
O387   H388    1.014   .     S
C389   O390    1.220   .     D
C389   O391    1.396   .     S
O391   H392    1.014   .     S
C393   O395    1.394   .     S
C393   O394    1.223   .     D
O395   H396    1.014   .     S
C397   C422    1.454   .     S
C397   O439    1.305   .     A
C397   O442    1.303   .     A
C398   O440    1.302   .     A
C398   C421    1.453   .     S
C398   O441    1.305   .     A
C399   O446    1.305   .     A
C399   C417    1.448   .     S
C399   O443    1.300   .     A
C400   C418    1.468   .     S
C400   O445    1.307   .     A
C400   O444    1.308   .     A
C401   N438    1.377   .     A
C401   C447    1.474   .     S
C402   C451    1.484   .     S
C402   N437    1.381   .     A
C402   C7      1.427   1_565 S
C403   C455    1.479   .     S
C403   N438    1.375   .     A
C404   N437    1.376   .     A
C404   C459    1.477   .     S
C404   C5      1.430   1_565 S
C405   H433    1.082   .     S
C405   C422    1.402   .     A
C405   C539    1.385   1_455 S
C406   H434    1.078   .     S
C406   C421    1.398   .     A
C406   C474    1.382   .     S
C407   H435    1.082   .     S
C407   C421    1.402   .     A
C407   C471    1.385   .     S
C408   H436    1.080   .     S
C408   C422    1.400   .     A
C408   C538    1.382   1_455 S
C409   C413    1.391   .     A
C409   C419    1.404   .     A
C409   H425    1.083   .     S
C410   C414    1.392   .     A
C410   H426    1.083   .     S
C410   C420    1.402   .     A
C411   C415    1.389   .     A
C411   H427    1.083   .     S
C411   C420    1.400   .     A
C412   H428    1.083   .     S
C412   C419    1.403   .     A
C412   C416    1.391   .     A
C413   H429    1.084   .     S
C413   C417    1.398   .     A
C414   H430    1.081   .     S
C414   C418    1.403   .     A
C415   H431    1.080   .     S
C415   C418    1.404   .     A
C416   H432    1.082   .     S
C416   C417    1.397   .     A
C419   C1014   1.465   1_554 S
C420   C1013   1.465   .     S
Cu423  O443    1.948   .     S
Cu423  O441    1.967   .     S
Cu423  O445    1.952   .     S
Cu423  O439    1.966   .     S
Cu423  Cu424   2.717   .     S
Cu423  N437    2.042   .     S
Cu424  O444    1.948   .     S
Cu424  O442    1.967   .     S
Cu424  N438    2.042   .     S
Cu424  O446    1.952   .     S
Cu424  O440    1.966   .     S
C447   O448    1.220   .     D
C447   O449    1.398   .     S
O449   H450    1.012   .     S
C451   O452    1.217   .     D
C451   O453    1.398   .     S
O453   H454    1.014   .     S
C455   O456    1.220   .     D
C455   O457    1.396   .     S
O457   H458    1.014   .     S
C459   O461    1.394   .     S
C459   O460    1.223   .     D
O461   H462    1.014   .     S
C463   C488    1.454   .     S
C463   O505    1.305   .     A
C463   O508    1.303   .     A
C464   O506    1.302   .     A
C464   C487    1.453   .     S
C464   O507    1.305   .     A
C465   O512    1.305   .     A
C465   C483    1.448   .     S
C465   O509    1.300   .     A
C466   C484    1.468   .     S
C466   O511    1.307   .     A
C466   O510    1.308   .     A
C467   N504    1.377   .     A
C467   C513    1.474   .     S
C468   C517    1.484   .     S
C468   N503    1.381   .     A
C468   C73     1.427   1_565 S
C469   C521    1.479   .     S
C469   N504    1.375   .     A
C470   N503    1.376   .     A
C470   C525    1.477   .     S
C470   C71     1.430   1_565 S
C471   H499    1.082   .     S
C471   C488    1.402   .     A
C472   H500    1.078   .     S
C472   C487    1.398   .     A
C472   C540    1.382   .     S
C473   H501    1.082   .     S
C473   C487    1.402   .     A
C473   C537    1.385   .     S
C474   H502    1.080   .     S
C474   C488    1.400   .     A
C475   C479    1.391   .     A
C475   C485    1.404   .     A
C475   H491    1.083   .     S
C476   C480    1.392   .     A
C476   H492    1.083   .     S
C476   C486    1.402   .     A
C477   C481    1.389   .     A
C477   H493    1.083   .     S
C477   C486    1.400   .     A
C478   H494    1.083   .     S
C478   C485    1.403   .     A
C478   C482    1.391   .     A
C479   H495    1.084   .     S
C479   C483    1.398   .     A
C480   H496    1.081   .     S
C480   C484    1.403   .     A
C481   H497    1.080   .     S
C481   C484    1.404   .     A
C482   H498    1.082   .     S
C482   C483    1.397   .     A
C485   C1080   1.465   1_554 S
C486   C1079   1.465   .     S
Cu489  O509    1.948   .     S
Cu489  O507    1.967   .     S
Cu489  O511    1.952   .     S
Cu489  O505    1.966   .     S
Cu489  Cu490   2.717   .     S
Cu489  N503    2.042   .     S
Cu490  O510    1.948   .     S
Cu490  O508    1.967   .     S
Cu490  N504    2.042   .     S
Cu490  O512    1.952   .     S
Cu490  O506    1.966   .     S
C513   O514    1.220   .     D
C513   O515    1.398   .     S
O515   H516    1.012   .     S
C517   O518    1.217   .     D
C517   O519    1.398   .     S
O519   H520    1.014   .     S
C521   O522    1.220   .     D
C521   O523    1.396   .     S
O523   H524    1.014   .     S
C525   O527    1.394   .     S
C525   O526    1.223   .     D
O527   H528    1.014   .     S
C529   C554    1.454   .     S
C529   O571    1.305   .     A
C529   O574    1.303   .     A
C530   O572    1.302   .     A
C530   C553    1.453   .     S
C530   O573    1.305   .     A
C531   O578    1.305   .     A
C531   C549    1.448   .     S
C531   O575    1.300   .     A
C532   C550    1.468   .     S
C532   O577    1.307   .     A
C532   O576    1.308   .     A
C533   N570    1.377   .     A
C533   C579    1.474   .     S
C534   C583    1.484   .     S
C534   N569    1.381   .     A
C534   C139    1.427   1_565 S
C535   C587    1.479   .     S
C535   N570    1.375   .     A
C536   N569    1.376   .     A
C536   C591    1.477   .     S
C536   C137    1.430   1_565 S
C537   H565    1.082   .     S
C537   C554    1.402   .     A
C538   H566    1.078   .     S
C538   C553    1.398   .     A
C538   C408    1.382   1_655 S
C539   H567    1.082   .     S
C539   C553    1.402   .     A
C539   C405    1.385   1_655 S
C540   H568    1.080   .     S
C540   C554    1.400   .     A
C541   C545    1.391   .     A
C541   C551    1.404   .     A
C541   H557    1.083   .     S
C542   C546    1.392   .     A
C542   H558    1.083   .     S
C542   C552    1.402   .     A
C543   C547    1.389   .     A
C543   H559    1.083   .     S
C543   C552    1.400   .     A
C544   H560    1.083   .     S
C544   C551    1.403   .     A
C544   C548    1.391   .     A
C545   H561    1.084   .     S
C545   C549    1.398   .     A
C546   H562    1.081   .     S
C546   C550    1.403   .     A
C547   H563    1.080   .     S
C547   C550    1.404   .     A
C548   H564    1.082   .     S
C548   C549    1.397   .     A
C551   C1146   1.465   1_554 S
C552   C1145   1.465   .     S
Cu555  O575    1.948   .     S
Cu555  O573    1.967   .     S
Cu555  O577    1.952   .     S
Cu555  O571    1.966   .     S
Cu555  Cu556   2.717   .     S
Cu555  N569    2.042   .     S
Cu556  O576    1.948   .     S
Cu556  O574    1.967   .     S
Cu556  N570    2.042   .     S
Cu556  O578    1.952   .     S
Cu556  O572    1.966   .     S
C579   O580    1.220   .     D
C579   O581    1.398   .     S
O581   H582    1.012   .     S
C583   O584    1.217   .     D
C583   O585    1.398   .     S
O585   H586    1.014   .     S
C587   O588    1.220   .     D
C587   O589    1.396   .     S
O589   H590    1.014   .     S
C591   O593    1.394   .     S
C591   O592    1.223   .     D
O593   H594    1.014   .     S
C595   C620    1.454   .     S
C595   O637    1.305   .     A
C595   O640    1.303   .     A
C596   O638    1.302   .     A
C596   C619    1.453   .     S
C596   O639    1.305   .     A
C597   O644    1.305   .     A
C597   C615    1.448   .     S
C597   O641    1.300   .     A
C598   C616    1.468   .     S
C598   O643    1.307   .     A
C598   O642    1.308   .     A
C599   N636    1.377   .     A
C599   C645    1.474   .     S
C599   C998    1.430   1_545 S
C600   C649    1.484   .     S
C600   N635    1.381   .     A
C600   C799    1.427   .     S
C601   C653    1.479   .     S
C601   N636    1.375   .     A
C601   C996    1.427   1_545 S
C602   N635    1.376   .     A
C602   C657    1.477   .     S
C602   C797    1.430   .     S
C603   H631    1.082   .     S
C603   C620    1.402   .     A
C603   C737    1.385   1_455 S
C604   H632    1.078   .     S
C604   C619    1.398   .     A
C604   C672    1.382   .     S
C605   H633    1.082   .     S
C605   C619    1.402   .     A
C605   C669    1.385   .     S
C606   H634    1.080   .     S
C606   C620    1.400   .     A
C606   C736    1.382   1_455 S
C607   C611    1.391   .     A
C607   C617    1.404   .     A
C607   H623    1.083   .     S
C608   C612    1.392   .     A
C608   H624    1.083   .     S
C608   C618    1.402   .     A
C609   C613    1.389   .     A
C609   H625    1.083   .     S
C609   C618    1.400   .     A
C610   H626    1.083   .     S
C610   C617    1.403   .     A
C610   C614    1.391   .     A
C611   H627    1.084   .     S
C611   C615    1.398   .     A
C612   H628    1.081   .     S
C612   C616    1.403   .     A
C613   H629    1.080   .     S
C613   C616    1.404   .     A
C614   H630    1.082   .     S
C614   C615    1.397   .     A
C618   C23     1.465   1_556 S
Cu621  O641    1.948   .     S
Cu621  O639    1.967   .     S
Cu621  O643    1.952   .     S
Cu621  O637    1.966   .     S
Cu621  Cu622   2.717   .     S
Cu621  N635    2.042   .     S
Cu622  O642    1.948   .     S
Cu622  O640    1.967   .     S
Cu622  N636    2.042   .     S
Cu622  O644    1.952   .     S
Cu622  O638    1.966   .     S
C645   O646    1.220   .     D
C645   O647    1.398   .     S
O647   H648    1.012   .     S
C649   O650    1.217   .     D
C649   O651    1.398   .     S
O651   H652    1.014   .     S
C653   O654    1.220   .     D
C653   O655    1.396   .     S
O655   H656    1.014   .     S
C657   O659    1.394   .     S
C657   O658    1.223   .     D
O659   H660    1.014   .     S
C661   C686    1.454   .     S
C661   O703    1.305   .     A
C661   O706    1.303   .     A
C662   O704    1.302   .     A
C662   C685    1.453   .     S
C662   O705    1.305   .     A
C663   O710    1.305   .     A
C663   C681    1.448   .     S
C663   O707    1.300   .     A
C664   C682    1.468   .     S
C664   O709    1.307   .     A
C664   O708    1.308   .     A
C665   N702    1.377   .     A
C665   C711    1.474   .     S
C665   C1064   1.430   1_545 S
C666   C715    1.484   .     S
C666   N701    1.381   .     A
C666   C865    1.427   .     S
C667   C719    1.479   .     S
C667   N702    1.375   .     A
C667   C1062   1.427   1_545 S
C668   N701    1.376   .     A
C668   C723    1.477   .     S
C668   C863    1.430   .     S
C669   H697    1.082   .     S
C669   C686    1.402   .     A
C670   H698    1.078   .     S
C670   C685    1.398   .     A
C670   C738    1.382   .     S
C671   H699    1.082   .     S
C671   C685    1.402   .     A
C671   C735    1.385   .     S
C672   H700    1.080   .     S
C672   C686    1.400   .     A
C673   C677    1.391   .     A
C673   C683    1.404   .     A
C673   H689    1.083   .     S
C674   C678    1.392   .     A
C674   H690    1.083   .     S
C674   C684    1.402   .     A
C675   C679    1.389   .     A
C675   H691    1.083   .     S
C675   C684    1.400   .     A
C676   H692    1.083   .     S
C676   C683    1.403   .     A
C676   C680    1.391   .     A
C677   H693    1.084   .     S
C677   C681    1.398   .     A
C678   H694    1.081   .     S
C678   C682    1.403   .     A
C679   H695    1.080   .     S
C679   C682    1.404   .     A
C680   H696    1.082   .     S
C680   C681    1.397   .     A
C684   C89     1.465   1_556 S
Cu687  O707    1.948   .     S
Cu687  O705    1.967   .     S
Cu687  O709    1.952   .     S
Cu687  O703    1.966   .     S
Cu687  Cu688   2.717   .     S
Cu687  N701    2.042   .     S
Cu688  O708    1.948   .     S
Cu688  O706    1.967   .     S
Cu688  N702    2.042   .     S
Cu688  O710    1.952   .     S
Cu688  O704    1.966   .     S
C711   O712    1.220   .     D
C711   O713    1.398   .     S
O713   H714    1.012   .     S
C715   O716    1.217   .     D
C715   O717    1.398   .     S
O717   H718    1.014   .     S
C719   O720    1.220   .     D
C719   O721    1.396   .     S
O721   H722    1.014   .     S
C723   O725    1.394   .     S
C723   O724    1.223   .     D
O725   H726    1.014   .     S
C727   C752    1.454   .     S
C727   O769    1.305   .     A
C727   O772    1.303   .     A
C728   O770    1.302   .     A
C728   C751    1.453   .     S
C728   O771    1.305   .     A
C729   O776    1.305   .     A
C729   C747    1.448   .     S
C729   O773    1.300   .     A
C730   C748    1.468   .     S
C730   O775    1.307   .     A
C730   O774    1.308   .     A
C731   N768    1.377   .     A
C731   C777    1.474   .     S
C731   C1130   1.430   1_545 S
C732   C781    1.484   .     S
C732   N767    1.381   .     A
C732   C931    1.427   .     S
C733   C785    1.479   .     S
C733   N768    1.375   .     A
C733   C1128   1.427   1_545 S
C734   N767    1.376   .     A
C734   C789    1.477   .     S
C734   C929    1.430   .     S
C735   H763    1.082   .     S
C735   C752    1.402   .     A
C736   H764    1.078   .     S
C736   C751    1.398   .     A
C736   C606    1.382   1_655 S
C737   H765    1.082   .     S
C737   C751    1.402   .     A
C737   C603    1.385   1_655 S
C738   H766    1.080   .     S
C738   C752    1.400   .     A
C739   C743    1.391   .     A
C739   C749    1.404   .     A
C739   H755    1.083   .     S
C740   C744    1.392   .     A
C740   H756    1.083   .     S
C740   C750    1.402   .     A
C741   C745    1.389   .     A
C741   H757    1.083   .     S
C741   C750    1.400   .     A
C742   H758    1.083   .     S
C742   C749    1.403   .     A
C742   C746    1.391   .     A
C743   H759    1.084   .     S
C743   C747    1.398   .     A
C744   H760    1.081   .     S
C744   C748    1.403   .     A
C745   H761    1.080   .     S
C745   C748    1.404   .     A
C746   H762    1.082   .     S
C746   C747    1.397   .     A
C750   C155    1.465   1_556 S
Cu753  O773    1.948   .     S
Cu753  O771    1.967   .     S
Cu753  O775    1.952   .     S
Cu753  O769    1.966   .     S
Cu753  Cu754   2.717   .     S
Cu753  N767    2.042   .     S
Cu754  O774    1.948   .     S
Cu754  O772    1.967   .     S
Cu754  N768    2.042   .     S
Cu754  O776    1.952   .     S
Cu754  O770    1.966   .     S
C777   O778    1.220   .     D
C777   O779    1.398   .     S
O779   H780    1.012   .     S
C781   O782    1.217   .     D
C781   O783    1.398   .     S
O783   H784    1.014   .     S
C785   O786    1.220   .     D
C785   O787    1.396   .     S
O787   H788    1.014   .     S
C789   O791    1.394   .     S
C789   O790    1.223   .     D
O791   H792    1.014   .     S
C793   C818    1.454   .     S
C793   O835    1.305   .     A
C793   O838    1.303   .     A
C794   O836    1.302   .     A
C794   C817    1.453   .     S
C794   O837    1.305   .     A
C795   O842    1.305   .     A
C795   C813    1.448   .     S
C795   O839    1.300   .     A
C796   C814    1.468   .     S
C796   O841    1.307   .     A
C796   O840    1.308   .     A
C797   N834    1.377   .     A
C797   C843    1.474   .     S
C798   C847    1.484   .     S
C798   N833    1.381   .     A
C798   C997    1.427   .     S
C799   C851    1.479   .     S
C799   N834    1.375   .     A
C800   N833    1.376   .     A
C800   C855    1.477   .     S
C800   C995    1.430   .     S
C801   H829    1.082   .     S
C801   C818    1.402   .     A
C801   C935    1.385   1_455 S
C802   H830    1.078   .     S
C802   C817    1.398   .     A
C802   C870    1.382   .     S
C803   H831    1.082   .     S
C803   C817    1.402   .     A
C803   C867    1.385   .     S
C804   H832    1.080   .     S
C804   C818    1.400   .     A
C804   C934    1.382   1_455 S
C805   C809    1.391   .     A
C805   C815    1.404   .     A
C805   H821    1.083   .     S
C806   C810    1.392   .     A
C806   H822    1.083   .     S
C806   C816    1.402   .     A
C807   C811    1.389   .     A
C807   H823    1.083   .     S
C807   C816    1.400   .     A
C808   H824    1.083   .     S
C808   C815    1.403   .     A
C808   C812    1.391   .     A
C809   H825    1.084   .     S
C809   C813    1.398   .     A
C810   H826    1.081   .     S
C810   C814    1.403   .     A
C811   H827    1.080   .     S
C811   C814    1.404   .     A
C812   H828    1.082   .     S
C812   C813    1.397   .     A
C816   C221    1.465   1_556 S
Cu819  O839    1.948   .     S
Cu819  O837    1.967   .     S
Cu819  O841    1.952   .     S
Cu819  O835    1.966   .     S
Cu819  Cu820   2.717   .     S
Cu819  N833    2.042   .     S
Cu820  O840    1.948   .     S
Cu820  O838    1.967   .     S
Cu820  N834    2.042   .     S
Cu820  O842    1.952   .     S
Cu820  O836    1.966   .     S
C843   O844    1.220   .     D
C843   O845    1.398   .     S
O845   H846    1.012   .     S
C847   O848    1.217   .     D
C847   O849    1.398   .     S
O849   H850    1.014   .     S
C851   O852    1.220   .     D
C851   O853    1.396   .     S
O853   H854    1.014   .     S
C855   O857    1.394   .     S
C855   O856    1.223   .     D
O857   H858    1.014   .     S
C859   C884    1.454   .     S
C859   O901    1.305   .     A
C859   O904    1.303   .     A
C860   O902    1.302   .     A
C860   C883    1.453   .     S
C860   O903    1.305   .     A
C861   O908    1.305   .     A
C861   C879    1.448   .     S
C861   O905    1.300   .     A
C862   C880    1.468   .     S
C862   O907    1.307   .     A
C862   O906    1.308   .     A
C863   N900    1.377   .     A
C863   C909    1.474   .     S
C864   C913    1.484   .     S
C864   N899    1.381   .     A
C864   C1063   1.427   .     S
C865   C917    1.479   .     S
C865   N900    1.375   .     A
C866   N899    1.376   .     A
C866   C921    1.477   .     S
C866   C1061   1.430   .     S
C867   H895    1.082   .     S
C867   C884    1.402   .     A
C868   H896    1.078   .     S
C868   C883    1.398   .     A
C868   C936    1.382   .     S
C869   H897    1.082   .     S
C869   C883    1.402   .     A
C869   C933    1.385   .     S
C870   H898    1.080   .     S
C870   C884    1.400   .     A
C871   C875    1.391   .     A
C871   C881    1.404   .     A
C871   H887    1.083   .     S
C872   C876    1.392   .     A
C872   H888    1.083   .     S
C872   C882    1.402   .     A
C873   C877    1.389   .     A
C873   H889    1.083   .     S
C873   C882    1.400   .     A
C874   H890    1.083   .     S
C874   C881    1.403   .     A
C874   C878    1.391   .     A
C875   H891    1.084   .     S
C875   C879    1.398   .     A
C876   H892    1.081   .     S
C876   C880    1.403   .     A
C877   H893    1.080   .     S
C877   C880    1.404   .     A
C878   H894    1.082   .     S
C878   C879    1.397   .     A
C882   C287    1.465   1_556 S
Cu885  O905    1.948   .     S
Cu885  O903    1.967   .     S
Cu885  O907    1.952   .     S
Cu885  O901    1.966   .     S
Cu885  Cu886   2.717   .     S
Cu885  N899    2.042   .     S
Cu886  O906    1.948   .     S
Cu886  O904    1.967   .     S
Cu886  N900    2.042   .     S
Cu886  O908    1.952   .     S
Cu886  O902    1.966   .     S
C909   O910    1.220   .     D
C909   O911    1.398   .     S
O911   H912    1.012   .     S
C913   O914    1.217   .     D
C913   O915    1.398   .     S
O915   H916    1.014   .     S
C917   O918    1.220   .     D
C917   O919    1.396   .     S
O919   H920    1.014   .     S
C921   O923    1.394   .     S
C921   O922    1.223   .     D
O923   H924    1.014   .     S
C925   C950    1.454   .     S
C925   O967    1.305   .     A
C925   O970    1.303   .     A
C926   O968    1.302   .     A
C926   C949    1.453   .     S
C926   O969    1.305   .     A
C927   O974    1.305   .     A
C927   C945    1.448   .     S
C927   O971    1.300   .     A
C928   C946    1.468   .     S
C928   O973    1.307   .     A
C928   O972    1.308   .     A
C929   N966    1.377   .     A
C929   C975    1.474   .     S
C930   C979    1.484   .     S
C930   N965    1.381   .     A
C930   C1129   1.427   .     S
C931   C983    1.479   .     S
C931   N966    1.375   .     A
C932   N965    1.376   .     A
C932   C987    1.477   .     S
C932   C1127   1.430   .     S
C933   H961    1.082   .     S
C933   C950    1.402   .     A
C934   H962    1.078   .     S
C934   C949    1.398   .     A
C934   C804    1.382   1_655 S
C935   H963    1.082   .     S
C935   C949    1.402   .     A
C935   C801    1.385   1_655 S
C936   H964    1.080   .     S
C936   C950    1.400   .     A
C937   C941    1.391   .     A
C937   C947    1.404   .     A
C937   H953    1.083   .     S
C938   C942    1.392   .     A
C938   H954    1.083   .     S
C938   C948    1.402   .     A
C939   C943    1.389   .     A
C939   H955    1.083   .     S
C939   C948    1.400   .     A
C940   H956    1.083   .     S
C940   C947    1.403   .     A
C940   C944    1.391   .     A
C941   H957    1.084   .     S
C941   C945    1.398   .     A
C942   H958    1.081   .     S
C942   C946    1.403   .     A
C943   H959    1.080   .     S
C943   C946    1.404   .     A
C944   H960    1.082   .     S
C944   C945    1.397   .     A
C948   C353    1.465   1_556 S
Cu951  O971    1.948   .     S
Cu951  O969    1.967   .     S
Cu951  O973    1.952   .     S
Cu951  O967    1.966   .     S
Cu951  Cu952   2.717   .     S
Cu951  N965    2.042   .     S
Cu952  O972    1.948   .     S
Cu952  O970    1.967   .     S
Cu952  N966    2.042   .     S
Cu952  O974    1.952   .     S
Cu952  O968    1.966   .     S
C975   O976    1.220   .     D
C975   O977    1.398   .     S
O977   H978    1.012   .     S
C979   O980    1.217   .     D
C979   O981    1.398   .     S
O981   H982    1.014   .     S
C983   O984    1.220   .     D
C983   O985    1.396   .     S
O985   H986    1.014   .     S
C987   O989    1.394   .     S
C987   O988    1.223   .     D
O989   H990    1.014   .     S
C991   C1016   1.454   .     S
C991   O1033   1.305   .     A
C991   O1036   1.303   .     A
C992   O1034   1.302   .     A
C992   C1015   1.453   .     S
C992   O1035   1.305   .     A
C993   O1040   1.305   .     A
C993   C1011   1.448   .     S
C993   O1037   1.300   .     A
C994   C1012   1.468   .     S
C994   O1039   1.307   .     A
C994   O1038   1.308   .     A
C995   N1032   1.377   .     A
C995   C1041   1.474   .     S
C996   C1045   1.484   .     S
C996   N1031   1.381   .     A
C996   C601    1.427   1_565 S
C997   C1049   1.479   .     S
C997   N1032   1.375   .     A
C998   N1031   1.376   .     A
C998   C1053   1.477   .     S
C998   C599    1.430   1_565 S
C999   H1027   1.082   .     S
C999   C1016   1.402   .     A
C999   C1133   1.385   1_455 S
C1000  H1028   1.078   .     S
C1000  C1015   1.398   .     A
C1000  C1068   1.382   .     S
C1001  H1029   1.082   .     S
C1001  C1015   1.402   .     A
C1001  C1065   1.385   .     S
C1002  H1030   1.080   .     S
C1002  C1016   1.400   .     A
C1002  C1132   1.382   1_455 S
C1003  C1007   1.391   .     A
C1003  C1013   1.404   .     A
C1003  H1019   1.083   .     S
C1004  C1008   1.392   .     A
C1004  H1020   1.083   .     S
C1004  C1014   1.402   .     A
C1005  C1009   1.389   .     A
C1005  H1021   1.083   .     S
C1005  C1014   1.400   .     A
C1006  H1022   1.083   .     S
C1006  C1013   1.403   .     A
C1006  C1010   1.391   .     A
C1007  H1023   1.084   .     S
C1007  C1011   1.398   .     A
C1008  H1024   1.081   .     S
C1008  C1012   1.403   .     A
C1009  H1025   1.080   .     S
C1009  C1012   1.404   .     A
C1010  H1026   1.082   .     S
C1010  C1011   1.397   .     A
C1014  C419    1.465   1_556 S
Cu1017 O1037   1.948   .     S
Cu1017 O1035   1.967   .     S
Cu1017 O1039   1.952   .     S
Cu1017 O1033   1.966   .     S
Cu1017 Cu1018  2.717   .     S
Cu1017 N1031   2.042   .     S
Cu1018 O1038   1.948   .     S
Cu1018 O1036   1.967   .     S
Cu1018 N1032   2.042   .     S
Cu1018 O1040   1.952   .     S
Cu1018 O1034   1.966   .     S
C1041  O1042   1.220   .     D
C1041  O1043   1.398   .     S
O1043  H1044   1.012   .     S
C1045  O1046   1.217   .     D
C1045  O1047   1.398   .     S
O1047  H1048   1.014   .     S
C1049  O1050   1.220   .     D
C1049  O1051   1.396   .     S
O1051  H1052   1.014   .     S
C1053  O1055   1.394   .     S
C1053  O1054   1.223   .     D
O1055  H1056   1.014   .     S
C1057  C1082   1.454   .     S
C1057  O1099   1.305   .     A
C1057  O1102   1.303   .     A
C1058  O1100   1.302   .     A
C1058  C1081   1.453   .     S
C1058  O1101   1.305   .     A
C1059  O1106   1.305   .     A
C1059  C1077   1.448   .     S
C1059  O1103   1.300   .     A
C1060  C1078   1.468   .     S
C1060  O1105   1.307   .     A
C1060  O1104   1.308   .     A
C1061  N1098   1.377   .     A
C1061  C1107   1.474   .     S
C1062  C1111   1.484   .     S
C1062  N1097   1.381   .     A
C1062  C667    1.427   1_565 S
C1063  C1115   1.479   .     S
C1063  N1098   1.375   .     A
C1064  N1097   1.376   .     A
C1064  C1119   1.477   .     S
C1064  C665    1.430   1_565 S
C1065  H1093   1.082   .     S
C1065  C1082   1.402   .     A
C1066  H1094   1.078   .     S
C1066  C1081   1.398   .     A
C1066  C1134   1.382   .     S
C1067  H1095   1.082   .     S
C1067  C1081   1.402   .     A
C1067  C1131   1.385   .     S
C1068  H1096   1.080   .     S
C1068  C1082   1.400   .     A
C1069  C1073   1.391   .     A
C1069  C1079   1.404   .     A
C1069  H1085   1.083   .     S
C1070  C1074   1.392   .     A
C1070  H1086   1.083   .     S
C1070  C1080   1.402   .     A
C1071  C1075   1.389   .     A
C1071  H1087   1.083   .     S
C1071  C1080   1.400   .     A
C1072  H1088   1.083   .     S
C1072  C1079   1.403   .     A
C1072  C1076   1.391   .     A
C1073  H1089   1.084   .     S
C1073  C1077   1.398   .     A
C1074  H1090   1.081   .     S
C1074  C1078   1.403   .     A
C1075  H1091   1.080   .     S
C1075  C1078   1.404   .     A
C1076  H1092   1.082   .     S
C1076  C1077   1.397   .     A
C1080  C485    1.465   1_556 S
Cu1083 O1103   1.948   .     S
Cu1083 O1101   1.967   .     S
Cu1083 O1105   1.952   .     S
Cu1083 O1099   1.966   .     S
Cu1083 Cu1084  2.717   .     S
Cu1083 N1097   2.042   .     S
Cu1084 O1104   1.948   .     S
Cu1084 O1102   1.967   .     S
Cu1084 N1098   2.042   .     S
Cu1084 O1106   1.952   .     S
Cu1084 O1100   1.966   .     S
C1107  O1108   1.220   .     D
C1107  O1109   1.398   .     S
O1109  H1110   1.012   .     S
C1111  O1112   1.217   .     D
C1111  O1113   1.398   .     S
O1113  H1114   1.014   .     S
C1115  O1116   1.220   .     D
C1115  O1117   1.396   .     S
O1117  H1118   1.014   .     S
C1119  O1121   1.394   .     S
C1119  O1120   1.223   .     D
O1121  H1122   1.014   .     S
C1123  C1148   1.454   .     S
C1123  O1165   1.305   .     A
C1123  O1168   1.303   .     A
C1124  O1166   1.302   .     A
C1124  C1147   1.453   .     S
C1124  O1167   1.305   .     A
C1125  O1172   1.305   .     A
C1125  C1143   1.448   .     S
C1125  O1169   1.300   .     A
C1126  C1144   1.468   .     S
C1126  O1171   1.307   .     A
C1126  O1170   1.308   .     A
C1127  N1164   1.377   .     A
C1127  C1173   1.474   .     S
C1128  C1177   1.484   .     S
C1128  N1163   1.381   .     A
C1128  C733    1.427   1_565 S
C1129  C1181   1.479   .     S
C1129  N1164   1.375   .     A
C1130  N1163   1.376   .     A
C1130  C1185   1.477   .     S
C1130  C731    1.430   1_565 S
C1131  H1159   1.082   .     S
C1131  C1148   1.402   .     A
C1132  H1160   1.078   .     S
C1132  C1147   1.398   .     A
C1132  C1002   1.382   1_655 S
C1133  H1161   1.082   .     S
C1133  C1147   1.402   .     A
C1133  C999    1.385   1_655 S
C1134  H1162   1.080   .     S
C1134  C1148   1.400   .     A
C1135  C1139   1.391   .     A
C1135  C1145   1.404   .     A
C1135  H1151   1.083   .     S
C1136  C1140   1.392   .     A
C1136  H1152   1.083   .     S
C1136  C1146   1.402   .     A
C1137  C1141   1.389   .     A
C1137  H1153   1.083   .     S
C1137  C1146   1.400   .     A
C1138  H1154   1.083   .     S
C1138  C1145   1.403   .     A
C1138  C1142   1.391   .     A
C1139  H1155   1.084   .     S
C1139  C1143   1.398   .     A
C1140  H1156   1.081   .     S
C1140  C1144   1.403   .     A
C1141  H1157   1.080   .     S
C1141  C1144   1.404   .     A
C1142  H1158   1.082   .     S
C1142  C1143   1.397   .     A
C1146  C551    1.465   1_556 S
Cu1149 O1169   1.948   .     S
Cu1149 O1167   1.967   .     S
Cu1149 O1171   1.952   .     S
Cu1149 O1165   1.966   .     S
Cu1149 Cu1150  2.717   .     S
Cu1149 N1163   2.042   .     S
Cu1150 O1170   1.948   .     S
Cu1150 O1168   1.967   .     S
Cu1150 N1164   2.042   .     S
Cu1150 O1172   1.952   .     S
Cu1150 O1166   1.966   .     S
C1173  O1174   1.220   .     D
C1173  O1175   1.398   .     S
O1175  H1176   1.012   .     S
C1177  O1178   1.217   .     D
C1177  O1179   1.398   .     S
O1179  H1180   1.014   .     S
C1181  O1182   1.220   .     D
C1181  O1183   1.396   .     S
O1183  H1184   1.014   .     S
C1185  O1187   1.394   .     S
C1185  O1186   1.223   .     D
O1187  H1188   1.014   .     S
