data_str_m2_o1_o2_pcu_sym.25
_audit_creation_date              2020-01-03
_audit_creation_method            'Materials Studio'
_symmetry_space_group_name_H-M    'P1'
_symmetry_Int_Tables_number       1
_symmetry_cell_setting            triclinic
loop_
_symmetry_equiv_pos_as_xyz
  x,y,z
_cell_length_a                    32.4698
_cell_length_b                    28.5222
_cell_length_c                    30.2688
_cell_angle_alpha                 89.9415
_cell_angle_beta                  90.1905
_cell_angle_gamma                 89.0211
loop_
_atom_site_label
_atom_site_type_symbol
_atom_site_fract_x
_atom_site_fract_y
_atom_site_fract_z
_atom_site_U_iso_or_equiv
_atom_site_adp_type
_atom_site_occupancy
C1     C     0.08740   0.16718   0.24987   0.00000  Uiso   1.00
C2     C     0.31112   0.19682   0.27890   0.00000  Uiso   1.00
C3     C     0.31255   0.13321   0.22414   0.00000  Uiso   1.00
C4     C     0.02076   0.19989   0.27635   0.00000  Uiso   1.00
C5     C     0.17758   0.20756   0.04761   0.00000  Uiso   1.00
C6     C     0.18291   0.12757   0.45224   0.00000  Uiso   1.00
C7     C     0.15286   0.20606   0.45226   0.00000  Uiso   1.00
C8     C     0.15823   0.12578   0.04742   0.00000  Uiso   1.00
C9     C     0.17692   0.20764   0.09352   0.00000  Uiso   1.00
C10    C     0.18220   0.12738   0.40632   0.00000  Uiso   1.00
C11    C     0.15278   0.20614   0.40635   0.00000  Uiso   1.00
C12    C     0.24592   0.16614   0.25021   0.00000  Uiso   1.00
C13    C     0.15824   0.12566   0.09333   0.00000  Uiso   1.00
C14    C     0.16730   0.16668   0.11666   0.00000  Uiso   1.00
C15    C     0.16719   0.16669   0.38318   0.00000  Uiso   1.00
C16    C     0.16801   0.16670   0.02418   0.00000  Uiso   1.00
C17    C     0.16801   0.16681   0.47559   0.00000  Uiso   1.00
C18    C     0.29062   0.16480   0.25154   0.00000  Uiso   1.00
C19    C     0.04269   0.16843   0.24876   0.00000  Uiso   1.00
C20    C     0.05507   0.13219   0.15015   0.00000  Uiso   1.00
C21    C     0.27707   0.20062   0.34983   0.00000  Uiso   1.00
C22    C     0.28671   0.05430   0.21752   0.00000  Uiso   1.00
C23    C     0.16685   0.16668   0.16493   0.00000  Uiso   1.00
C24    C     0.04668   0.27871   0.28354   0.00000  Uiso   1.00
C25    C     0.16675   0.16666   0.33502   0.00000  Uiso   1.00
C26    C     0.14227   0.02532   0.22124   0.00000  Uiso   1.00
C27    C     0.19106   0.30801   0.27875   0.00000  Uiso   1.00
C28    C     0.19103   0.02431   0.27878   0.00000  Uiso   1.00
C29    C     0.14230   0.30902   0.22123   0.00000  Uiso   1.00
C30    C     0.02216   0.13629   0.22155   0.00000  Uiso   1.00
Cu31   Cu    0.16667   0.21355   0.25000   0.00000  Uiso   1.00
Cu32   Cu    0.16667   0.11978   0.25000   0.00000  Uiso   1.00
H33    H     0.12272   0.04445   0.19823   0.00000  Uiso   1.00
H34    H     0.19392   0.09680   0.38892   0.00000  Uiso   1.00
H35    H     0.14080   0.23671   0.38899   0.00000  Uiso   1.00
H36    H     0.15061   0.09365   0.11052   0.00000  Uiso   1.00
H37    H     0.03437   0.07502   0.18557   0.00000  Uiso   1.00
H38    H     0.02650   0.14194   0.13178   0.00000  Uiso   1.00
H39    H     0.07416   0.10861   0.12911   0.00000  Uiso   1.00
H40    H     0.07287   0.16428   0.15708   0.00000  Uiso   1.00
H41    H     0.29902   0.25787   0.31540   0.00000  Uiso   1.00
H42    H     0.30514   0.19176   0.36942   0.00000  Uiso   1.00
H43    H     0.26034   0.16795   0.34223   0.00000  Uiso   1.00
H44    H     0.21062   0.28889   0.30176   0.00000  Uiso   1.00
H45    H     0.25654   0.22361   0.36993   0.00000  Uiso   1.00
H46    H     0.30023   0.09870   0.16517   0.00000  Uiso   1.00
H47    H     0.31650   0.03466   0.21732   0.00000  Uiso   1.00
H48    H     0.26377   0.03404   0.19850   0.00000  Uiso   1.00
H49    H     0.27600   0.05719   0.25223   0.00000  Uiso   1.00
H50    H     0.03307   0.23390   0.33555   0.00000  Uiso   1.00
H51    H     0.01691   0.29836   0.28381   0.00000  Uiso   1.00
H52    H     0.05745   0.27610   0.24884   0.00000  Uiso   1.00
H53    H     0.06959   0.29880   0.30276   0.00000  Uiso   1.00
H54    H     0.21054   0.04265   0.30182   0.00000  Uiso   1.00
H55    H     0.12277   0.29069   0.19820   0.00000  Uiso   1.00
H56    H     0.18597   0.23933   0.03049   0.00000  Uiso   1.00
H57    H     0.19549   0.09722   0.46942   0.00000  Uiso   1.00
H58    H     0.14052   0.23643   0.46946   0.00000  Uiso   1.00
H59    H     0.15004   0.09403   0.03016   0.00000  Uiso   1.00
H60    H     0.18442   0.23959   0.11087   0.00000  Uiso   1.00
N61    N     0.16667   0.28402   0.25000   0.00000  Uiso   1.00
N62    N     0.16667   0.04931   0.25000   0.00000  Uiso   1.00
N63    N     0.04502   0.10832   0.19080   0.00000  Uiso   1.00
N64    N     0.28816   0.22477   0.30962   0.00000  Uiso   1.00
N65    N     0.29096   0.10025   0.19768   0.00000  Uiso   1.00
N66    N     0.04238   0.23260   0.30304   0.00000  Uiso   1.00
O67    O     0.10655   0.20625   0.24999   0.00000  Uiso   1.00
O68    O     0.22679   0.12709   0.25000   0.00000  Uiso   1.00
O69    O     0.22679   0.20625   0.25000   0.00000  Uiso   1.00
O70    O     0.10655   0.12709   0.24999   0.00000  Uiso   1.00
O71    O     0.16666   0.20626   0.18573   0.00000  Uiso   1.00
O72    O     0.16667   0.12707   0.31427   0.00000  Uiso   1.00
O73    O     0.16667   0.20626   0.31427   0.00000  Uiso   1.00
O74    O     0.16666   0.12707   0.18573   0.00000  Uiso   1.00
C75    C     0.42073   0.16718   0.24987   0.00000  Uiso   1.00
C76    C     0.64445   0.19682   0.27890   0.00000  Uiso   1.00
C77    C     0.64588   0.13321   0.22414   0.00000  Uiso   1.00
C78    C     0.35409   0.19989   0.27635   0.00000  Uiso   1.00
C79    C     0.51091   0.20756   0.04761   0.00000  Uiso   1.00
C80    C     0.51624   0.12757   0.45224   0.00000  Uiso   1.00
C81    C     0.48620   0.20606   0.45226   0.00000  Uiso   1.00
C82    C     0.49156   0.12578   0.04742   0.00000  Uiso   1.00
C83    C     0.51025   0.20764   0.09352   0.00000  Uiso   1.00
C84    C     0.51553   0.12738   0.40632   0.00000  Uiso   1.00
C85    C     0.48611   0.20614   0.40635   0.00000  Uiso   1.00
C86    C     0.57926   0.16614   0.25021   0.00000  Uiso   1.00
C87    C     0.49157   0.12566   0.09333   0.00000  Uiso   1.00
C88    C     0.50063   0.16668   0.11666   0.00000  Uiso   1.00
C89    C     0.50052   0.16669   0.38318   0.00000  Uiso   1.00
C90    C     0.50134   0.16670   0.02418   0.00000  Uiso   1.00
C91    C     0.50134   0.16681   0.47559   0.00000  Uiso   1.00
C92    C     0.62395   0.16480   0.25154   0.00000  Uiso   1.00
C93    C     0.37602   0.16843   0.24876   0.00000  Uiso   1.00
C94    C     0.38840   0.13219   0.15015   0.00000  Uiso   1.00
C95    C     0.61041   0.20062   0.34983   0.00000  Uiso   1.00
C96    C     0.62005   0.05430   0.21752   0.00000  Uiso   1.00
C97    C     0.50018   0.16668   0.16493   0.00000  Uiso   1.00
C98    C     0.38001   0.27871   0.28354   0.00000  Uiso   1.00
C99    C     0.50008   0.16666   0.33502   0.00000  Uiso   1.00
C100   C     0.47561   0.02532   0.22124   0.00000  Uiso   1.00
C101   C     0.52440   0.30801   0.27875   0.00000  Uiso   1.00
C102   C     0.52436   0.02431   0.27878   0.00000  Uiso   1.00
C103   C     0.47563   0.30902   0.22123   0.00000  Uiso   1.00
C104   C     0.35549   0.13629   0.22155   0.00000  Uiso   1.00
Cu105  Cu    0.50000   0.21355   0.25000   0.00000  Uiso   1.00
Cu106  Cu    0.50000   0.11978   0.25000   0.00000  Uiso   1.00
H107   H     0.45606   0.04445   0.19823   0.00000  Uiso   1.00
H108   H     0.52726   0.09680   0.38892   0.00000  Uiso   1.00
H109   H     0.47413   0.23671   0.38899   0.00000  Uiso   1.00
H110   H     0.48394   0.09365   0.11052   0.00000  Uiso   1.00
H111   H     0.36770   0.07502   0.18557   0.00000  Uiso   1.00
H112   H     0.35983   0.14194   0.13178   0.00000  Uiso   1.00
H113   H     0.40750   0.10861   0.12911   0.00000  Uiso   1.00
H114   H     0.40620   0.16428   0.15708   0.00000  Uiso   1.00
H115   H     0.63236   0.25787   0.31540   0.00000  Uiso   1.00
H116   H     0.63847   0.19176   0.36942   0.00000  Uiso   1.00
H117   H     0.59368   0.16795   0.34223   0.00000  Uiso   1.00
H118   H     0.54395   0.28889   0.30176   0.00000  Uiso   1.00
H119   H     0.58987   0.22361   0.36993   0.00000  Uiso   1.00
H120   H     0.63356   0.09870   0.16517   0.00000  Uiso   1.00
H121   H     0.64983   0.03466   0.21732   0.00000  Uiso   1.00
H122   H     0.59711   0.03404   0.19850   0.00000  Uiso   1.00
H123   H     0.60934   0.05719   0.25223   0.00000  Uiso   1.00
H124   H     0.36640   0.23390   0.33555   0.00000  Uiso   1.00
H125   H     0.35024   0.29836   0.28381   0.00000  Uiso   1.00
H126   H     0.39079   0.27610   0.24884   0.00000  Uiso   1.00
H127   H     0.40293   0.29880   0.30276   0.00000  Uiso   1.00
H128   H     0.54387   0.04265   0.30182   0.00000  Uiso   1.00
H129   H     0.45611   0.29069   0.19820   0.00000  Uiso   1.00
H130   H     0.51931   0.23933   0.03049   0.00000  Uiso   1.00
H131   H     0.52882   0.09722   0.46942   0.00000  Uiso   1.00
H132   H     0.47386   0.23643   0.46946   0.00000  Uiso   1.00
H133   H     0.48337   0.09403   0.03016   0.00000  Uiso   1.00
H134   H     0.51775   0.23959   0.11087   0.00000  Uiso   1.00
N135   N     0.50000   0.28402   0.25000   0.00000  Uiso   1.00
N136   N     0.50000   0.04931   0.25000   0.00000  Uiso   1.00
N137   N     0.37835   0.10832   0.19080   0.00000  Uiso   1.00
N138   N     0.62149   0.22477   0.30962   0.00000  Uiso   1.00
N139   N     0.62429   0.10025   0.19768   0.00000  Uiso   1.00
N140   N     0.37571   0.23260   0.30304   0.00000  Uiso   1.00
O141   O     0.43988   0.20625   0.24999   0.00000  Uiso   1.00
O142   O     0.56012   0.12709   0.25000   0.00000  Uiso   1.00
O143   O     0.56012   0.20625   0.25000   0.00000  Uiso   1.00
O144   O     0.43988   0.12709   0.24999   0.00000  Uiso   1.00
O145   O     0.50000   0.20626   0.18573   0.00000  Uiso   1.00
O146   O     0.50000   0.12707   0.31427   0.00000  Uiso   1.00
O147   O     0.50000   0.20626   0.31427   0.00000  Uiso   1.00
O148   O     0.50000   0.12707   0.18573   0.00000  Uiso   1.00
C149   C     0.75407   0.16718   0.24987   0.00000  Uiso   1.00
C150   C     0.97779   0.19682   0.27890   0.00000  Uiso   1.00
C151   C     0.97921   0.13321   0.22414   0.00000  Uiso   1.00
C152   C     0.68743   0.19989   0.27635   0.00000  Uiso   1.00
C153   C     0.84424   0.20756   0.04761   0.00000  Uiso   1.00
C154   C     0.84957   0.12757   0.45224   0.00000  Uiso   1.00
C155   C     0.81953   0.20606   0.45226   0.00000  Uiso   1.00
C156   C     0.82489   0.12578   0.04742   0.00000  Uiso   1.00
C157   C     0.84359   0.20764   0.09352   0.00000  Uiso   1.00
C158   C     0.84886   0.12738   0.40632   0.00000  Uiso   1.00
C159   C     0.81944   0.20614   0.40635   0.00000  Uiso   1.00
C160   C     0.91259   0.16614   0.25021   0.00000  Uiso   1.00
C161   C     0.82491   0.12566   0.09333   0.00000  Uiso   1.00
C162   C     0.83396   0.16668   0.11666   0.00000  Uiso   1.00
C163   C     0.83386   0.16669   0.38318   0.00000  Uiso   1.00
C164   C     0.83468   0.16670   0.02418   0.00000  Uiso   1.00
C165   C     0.83468   0.16681   0.47559   0.00000  Uiso   1.00
C166   C     0.95728   0.16480   0.25154   0.00000  Uiso   1.00
C167   C     0.70935   0.16843   0.24876   0.00000  Uiso   1.00
C168   C     0.72174   0.13219   0.15015   0.00000  Uiso   1.00
C169   C     0.94374   0.20062   0.34983   0.00000  Uiso   1.00
C170   C     0.95338   0.05430   0.21752   0.00000  Uiso   1.00
C171   C     0.83352   0.16668   0.16493   0.00000  Uiso   1.00
C172   C     0.71335   0.27871   0.28354   0.00000  Uiso   1.00
C173   C     0.83341   0.16666   0.33502   0.00000  Uiso   1.00
C174   C     0.80894   0.02532   0.22124   0.00000  Uiso   1.00
C175   C     0.85773   0.30801   0.27875   0.00000  Uiso   1.00
C176   C     0.85769   0.02431   0.27878   0.00000  Uiso   1.00
C177   C     0.80896   0.30902   0.22123   0.00000  Uiso   1.00
C178   C     0.68882   0.13629   0.22155   0.00000  Uiso   1.00
Cu179  Cu    0.83333   0.21355   0.25000   0.00000  Uiso   1.00
Cu180  Cu    0.83333   0.11978   0.25000   0.00000  Uiso   1.00
H181   H     0.78939   0.04445   0.19823   0.00000  Uiso   1.00
H182   H     0.86059   0.09680   0.38892   0.00000  Uiso   1.00
H183   H     0.80747   0.23671   0.38899   0.00000  Uiso   1.00
H184   H     0.81728   0.09365   0.11052   0.00000  Uiso   1.00
H185   H     0.70103   0.07502   0.18557   0.00000  Uiso   1.00
H186   H     0.69317   0.14194   0.13178   0.00000  Uiso   1.00
H187   H     0.74083   0.10861   0.12911   0.00000  Uiso   1.00
H188   H     0.73953   0.16428   0.15708   0.00000  Uiso   1.00
H189   H     0.96569   0.25787   0.31540   0.00000  Uiso   1.00
H190   H     0.97181   0.19176   0.36942   0.00000  Uiso   1.00
H191   H     0.92701   0.16795   0.34223   0.00000  Uiso   1.00
H192   H     0.87729   0.28889   0.30176   0.00000  Uiso   1.00
H193   H     0.92320   0.22361   0.36993   0.00000  Uiso   1.00
H194   H     0.96690   0.09870   0.16517   0.00000  Uiso   1.00
H195   H     0.98316   0.03466   0.21732   0.00000  Uiso   1.00
H196   H     0.93044   0.03404   0.19850   0.00000  Uiso   1.00
H197   H     0.94267   0.05719   0.25223   0.00000  Uiso   1.00
H198   H     0.69973   0.23390   0.33555   0.00000  Uiso   1.00
H199   H     0.68358   0.29836   0.28381   0.00000  Uiso   1.00
H200   H     0.72412   0.27610   0.24884   0.00000  Uiso   1.00
H201   H     0.73626   0.29880   0.30276   0.00000  Uiso   1.00
H202   H     0.87721   0.04265   0.30182   0.00000  Uiso   1.00
H203   H     0.78944   0.29069   0.19820   0.00000  Uiso   1.00
H204   H     0.85264   0.23933   0.03049   0.00000  Uiso   1.00
H205   H     0.86215   0.09722   0.46942   0.00000  Uiso   1.00
H206   H     0.80719   0.23643   0.46946   0.00000  Uiso   1.00
H207   H     0.81671   0.09403   0.03016   0.00000  Uiso   1.00
H208   H     0.85109   0.23959   0.11087   0.00000  Uiso   1.00
N209   N     0.83333   0.28402   0.25000   0.00000  Uiso   1.00
N210   N     0.83333   0.04931   0.25000   0.00000  Uiso   1.00
N211   N     0.71169   0.10832   0.19080   0.00000  Uiso   1.00
N212   N     0.95482   0.22477   0.30962   0.00000  Uiso   1.00
N213   N     0.95763   0.10025   0.19768   0.00000  Uiso   1.00
N214   N     0.70904   0.23260   0.30304   0.00000  Uiso   1.00
O215   O     0.77321   0.20625   0.24999   0.00000  Uiso   1.00
O216   O     0.89345   0.12709   0.25000   0.00000  Uiso   1.00
O217   O     0.89345   0.20625   0.25000   0.00000  Uiso   1.00
O218   O     0.77321   0.12709   0.24999   0.00000  Uiso   1.00
O219   O     0.83333   0.20626   0.18573   0.00000  Uiso   1.00
O220   O     0.83334   0.12707   0.31427   0.00000  Uiso   1.00
O221   O     0.83334   0.20626   0.31427   0.00000  Uiso   1.00
O222   O     0.83333   0.12707   0.18573   0.00000  Uiso   1.00
C223   C     0.08740   0.50052   0.24987   0.00000  Uiso   1.00
C224   C     0.31112   0.53016   0.27890   0.00000  Uiso   1.00
C225   C     0.31255   0.46654   0.22414   0.00000  Uiso   1.00
C226   C     0.02076   0.53322   0.27635   0.00000  Uiso   1.00
C227   C     0.17758   0.54089   0.04761   0.00000  Uiso   1.00
C228   C     0.18291   0.46090   0.45224   0.00000  Uiso   1.00
C229   C     0.15286   0.53939   0.45226   0.00000  Uiso   1.00
C230   C     0.15823   0.45911   0.04742   0.00000  Uiso   1.00
C231   C     0.17692   0.54098   0.09352   0.00000  Uiso   1.00
C232   C     0.18220   0.46071   0.40632   0.00000  Uiso   1.00
C233   C     0.15278   0.53947   0.40635   0.00000  Uiso   1.00
C234   C     0.24592   0.49947   0.25021   0.00000  Uiso   1.00
C235   C     0.15824   0.45899   0.09333   0.00000  Uiso   1.00
C236   C     0.16730   0.50001   0.11666   0.00000  Uiso   1.00
C237   C     0.16719   0.50002   0.38318   0.00000  Uiso   1.00
C238   C     0.16801   0.50003   0.02418   0.00000  Uiso   1.00
C239   C     0.16801   0.50014   0.47559   0.00000  Uiso   1.00
C240   C     0.29062   0.49813   0.25154   0.00000  Uiso   1.00
C241   C     0.04269   0.50176   0.24876   0.00000  Uiso   1.00
C242   C     0.05507   0.46552   0.15015   0.00000  Uiso   1.00
C243   C     0.27707   0.53395   0.34983   0.00000  Uiso   1.00
C244   C     0.28671   0.38763   0.21752   0.00000  Uiso   1.00
C245   C     0.16685   0.50001   0.16493   0.00000  Uiso   1.00
C246   C     0.04668   0.61204   0.28354   0.00000  Uiso   1.00
C247   C     0.16675   0.49999   0.33502   0.00000  Uiso   1.00
C248   C     0.14227   0.35865   0.22124   0.00000  Uiso   1.00
C249   C     0.19106   0.64135   0.27875   0.00000  Uiso   1.00
C250   C     0.19103   0.35765   0.27878   0.00000  Uiso   1.00
C251   C     0.14230   0.64235   0.22123   0.00000  Uiso   1.00
C252   C     0.02216   0.46963   0.22155   0.00000  Uiso   1.00
Cu253  Cu    0.16667   0.54689   0.25000   0.00000  Uiso   1.00
Cu254  Cu    0.16667   0.45311   0.25000   0.00000  Uiso   1.00
H255   H     0.12272   0.37778   0.19823   0.00000  Uiso   1.00
H256   H     0.19392   0.43013   0.38892   0.00000  Uiso   1.00
H257   H     0.14080   0.57005   0.38899   0.00000  Uiso   1.00
H258   H     0.15061   0.42698   0.11052   0.00000  Uiso   1.00
H259   H     0.03437   0.40835   0.18557   0.00000  Uiso   1.00
H260   H     0.02650   0.47527   0.13178   0.00000  Uiso   1.00
H261   H     0.07416   0.44194   0.12911   0.00000  Uiso   1.00
H262   H     0.07287   0.49761   0.15708   0.00000  Uiso   1.00
H263   H     0.29902   0.59120   0.31540   0.00000  Uiso   1.00
H264   H     0.30514   0.52510   0.36942   0.00000  Uiso   1.00
H265   H     0.26034   0.50128   0.34223   0.00000  Uiso   1.00
H266   H     0.21062   0.62222   0.30176   0.00000  Uiso   1.00
H267   H     0.25654   0.55694   0.36993   0.00000  Uiso   1.00
H268   H     0.30023   0.43203   0.16517   0.00000  Uiso   1.00
H269   H     0.31650   0.36799   0.21732   0.00000  Uiso   1.00
H270   H     0.26377   0.36737   0.19850   0.00000  Uiso   1.00
H271   H     0.27600   0.39052   0.25223   0.00000  Uiso   1.00
H272   H     0.03307   0.56723   0.33555   0.00000  Uiso   1.00
H273   H     0.01691   0.63169   0.28381   0.00000  Uiso   1.00
H274   H     0.05745   0.60944   0.24884   0.00000  Uiso   1.00
H275   H     0.06959   0.63213   0.30276   0.00000  Uiso   1.00
H276   H     0.21054   0.37598   0.30182   0.00000  Uiso   1.00
H277   H     0.12277   0.62402   0.19820   0.00000  Uiso   1.00
H278   H     0.18597   0.57266   0.03049   0.00000  Uiso   1.00
H279   H     0.19549   0.43055   0.46942   0.00000  Uiso   1.00
H280   H     0.14052   0.56977   0.46946   0.00000  Uiso   1.00
H281   H     0.15004   0.42736   0.03016   0.00000  Uiso   1.00
H282   H     0.18442   0.57293   0.11087   0.00000  Uiso   1.00
N283   N     0.16667   0.61736   0.25000   0.00000  Uiso   1.00
N284   N     0.16667   0.38264   0.25000   0.00000  Uiso   1.00
N285   N     0.04502   0.44165   0.19080   0.00000  Uiso   1.00
N286   N     0.28816   0.55810   0.30962   0.00000  Uiso   1.00
N287   N     0.29096   0.43359   0.19768   0.00000  Uiso   1.00
N288   N     0.04238   0.56593   0.30304   0.00000  Uiso   1.00
O289   O     0.10655   0.53958   0.24999   0.00000  Uiso   1.00
O290   O     0.22679   0.46042   0.25000   0.00000  Uiso   1.00
O291   O     0.22679   0.53958   0.25000   0.00000  Uiso   1.00
O292   O     0.10655   0.46042   0.24999   0.00000  Uiso   1.00
O293   O     0.16666   0.53959   0.18573   0.00000  Uiso   1.00
O294   O     0.16667   0.46041   0.31427   0.00000  Uiso   1.00
O295   O     0.16667   0.53959   0.31427   0.00000  Uiso   1.00
O296   O     0.16666   0.46041   0.18573   0.00000  Uiso   1.00
C297   C     0.42073   0.50052   0.24987   0.00000  Uiso   1.00
C298   C     0.64445   0.53016   0.27890   0.00000  Uiso   1.00
C299   C     0.64588   0.46654   0.22414   0.00000  Uiso   1.00
C300   C     0.35409   0.53322   0.27635   0.00000  Uiso   1.00
C301   C     0.51091   0.54089   0.04761   0.00000  Uiso   1.00
C302   C     0.51624   0.46090   0.45224   0.00000  Uiso   1.00
C303   C     0.48620   0.53939   0.45226   0.00000  Uiso   1.00
C304   C     0.49156   0.45911   0.04742   0.00000  Uiso   1.00
C305   C     0.51025   0.54098   0.09352   0.00000  Uiso   1.00
C306   C     0.51553   0.46071   0.40632   0.00000  Uiso   1.00
C307   C     0.48611   0.53947   0.40635   0.00000  Uiso   1.00
C308   C     0.57926   0.49947   0.25021   0.00000  Uiso   1.00
C309   C     0.49157   0.45899   0.09333   0.00000  Uiso   1.00
C310   C     0.50063   0.50001   0.11666   0.00000  Uiso   1.00
C311   C     0.50052   0.50002   0.38318   0.00000  Uiso   1.00
C312   C     0.50134   0.50003   0.02418   0.00000  Uiso   1.00
C313   C     0.50134   0.50014   0.47559   0.00000  Uiso   1.00
C314   C     0.62395   0.49813   0.25154   0.00000  Uiso   1.00
C315   C     0.37602   0.50176   0.24876   0.00000  Uiso   1.00
C316   C     0.38840   0.46552   0.15015   0.00000  Uiso   1.00
C317   C     0.61041   0.53395   0.34983   0.00000  Uiso   1.00
C318   C     0.62005   0.38763   0.21752   0.00000  Uiso   1.00
C319   C     0.50018   0.50001   0.16493   0.00000  Uiso   1.00
C320   C     0.38001   0.61204   0.28354   0.00000  Uiso   1.00
C321   C     0.50008   0.49999   0.33502   0.00000  Uiso   1.00
C322   C     0.47561   0.35865   0.22124   0.00000  Uiso   1.00
C323   C     0.52440   0.64135   0.27875   0.00000  Uiso   1.00
C324   C     0.52436   0.35765   0.27878   0.00000  Uiso   1.00
C325   C     0.47563   0.64235   0.22123   0.00000  Uiso   1.00
C326   C     0.35549   0.46963   0.22155   0.00000  Uiso   1.00
Cu327  Cu    0.50000   0.54689   0.25000   0.00000  Uiso   1.00
Cu328  Cu    0.50000   0.45311   0.25000   0.00000  Uiso   1.00
H329   H     0.45606   0.37778   0.19823   0.00000  Uiso   1.00
H330   H     0.52726   0.43013   0.38892   0.00000  Uiso   1.00
H331   H     0.47413   0.57005   0.38899   0.00000  Uiso   1.00
H332   H     0.48394   0.42698   0.11052   0.00000  Uiso   1.00
H333   H     0.36770   0.40835   0.18557   0.00000  Uiso   1.00
H334   H     0.35983   0.47527   0.13178   0.00000  Uiso   1.00
H335   H     0.40750   0.44194   0.12911   0.00000  Uiso   1.00
H336   H     0.40620   0.49761   0.15708   0.00000  Uiso   1.00
H337   H     0.63236   0.59120   0.31540   0.00000  Uiso   1.00
H338   H     0.63847   0.52510   0.36942   0.00000  Uiso   1.00
H339   H     0.59368   0.50128   0.34223   0.00000  Uiso   1.00
H340   H     0.54395   0.62222   0.30176   0.00000  Uiso   1.00
H341   H     0.58987   0.55694   0.36993   0.00000  Uiso   1.00
H342   H     0.63356   0.43203   0.16517   0.00000  Uiso   1.00
H343   H     0.64983   0.36799   0.21732   0.00000  Uiso   1.00
H344   H     0.59711   0.36737   0.19850   0.00000  Uiso   1.00
H345   H     0.60934   0.39052   0.25223   0.00000  Uiso   1.00
H346   H     0.36640   0.56723   0.33555   0.00000  Uiso   1.00
H347   H     0.35024   0.63169   0.28381   0.00000  Uiso   1.00
H348   H     0.39079   0.60944   0.24884   0.00000  Uiso   1.00
H349   H     0.40293   0.63213   0.30276   0.00000  Uiso   1.00
H350   H     0.54387   0.37598   0.30182   0.00000  Uiso   1.00
H351   H     0.45611   0.62402   0.19820   0.00000  Uiso   1.00
H352   H     0.51931   0.57266   0.03049   0.00000  Uiso   1.00
H353   H     0.52882   0.43055   0.46942   0.00000  Uiso   1.00
H354   H     0.47386   0.56977   0.46946   0.00000  Uiso   1.00
H355   H     0.48337   0.42736   0.03016   0.00000  Uiso   1.00
H356   H     0.51775   0.57293   0.11087   0.00000  Uiso   1.00
N357   N     0.50000   0.61736   0.25000   0.00000  Uiso   1.00
N358   N     0.50000   0.38264   0.25000   0.00000  Uiso   1.00
N359   N     0.37835   0.44165   0.19080   0.00000  Uiso   1.00
N360   N     0.62149   0.55810   0.30962   0.00000  Uiso   1.00
N361   N     0.62429   0.43359   0.19768   0.00000  Uiso   1.00
N362   N     0.37571   0.56593   0.30304   0.00000  Uiso   1.00
O363   O     0.43988   0.53958   0.24999   0.00000  Uiso   1.00
O364   O     0.56012   0.46042   0.25000   0.00000  Uiso   1.00
O365   O     0.56012   0.53958   0.25000   0.00000  Uiso   1.00
O366   O     0.43988   0.46042   0.24999   0.00000  Uiso   1.00
O367   O     0.50000   0.53959   0.18573   0.00000  Uiso   1.00
O368   O     0.50000   0.46041   0.31427   0.00000  Uiso   1.00
O369   O     0.50000   0.53959   0.31427   0.00000  Uiso   1.00
O370   O     0.50000   0.46041   0.18573   0.00000  Uiso   1.00
C371   C     0.75407   0.50052   0.24987   0.00000  Uiso   1.00
C372   C     0.97779   0.53016   0.27890   0.00000  Uiso   1.00
C373   C     0.97921   0.46654   0.22414   0.00000  Uiso   1.00
C374   C     0.68743   0.53322   0.27635   0.00000  Uiso   1.00
C375   C     0.84424   0.54089   0.04761   0.00000  Uiso   1.00
C376   C     0.84957   0.46090   0.45224   0.00000  Uiso   1.00
C377   C     0.81953   0.53939   0.45226   0.00000  Uiso   1.00
C378   C     0.82489   0.45911   0.04742   0.00000  Uiso   1.00
C379   C     0.84359   0.54098   0.09352   0.00000  Uiso   1.00
C380   C     0.84886   0.46071   0.40632   0.00000  Uiso   1.00
C381   C     0.81944   0.53947   0.40635   0.00000  Uiso   1.00
C382   C     0.91259   0.49947   0.25021   0.00000  Uiso   1.00
C383   C     0.82491   0.45899   0.09333   0.00000  Uiso   1.00
C384   C     0.83396   0.50001   0.11666   0.00000  Uiso   1.00
C385   C     0.83386   0.50002   0.38318   0.00000  Uiso   1.00
C386   C     0.83468   0.50003   0.02418   0.00000  Uiso   1.00
C387   C     0.83468   0.50014   0.47559   0.00000  Uiso   1.00
C388   C     0.95728   0.49813   0.25154   0.00000  Uiso   1.00
C389   C     0.70935   0.50176   0.24876   0.00000  Uiso   1.00
C390   C     0.72174   0.46552   0.15015   0.00000  Uiso   1.00
C391   C     0.94374   0.53395   0.34983   0.00000  Uiso   1.00
C392   C     0.95338   0.38763   0.21752   0.00000  Uiso   1.00
C393   C     0.83352   0.50001   0.16493   0.00000  Uiso   1.00
C394   C     0.71335   0.61204   0.28354   0.00000  Uiso   1.00
C395   C     0.83341   0.49999   0.33502   0.00000  Uiso   1.00
C396   C     0.80894   0.35865   0.22124   0.00000  Uiso   1.00
C397   C     0.85773   0.64135   0.27875   0.00000  Uiso   1.00
C398   C     0.85769   0.35765   0.27878   0.00000  Uiso   1.00
C399   C     0.80896   0.64235   0.22123   0.00000  Uiso   1.00
C400   C     0.68882   0.46963   0.22155   0.00000  Uiso   1.00
Cu401  Cu    0.83333   0.54689   0.25000   0.00000  Uiso   1.00
Cu402  Cu    0.83333   0.45311   0.25000   0.00000  Uiso   1.00
H403   H     0.78939   0.37778   0.19823   0.00000  Uiso   1.00
H404   H     0.86059   0.43013   0.38892   0.00000  Uiso   1.00
H405   H     0.80747   0.57005   0.38899   0.00000  Uiso   1.00
H406   H     0.81728   0.42698   0.11052   0.00000  Uiso   1.00
H407   H     0.70103   0.40835   0.18557   0.00000  Uiso   1.00
H408   H     0.69317   0.47527   0.13178   0.00000  Uiso   1.00
H409   H     0.74083   0.44194   0.12911   0.00000  Uiso   1.00
H410   H     0.73953   0.49761   0.15708   0.00000  Uiso   1.00
H411   H     0.96569   0.59120   0.31540   0.00000  Uiso   1.00
H412   H     0.97181   0.52510   0.36942   0.00000  Uiso   1.00
H413   H     0.92701   0.50128   0.34223   0.00000  Uiso   1.00
H414   H     0.87729   0.62222   0.30176   0.00000  Uiso   1.00
H415   H     0.92320   0.55694   0.36993   0.00000  Uiso   1.00
H416   H     0.96690   0.43203   0.16517   0.00000  Uiso   1.00
H417   H     0.98316   0.36799   0.21732   0.00000  Uiso   1.00
H418   H     0.93044   0.36737   0.19850   0.00000  Uiso   1.00
H419   H     0.94267   0.39052   0.25223   0.00000  Uiso   1.00
H420   H     0.69973   0.56723   0.33555   0.00000  Uiso   1.00
H421   H     0.68358   0.63169   0.28381   0.00000  Uiso   1.00
H422   H     0.72412   0.60944   0.24884   0.00000  Uiso   1.00
H423   H     0.73626   0.63213   0.30276   0.00000  Uiso   1.00
H424   H     0.87721   0.37598   0.30182   0.00000  Uiso   1.00
H425   H     0.78944   0.62402   0.19820   0.00000  Uiso   1.00
H426   H     0.85264   0.57266   0.03049   0.00000  Uiso   1.00
H427   H     0.86215   0.43055   0.46942   0.00000  Uiso   1.00
H428   H     0.80719   0.56977   0.46946   0.00000  Uiso   1.00
H429   H     0.81671   0.42736   0.03016   0.00000  Uiso   1.00
H430   H     0.85109   0.57293   0.11087   0.00000  Uiso   1.00
N431   N     0.83333   0.61736   0.25000   0.00000  Uiso   1.00
N432   N     0.83333   0.38264   0.25000   0.00000  Uiso   1.00
N433   N     0.71169   0.44165   0.19080   0.00000  Uiso   1.00
N434   N     0.95482   0.55810   0.30962   0.00000  Uiso   1.00
N435   N     0.95763   0.43359   0.19768   0.00000  Uiso   1.00
N436   N     0.70904   0.56593   0.30304   0.00000  Uiso   1.00
O437   O     0.77321   0.53958   0.24999   0.00000  Uiso   1.00
O438   O     0.89345   0.46042   0.25000   0.00000  Uiso   1.00
O439   O     0.89345   0.53958   0.25000   0.00000  Uiso   1.00
O440   O     0.77321   0.46042   0.24999   0.00000  Uiso   1.00
O441   O     0.83333   0.53959   0.18573   0.00000  Uiso   1.00
O442   O     0.83334   0.46041   0.31427   0.00000  Uiso   1.00
O443   O     0.83334   0.53959   0.31427   0.00000  Uiso   1.00
O444   O     0.83333   0.46041   0.18573   0.00000  Uiso   1.00
C445   C     0.08740   0.83385   0.24987   0.00000  Uiso   1.00
C446   C     0.31112   0.86349   0.27890   0.00000  Uiso   1.00
C447   C     0.31255   0.79988   0.22414   0.00000  Uiso   1.00
C448   C     0.02076   0.86655   0.27635   0.00000  Uiso   1.00
C449   C     0.17758   0.87423   0.04761   0.00000  Uiso   1.00
C450   C     0.18291   0.79423   0.45224   0.00000  Uiso   1.00
C451   C     0.15286   0.87273   0.45226   0.00000  Uiso   1.00
C452   C     0.15823   0.79245   0.04742   0.00000  Uiso   1.00
C453   C     0.17692   0.87431   0.09352   0.00000  Uiso   1.00
C454   C     0.18220   0.79404   0.40632   0.00000  Uiso   1.00
C455   C     0.15278   0.87281   0.40635   0.00000  Uiso   1.00
C456   C     0.24592   0.83280   0.25021   0.00000  Uiso   1.00
C457   C     0.15824   0.79233   0.09333   0.00000  Uiso   1.00
C458   C     0.16730   0.83334   0.11666   0.00000  Uiso   1.00
C459   C     0.16719   0.83336   0.38318   0.00000  Uiso   1.00
C460   C     0.16801   0.83336   0.02418   0.00000  Uiso   1.00
C461   C     0.16801   0.83347   0.47559   0.00000  Uiso   1.00
C462   C     0.29062   0.83147   0.25154   0.00000  Uiso   1.00
C463   C     0.04269   0.83510   0.24876   0.00000  Uiso   1.00
C464   C     0.05507   0.79886   0.15015   0.00000  Uiso   1.00
C465   C     0.27707   0.86729   0.34983   0.00000  Uiso   1.00
C466   C     0.28671   0.72097   0.21752   0.00000  Uiso   1.00
C467   C     0.16685   0.83334   0.16493   0.00000  Uiso   1.00
C468   C     0.04668   0.94538   0.28354   0.00000  Uiso   1.00
C469   C     0.16675   0.83332   0.33502   0.00000  Uiso   1.00
C470   C     0.14227   0.69199   0.22124   0.00000  Uiso   1.00
C471   C     0.19106   0.97468   0.27875   0.00000  Uiso   1.00
C472   C     0.19103   0.69098   0.27878   0.00000  Uiso   1.00
C473   C     0.14230   0.97569   0.22123   0.00000  Uiso   1.00
C474   C     0.02216   0.80296   0.22155   0.00000  Uiso   1.00
Cu475  Cu    0.16667   0.88022   0.25000   0.00000  Uiso   1.00
Cu476  Cu    0.16667   0.78645   0.25000   0.00000  Uiso   1.00
H477   H     0.12272   0.71112   0.19823   0.00000  Uiso   1.00
H478   H     0.19392   0.76347   0.38892   0.00000  Uiso   1.00
H479   H     0.14080   0.90338   0.38899   0.00000  Uiso   1.00
H480   H     0.15061   0.76031   0.11052   0.00000  Uiso   1.00
H481   H     0.03437   0.74169   0.18557   0.00000  Uiso   1.00
H482   H     0.02650   0.80861   0.13178   0.00000  Uiso   1.00
H483   H     0.07416   0.77528   0.12911   0.00000  Uiso   1.00
H484   H     0.07287   0.83094   0.15708   0.00000  Uiso   1.00
H485   H     0.29902   0.92454   0.31540   0.00000  Uiso   1.00
H486   H     0.30514   0.85843   0.36942   0.00000  Uiso   1.00
H487   H     0.26034   0.83461   0.34223   0.00000  Uiso   1.00
H488   H     0.21062   0.95555   0.30176   0.00000  Uiso   1.00
H489   H     0.25654   0.89027   0.36993   0.00000  Uiso   1.00
H490   H     0.30023   0.76536   0.16517   0.00000  Uiso   1.00
H491   H     0.31650   0.70133   0.21732   0.00000  Uiso   1.00
H492   H     0.26377   0.70071   0.19850   0.00000  Uiso   1.00
H493   H     0.27600   0.72385   0.25223   0.00000  Uiso   1.00
H494   H     0.03307   0.90057   0.33555   0.00000  Uiso   1.00
H495   H     0.01691   0.96503   0.28381   0.00000  Uiso   1.00
H496   H     0.05745   0.94277   0.24884   0.00000  Uiso   1.00
H497   H     0.06959   0.96546   0.30276   0.00000  Uiso   1.00
H498   H     0.21054   0.70931   0.30182   0.00000  Uiso   1.00
H499   H     0.12277   0.95736   0.19820   0.00000  Uiso   1.00
H500   H     0.18597   0.90600   0.03049   0.00000  Uiso   1.00
H501   H     0.19549   0.76388   0.46942   0.00000  Uiso   1.00
H502   H     0.14052   0.90310   0.46946   0.00000  Uiso   1.00
H503   H     0.15004   0.76069   0.03016   0.00000  Uiso   1.00
H504   H     0.18442   0.90626   0.11087   0.00000  Uiso   1.00
N505   N     0.16667   0.95069   0.25000   0.00000  Uiso   1.00
N506   N     0.16667   0.71598   0.25000   0.00000  Uiso   1.00
N507   N     0.04502   0.77499   0.19080   0.00000  Uiso   1.00
N508   N     0.28816   0.89143   0.30962   0.00000  Uiso   1.00
N509   N     0.29096   0.76692   0.19768   0.00000  Uiso   1.00
N510   N     0.04238   0.89927   0.30304   0.00000  Uiso   1.00
O511   O     0.10655   0.87291   0.24999   0.00000  Uiso   1.00
O512   O     0.22679   0.79375   0.25000   0.00000  Uiso   1.00
O513   O     0.22679   0.87291   0.25000   0.00000  Uiso   1.00
O514   O     0.10655   0.79375   0.24999   0.00000  Uiso   1.00
O515   O     0.16666   0.87293   0.18573   0.00000  Uiso   1.00
O516   O     0.16667   0.79374   0.31427   0.00000  Uiso   1.00
O517   O     0.16667   0.87293   0.31427   0.00000  Uiso   1.00
O518   O     0.16666   0.79374   0.18573   0.00000  Uiso   1.00
C519   C     0.42073   0.83385   0.24987   0.00000  Uiso   1.00
C520   C     0.64445   0.86349   0.27890   0.00000  Uiso   1.00
C521   C     0.64588   0.79988   0.22414   0.00000  Uiso   1.00
C522   C     0.35409   0.86655   0.27635   0.00000  Uiso   1.00
C523   C     0.51091   0.87423   0.04761   0.00000  Uiso   1.00
C524   C     0.51624   0.79423   0.45224   0.00000  Uiso   1.00
C525   C     0.48620   0.87273   0.45226   0.00000  Uiso   1.00
C526   C     0.49156   0.79245   0.04742   0.00000  Uiso   1.00
C527   C     0.51025   0.87431   0.09352   0.00000  Uiso   1.00
C528   C     0.51553   0.79404   0.40632   0.00000  Uiso   1.00
C529   C     0.48611   0.87281   0.40635   0.00000  Uiso   1.00
C530   C     0.57926   0.83280   0.25021   0.00000  Uiso   1.00
C531   C     0.49157   0.79233   0.09333   0.00000  Uiso   1.00
C532   C     0.50063   0.83334   0.11666   0.00000  Uiso   1.00
C533   C     0.50052   0.83336   0.38318   0.00000  Uiso   1.00
C534   C     0.50134   0.83336   0.02418   0.00000  Uiso   1.00
C535   C     0.50134   0.83347   0.47559   0.00000  Uiso   1.00
C536   C     0.62395   0.83147   0.25154   0.00000  Uiso   1.00
C537   C     0.37602   0.83510   0.24876   0.00000  Uiso   1.00
C538   C     0.38840   0.79886   0.15015   0.00000  Uiso   1.00
C539   C     0.61041   0.86729   0.34983   0.00000  Uiso   1.00
C540   C     0.62005   0.72097   0.21752   0.00000  Uiso   1.00
C541   C     0.50018   0.83334   0.16493   0.00000  Uiso   1.00
C542   C     0.38001   0.94538   0.28354   0.00000  Uiso   1.00
C543   C     0.50008   0.83332   0.33502   0.00000  Uiso   1.00
C544   C     0.47561   0.69199   0.22124   0.00000  Uiso   1.00
C545   C     0.52440   0.97468   0.27875   0.00000  Uiso   1.00
C546   C     0.52436   0.69098   0.27878   0.00000  Uiso   1.00
C547   C     0.47563   0.97569   0.22123   0.00000  Uiso   1.00
C548   C     0.35549   0.80296   0.22155   0.00000  Uiso   1.00
Cu549  Cu    0.50000   0.88022   0.25000   0.00000  Uiso   1.00
Cu550  Cu    0.50000   0.78645   0.25000   0.00000  Uiso   1.00
H551   H     0.45606   0.71112   0.19823   0.00000  Uiso   1.00
H552   H     0.52726   0.76347   0.38892   0.00000  Uiso   1.00
H553   H     0.47413   0.90338   0.38899   0.00000  Uiso   1.00
H554   H     0.48394   0.76031   0.11052   0.00000  Uiso   1.00
H555   H     0.36770   0.74169   0.18557   0.00000  Uiso   1.00
H556   H     0.35983   0.80861   0.13178   0.00000  Uiso   1.00
H557   H     0.40750   0.77528   0.12911   0.00000  Uiso   1.00
H558   H     0.40620   0.83094   0.15708   0.00000  Uiso   1.00
H559   H     0.63236   0.92454   0.31540   0.00000  Uiso   1.00
H560   H     0.63847   0.85843   0.36942   0.00000  Uiso   1.00
H561   H     0.59368   0.83461   0.34223   0.00000  Uiso   1.00
H562   H     0.54395   0.95555   0.30176   0.00000  Uiso   1.00
H563   H     0.58987   0.89027   0.36993   0.00000  Uiso   1.00
H564   H     0.63356   0.76536   0.16517   0.00000  Uiso   1.00
H565   H     0.64983   0.70133   0.21732   0.00000  Uiso   1.00
H566   H     0.59711   0.70071   0.19850   0.00000  Uiso   1.00
H567   H     0.60934   0.72385   0.25223   0.00000  Uiso   1.00
H568   H     0.36640   0.90057   0.33555   0.00000  Uiso   1.00
H569   H     0.35024   0.96503   0.28381   0.00000  Uiso   1.00
H570   H     0.39079   0.94277   0.24884   0.00000  Uiso   1.00
H571   H     0.40293   0.96546   0.30276   0.00000  Uiso   1.00
H572   H     0.54387   0.70931   0.30182   0.00000  Uiso   1.00
H573   H     0.45611   0.95736   0.19820   0.00000  Uiso   1.00
H574   H     0.51931   0.90600   0.03049   0.00000  Uiso   1.00
H575   H     0.52882   0.76388   0.46942   0.00000  Uiso   1.00
H576   H     0.47386   0.90310   0.46946   0.00000  Uiso   1.00
H577   H     0.48337   0.76069   0.03016   0.00000  Uiso   1.00
H578   H     0.51775   0.90626   0.11087   0.00000  Uiso   1.00
N579   N     0.50000   0.95069   0.25000   0.00000  Uiso   1.00
N580   N     0.50000   0.71598   0.25000   0.00000  Uiso   1.00
N581   N     0.37835   0.77499   0.19080   0.00000  Uiso   1.00
N582   N     0.62149   0.89143   0.30962   0.00000  Uiso   1.00
N583   N     0.62429   0.76692   0.19768   0.00000  Uiso   1.00
N584   N     0.37571   0.89927   0.30304   0.00000  Uiso   1.00
O585   O     0.43988   0.87291   0.24999   0.00000  Uiso   1.00
O586   O     0.56012   0.79375   0.25000   0.00000  Uiso   1.00
O587   O     0.56012   0.87291   0.25000   0.00000  Uiso   1.00
O588   O     0.43988   0.79375   0.24999   0.00000  Uiso   1.00
O589   O     0.50000   0.87293   0.18573   0.00000  Uiso   1.00
O590   O     0.50000   0.79374   0.31427   0.00000  Uiso   1.00
O591   O     0.50000   0.87293   0.31427   0.00000  Uiso   1.00
O592   O     0.50000   0.79374   0.18573   0.00000  Uiso   1.00
C593   C     0.75407   0.83385   0.24987   0.00000  Uiso   1.00
C594   C     0.97779   0.86349   0.27890   0.00000  Uiso   1.00
C595   C     0.97921   0.79988   0.22414   0.00000  Uiso   1.00
C596   C     0.68743   0.86655   0.27635   0.00000  Uiso   1.00
C597   C     0.84424   0.87423   0.04761   0.00000  Uiso   1.00
C598   C     0.84957   0.79423   0.45224   0.00000  Uiso   1.00
C599   C     0.81953   0.87273   0.45226   0.00000  Uiso   1.00
C600   C     0.82489   0.79245   0.04742   0.00000  Uiso   1.00
C601   C     0.84359   0.87431   0.09352   0.00000  Uiso   1.00
C602   C     0.84886   0.79404   0.40632   0.00000  Uiso   1.00
C603   C     0.81944   0.87281   0.40635   0.00000  Uiso   1.00
C604   C     0.91259   0.83280   0.25021   0.00000  Uiso   1.00
C605   C     0.82491   0.79233   0.09333   0.00000  Uiso   1.00
C606   C     0.83396   0.83334   0.11666   0.00000  Uiso   1.00
C607   C     0.83386   0.83336   0.38318   0.00000  Uiso   1.00
C608   C     0.83468   0.83336   0.02418   0.00000  Uiso   1.00
C609   C     0.83468   0.83347   0.47559   0.00000  Uiso   1.00
C610   C     0.95728   0.83147   0.25154   0.00000  Uiso   1.00
C611   C     0.70935   0.83510   0.24876   0.00000  Uiso   1.00
C612   C     0.72174   0.79886   0.15015   0.00000  Uiso   1.00
C613   C     0.94374   0.86729   0.34983   0.00000  Uiso   1.00
C614   C     0.95338   0.72097   0.21752   0.00000  Uiso   1.00
C615   C     0.83352   0.83334   0.16493   0.00000  Uiso   1.00
C616   C     0.71335   0.94538   0.28354   0.00000  Uiso   1.00
C617   C     0.83341   0.83332   0.33502   0.00000  Uiso   1.00
C618   C     0.80894   0.69199   0.22124   0.00000  Uiso   1.00
C619   C     0.85773   0.97468   0.27875   0.00000  Uiso   1.00
C620   C     0.85769   0.69098   0.27878   0.00000  Uiso   1.00
C621   C     0.80896   0.97569   0.22123   0.00000  Uiso   1.00
C622   C     0.68882   0.80296   0.22155   0.00000  Uiso   1.00
Cu623  Cu    0.83333   0.88022   0.25000   0.00000  Uiso   1.00
Cu624  Cu    0.83333   0.78645   0.25000   0.00000  Uiso   1.00
H625   H     0.78939   0.71112   0.19823   0.00000  Uiso   1.00
H626   H     0.86059   0.76347   0.38892   0.00000  Uiso   1.00
H627   H     0.80747   0.90338   0.38899   0.00000  Uiso   1.00
H628   H     0.81728   0.76031   0.11052   0.00000  Uiso   1.00
H629   H     0.70103   0.74169   0.18557   0.00000  Uiso   1.00
H630   H     0.69317   0.80861   0.13178   0.00000  Uiso   1.00
H631   H     0.74083   0.77528   0.12911   0.00000  Uiso   1.00
H632   H     0.73953   0.83094   0.15708   0.00000  Uiso   1.00
H633   H     0.96569   0.92454   0.31540   0.00000  Uiso   1.00
H634   H     0.97181   0.85843   0.36942   0.00000  Uiso   1.00
H635   H     0.92701   0.83461   0.34223   0.00000  Uiso   1.00
H636   H     0.87729   0.95555   0.30176   0.00000  Uiso   1.00
H637   H     0.92320   0.89027   0.36993   0.00000  Uiso   1.00
H638   H     0.96690   0.76536   0.16517   0.00000  Uiso   1.00
H639   H     0.98316   0.70133   0.21732   0.00000  Uiso   1.00
H640   H     0.93044   0.70071   0.19850   0.00000  Uiso   1.00
H641   H     0.94267   0.72385   0.25223   0.00000  Uiso   1.00
H642   H     0.69973   0.90057   0.33555   0.00000  Uiso   1.00
H643   H     0.68358   0.96503   0.28381   0.00000  Uiso   1.00
H644   H     0.72412   0.94277   0.24884   0.00000  Uiso   1.00
H645   H     0.73626   0.96546   0.30276   0.00000  Uiso   1.00
H646   H     0.87721   0.70931   0.30182   0.00000  Uiso   1.00
H647   H     0.78944   0.95736   0.19820   0.00000  Uiso   1.00
H648   H     0.85264   0.90600   0.03049   0.00000  Uiso   1.00
H649   H     0.86215   0.76388   0.46942   0.00000  Uiso   1.00
H650   H     0.80719   0.90310   0.46946   0.00000  Uiso   1.00
H651   H     0.81671   0.76069   0.03016   0.00000  Uiso   1.00
H652   H     0.85109   0.90626   0.11087   0.00000  Uiso   1.00
N653   N     0.83333   0.95069   0.25000   0.00000  Uiso   1.00
N654   N     0.83333   0.71598   0.25000   0.00000  Uiso   1.00
N655   N     0.71169   0.77499   0.19080   0.00000  Uiso   1.00
N656   N     0.95482   0.89143   0.30962   0.00000  Uiso   1.00
N657   N     0.95763   0.76692   0.19768   0.00000  Uiso   1.00
N658   N     0.70904   0.89927   0.30304   0.00000  Uiso   1.00
O659   O     0.77321   0.87291   0.24999   0.00000  Uiso   1.00
O660   O     0.89345   0.79375   0.25000   0.00000  Uiso   1.00
O661   O     0.89345   0.87291   0.25000   0.00000  Uiso   1.00
O662   O     0.77321   0.79375   0.24999   0.00000  Uiso   1.00
O663   O     0.83333   0.87293   0.18573   0.00000  Uiso   1.00
O664   O     0.83334   0.79374   0.31427   0.00000  Uiso   1.00
O665   O     0.83334   0.87293   0.31427   0.00000  Uiso   1.00
O666   O     0.83333   0.79374   0.18573   0.00000  Uiso   1.00
C667   C     0.08740   0.16718   0.74987   0.00000  Uiso   1.00
C668   C     0.31112   0.19682   0.77890   0.00000  Uiso   1.00
C669   C     0.31255   0.13321   0.72414   0.00000  Uiso   1.00
C670   C     0.02076   0.19989   0.77635   0.00000  Uiso   1.00
C671   C     0.17758   0.20756   0.54761   0.00000  Uiso   1.00
C672   C     0.18291   0.12757   0.95224   0.00000  Uiso   1.00
C673   C     0.15286   0.20606   0.95226   0.00000  Uiso   1.00
C674   C     0.15823   0.12578   0.54742   0.00000  Uiso   1.00
C675   C     0.17692   0.20764   0.59352   0.00000  Uiso   1.00
C676   C     0.18220   0.12738   0.90632   0.00000  Uiso   1.00
C677   C     0.15278   0.20614   0.90635   0.00000  Uiso   1.00
C678   C     0.24592   0.16614   0.75021   0.00000  Uiso   1.00
C679   C     0.15824   0.12566   0.59333   0.00000  Uiso   1.00
C680   C     0.16730   0.16668   0.61666   0.00000  Uiso   1.00
C681   C     0.16719   0.16669   0.88318   0.00000  Uiso   1.00
C682   C     0.16801   0.16670   0.52418   0.00000  Uiso   1.00
C683   C     0.16801   0.16681   0.97559   0.00000  Uiso   1.00
C684   C     0.29062   0.16480   0.75154   0.00000  Uiso   1.00
C685   C     0.04269   0.16843   0.74876   0.00000  Uiso   1.00
C686   C     0.05507   0.13219   0.65015   0.00000  Uiso   1.00
C687   C     0.27707   0.20062   0.84983   0.00000  Uiso   1.00
C688   C     0.28671   0.05430   0.71752   0.00000  Uiso   1.00
C689   C     0.16685   0.16668   0.66493   0.00000  Uiso   1.00
C690   C     0.04668   0.27871   0.78354   0.00000  Uiso   1.00
C691   C     0.16675   0.16666   0.83502   0.00000  Uiso   1.00
C692   C     0.14227   0.02532   0.72124   0.00000  Uiso   1.00
C693   C     0.19106   0.30801   0.77875   0.00000  Uiso   1.00
C694   C     0.19103   0.02431   0.77878   0.00000  Uiso   1.00
C695   C     0.14230   0.30902   0.72123   0.00000  Uiso   1.00
C696   C     0.02216   0.13629   0.72155   0.00000  Uiso   1.00
Cu697  Cu    0.16667   0.21355   0.75000   0.00000  Uiso   1.00
Cu698  Cu    0.16667   0.11978   0.75000   0.00000  Uiso   1.00
H699   H     0.12272   0.04445   0.69823   0.00000  Uiso   1.00
H700   H     0.19392   0.09680   0.88892   0.00000  Uiso   1.00
H701   H     0.14080   0.23671   0.88899   0.00000  Uiso   1.00
H702   H     0.15061   0.09365   0.61052   0.00000  Uiso   1.00
H703   H     0.03437   0.07502   0.68557   0.00000  Uiso   1.00
H704   H     0.02650   0.14194   0.63178   0.00000  Uiso   1.00
H705   H     0.07416   0.10861   0.62911   0.00000  Uiso   1.00
H706   H     0.07287   0.16428   0.65708   0.00000  Uiso   1.00
H707   H     0.29902   0.25787   0.81540   0.00000  Uiso   1.00
H708   H     0.30514   0.19176   0.86942   0.00000  Uiso   1.00
H709   H     0.26034   0.16795   0.84223   0.00000  Uiso   1.00
H710   H     0.21062   0.28889   0.80176   0.00000  Uiso   1.00
H711   H     0.25654   0.22361   0.86993   0.00000  Uiso   1.00
H712   H     0.30023   0.09870   0.66517   0.00000  Uiso   1.00
H713   H     0.31650   0.03466   0.71732   0.00000  Uiso   1.00
H714   H     0.26377   0.03404   0.69850   0.00000  Uiso   1.00
H715   H     0.27600   0.05719   0.75223   0.00000  Uiso   1.00
H716   H     0.03307   0.23390   0.83555   0.00000  Uiso   1.00
H717   H     0.01691   0.29836   0.78381   0.00000  Uiso   1.00
H718   H     0.05745   0.27610   0.74884   0.00000  Uiso   1.00
H719   H     0.06959   0.29880   0.80276   0.00000  Uiso   1.00
H720   H     0.21054   0.04265   0.80182   0.00000  Uiso   1.00
H721   H     0.12277   0.29069   0.69820   0.00000  Uiso   1.00
H722   H     0.18597   0.23933   0.53049   0.00000  Uiso   1.00
H723   H     0.19549   0.09722   0.96942   0.00000  Uiso   1.00
H724   H     0.14052   0.23643   0.96946   0.00000  Uiso   1.00
H725   H     0.15004   0.09403   0.53016   0.00000  Uiso   1.00
H726   H     0.18442   0.23959   0.61087   0.00000  Uiso   1.00
N727   N     0.16667   0.28402   0.75000   0.00000  Uiso   1.00
N728   N     0.16667   0.04931   0.75000   0.00000  Uiso   1.00
N729   N     0.04502   0.10832   0.69080   0.00000  Uiso   1.00
N730   N     0.28816   0.22477   0.80962   0.00000  Uiso   1.00
N731   N     0.29096   0.10025   0.69768   0.00000  Uiso   1.00
N732   N     0.04238   0.23260   0.80304   0.00000  Uiso   1.00
O733   O     0.10655   0.20625   0.74999   0.00000  Uiso   1.00
O734   O     0.22679   0.12709   0.75000   0.00000  Uiso   1.00
O735   O     0.22679   0.20625   0.75000   0.00000  Uiso   1.00
O736   O     0.10655   0.12709   0.74999   0.00000  Uiso   1.00
O737   O     0.16666   0.20626   0.68573   0.00000  Uiso   1.00
O738   O     0.16667   0.12707   0.81427   0.00000  Uiso   1.00
O739   O     0.16667   0.20626   0.81427   0.00000  Uiso   1.00
O740   O     0.16666   0.12707   0.68573   0.00000  Uiso   1.00
C741   C     0.42073   0.16718   0.74987   0.00000  Uiso   1.00
C742   C     0.64445   0.19682   0.77890   0.00000  Uiso   1.00
C743   C     0.64588   0.13321   0.72414   0.00000  Uiso   1.00
C744   C     0.35409   0.19989   0.77635   0.00000  Uiso   1.00
C745   C     0.51091   0.20756   0.54761   0.00000  Uiso   1.00
C746   C     0.51624   0.12757   0.95224   0.00000  Uiso   1.00
C747   C     0.48620   0.20606   0.95226   0.00000  Uiso   1.00
C748   C     0.49156   0.12578   0.54742   0.00000  Uiso   1.00
C749   C     0.51025   0.20764   0.59352   0.00000  Uiso   1.00
C750   C     0.51553   0.12738   0.90632   0.00000  Uiso   1.00
C751   C     0.48611   0.20614   0.90635   0.00000  Uiso   1.00
C752   C     0.57926   0.16614   0.75021   0.00000  Uiso   1.00
C753   C     0.49157   0.12566   0.59333   0.00000  Uiso   1.00
C754   C     0.50063   0.16668   0.61666   0.00000  Uiso   1.00
C755   C     0.50052   0.16669   0.88318   0.00000  Uiso   1.00
C756   C     0.50134   0.16670   0.52418   0.00000  Uiso   1.00
C757   C     0.50134   0.16681   0.97559   0.00000  Uiso   1.00
C758   C     0.62395   0.16480   0.75154   0.00000  Uiso   1.00
C759   C     0.37602   0.16843   0.74876   0.00000  Uiso   1.00
C760   C     0.38840   0.13219   0.65015   0.00000  Uiso   1.00
C761   C     0.61041   0.20062   0.84983   0.00000  Uiso   1.00
C762   C     0.62005   0.05430   0.71752   0.00000  Uiso   1.00
C763   C     0.50018   0.16668   0.66493   0.00000  Uiso   1.00
C764   C     0.38001   0.27871   0.78354   0.00000  Uiso   1.00
C765   C     0.50008   0.16666   0.83502   0.00000  Uiso   1.00
C766   C     0.47561   0.02532   0.72124   0.00000  Uiso   1.00
C767   C     0.52440   0.30801   0.77875   0.00000  Uiso   1.00
C768   C     0.52436   0.02431   0.77878   0.00000  Uiso   1.00
C769   C     0.47563   0.30902   0.72123   0.00000  Uiso   1.00
C770   C     0.35549   0.13629   0.72155   0.00000  Uiso   1.00
Cu771  Cu    0.50000   0.21355   0.75000   0.00000  Uiso   1.00
Cu772  Cu    0.50000   0.11978   0.75000   0.00000  Uiso   1.00
H773   H     0.45606   0.04445   0.69823   0.00000  Uiso   1.00
H774   H     0.52726   0.09680   0.88892   0.00000  Uiso   1.00
H775   H     0.47413   0.23671   0.88899   0.00000  Uiso   1.00
H776   H     0.48394   0.09365   0.61052   0.00000  Uiso   1.00
H777   H     0.36770   0.07502   0.68557   0.00000  Uiso   1.00
H778   H     0.35983   0.14194   0.63178   0.00000  Uiso   1.00
H779   H     0.40750   0.10861   0.62911   0.00000  Uiso   1.00
H780   H     0.40620   0.16428   0.65708   0.00000  Uiso   1.00
H781   H     0.63236   0.25787   0.81540   0.00000  Uiso   1.00
H782   H     0.63847   0.19176   0.86942   0.00000  Uiso   1.00
H783   H     0.59368   0.16795   0.84223   0.00000  Uiso   1.00
H784   H     0.54395   0.28889   0.80176   0.00000  Uiso   1.00
H785   H     0.58987   0.22361   0.86993   0.00000  Uiso   1.00
H786   H     0.63356   0.09870   0.66517   0.00000  Uiso   1.00
H787   H     0.64983   0.03466   0.71732   0.00000  Uiso   1.00
H788   H     0.59711   0.03404   0.69850   0.00000  Uiso   1.00
H789   H     0.60934   0.05719   0.75223   0.00000  Uiso   1.00
H790   H     0.36640   0.23390   0.83555   0.00000  Uiso   1.00
H791   H     0.35024   0.29836   0.78381   0.00000  Uiso   1.00
H792   H     0.39079   0.27610   0.74884   0.00000  Uiso   1.00
H793   H     0.40293   0.29880   0.80276   0.00000  Uiso   1.00
H794   H     0.54387   0.04265   0.80182   0.00000  Uiso   1.00
H795   H     0.45611   0.29069   0.69820   0.00000  Uiso   1.00
H796   H     0.51931   0.23933   0.53049   0.00000  Uiso   1.00
H797   H     0.52882   0.09722   0.96942   0.00000  Uiso   1.00
H798   H     0.47386   0.23643   0.96946   0.00000  Uiso   1.00
H799   H     0.48337   0.09403   0.53016   0.00000  Uiso   1.00
H800   H     0.51775   0.23959   0.61087   0.00000  Uiso   1.00
N801   N     0.50000   0.28402   0.75000   0.00000  Uiso   1.00
N802   N     0.50000   0.04931   0.75000   0.00000  Uiso   1.00
N803   N     0.37835   0.10832   0.69080   0.00000  Uiso   1.00
N804   N     0.62149   0.22477   0.80962   0.00000  Uiso   1.00
N805   N     0.62429   0.10025   0.69768   0.00000  Uiso   1.00
N806   N     0.37571   0.23260   0.80304   0.00000  Uiso   1.00
O807   O     0.43988   0.20625   0.74999   0.00000  Uiso   1.00
O808   O     0.56012   0.12709   0.75000   0.00000  Uiso   1.00
O809   O     0.56012   0.20625   0.75000   0.00000  Uiso   1.00
O810   O     0.43988   0.12709   0.74999   0.00000  Uiso   1.00
O811   O     0.50000   0.20626   0.68573   0.00000  Uiso   1.00
O812   O     0.50000   0.12707   0.81427   0.00000  Uiso   1.00
O813   O     0.50000   0.20626   0.81427   0.00000  Uiso   1.00
O814   O     0.50000   0.12707   0.68573   0.00000  Uiso   1.00
C815   C     0.75407   0.16718   0.74987   0.00000  Uiso   1.00
C816   C     0.97779   0.19682   0.77890   0.00000  Uiso   1.00
C817   C     0.97921   0.13321   0.72414   0.00000  Uiso   1.00
C818   C     0.68743   0.19989   0.77635   0.00000  Uiso   1.00
C819   C     0.84424   0.20756   0.54761   0.00000  Uiso   1.00
C820   C     0.84957   0.12757   0.95224   0.00000  Uiso   1.00
C821   C     0.81953   0.20606   0.95226   0.00000  Uiso   1.00
C822   C     0.82489   0.12578   0.54742   0.00000  Uiso   1.00
C823   C     0.84359   0.20764   0.59352   0.00000  Uiso   1.00
C824   C     0.84886   0.12738   0.90632   0.00000  Uiso   1.00
C825   C     0.81944   0.20614   0.90635   0.00000  Uiso   1.00
C826   C     0.91259   0.16614   0.75021   0.00000  Uiso   1.00
C827   C     0.82491   0.12566   0.59333   0.00000  Uiso   1.00
C828   C     0.83396   0.16668   0.61666   0.00000  Uiso   1.00
C829   C     0.83386   0.16669   0.88318   0.00000  Uiso   1.00
C830   C     0.83468   0.16670   0.52418   0.00000  Uiso   1.00
C831   C     0.83468   0.16681   0.97559   0.00000  Uiso   1.00
C832   C     0.95728   0.16480   0.75154   0.00000  Uiso   1.00
C833   C     0.70935   0.16843   0.74876   0.00000  Uiso   1.00
C834   C     0.72174   0.13219   0.65015   0.00000  Uiso   1.00
C835   C     0.94374   0.20062   0.84983   0.00000  Uiso   1.00
C836   C     0.95338   0.05430   0.71752   0.00000  Uiso   1.00
C837   C     0.83352   0.16668   0.66493   0.00000  Uiso   1.00
C838   C     0.71335   0.27871   0.78354   0.00000  Uiso   1.00
C839   C     0.83341   0.16666   0.83502   0.00000  Uiso   1.00
C840   C     0.80894   0.02532   0.72124   0.00000  Uiso   1.00
C841   C     0.85773   0.30801   0.77875   0.00000  Uiso   1.00
C842   C     0.85769   0.02431   0.77878   0.00000  Uiso   1.00
C843   C     0.80896   0.30902   0.72123   0.00000  Uiso   1.00
C844   C     0.68882   0.13629   0.72155   0.00000  Uiso   1.00
Cu845  Cu    0.83333   0.21355   0.75000   0.00000  Uiso   1.00
Cu846  Cu    0.83333   0.11978   0.75000   0.00000  Uiso   1.00
H847   H     0.78939   0.04445   0.69823   0.00000  Uiso   1.00
H848   H     0.86059   0.09680   0.88892   0.00000  Uiso   1.00
H849   H     0.80747   0.23671   0.88899   0.00000  Uiso   1.00
H850   H     0.81728   0.09365   0.61052   0.00000  Uiso   1.00
H851   H     0.70103   0.07502   0.68557   0.00000  Uiso   1.00
H852   H     0.69317   0.14194   0.63178   0.00000  Uiso   1.00
H853   H     0.74083   0.10861   0.62911   0.00000  Uiso   1.00
H854   H     0.73953   0.16428   0.65708   0.00000  Uiso   1.00
H855   H     0.96569   0.25787   0.81540   0.00000  Uiso   1.00
H856   H     0.97181   0.19176   0.86942   0.00000  Uiso   1.00
H857   H     0.92701   0.16795   0.84223   0.00000  Uiso   1.00
H858   H     0.87729   0.28889   0.80176   0.00000  Uiso   1.00
H859   H     0.92320   0.22361   0.86993   0.00000  Uiso   1.00
H860   H     0.96690   0.09870   0.66517   0.00000  Uiso   1.00
H861   H     0.98316   0.03466   0.71732   0.00000  Uiso   1.00
H862   H     0.93044   0.03404   0.69850   0.00000  Uiso   1.00
H863   H     0.94267   0.05719   0.75223   0.00000  Uiso   1.00
H864   H     0.69973   0.23390   0.83555   0.00000  Uiso   1.00
H865   H     0.68358   0.29836   0.78381   0.00000  Uiso   1.00
H866   H     0.72412   0.27610   0.74884   0.00000  Uiso   1.00
H867   H     0.73626   0.29880   0.80276   0.00000  Uiso   1.00
H868   H     0.87721   0.04265   0.80182   0.00000  Uiso   1.00
H869   H     0.78944   0.29069   0.69820   0.00000  Uiso   1.00
H870   H     0.85264   0.23933   0.53049   0.00000  Uiso   1.00
H871   H     0.86215   0.09722   0.96942   0.00000  Uiso   1.00
H872   H     0.80719   0.23643   0.96946   0.00000  Uiso   1.00
H873   H     0.81671   0.09403   0.53016   0.00000  Uiso   1.00
H874   H     0.85109   0.23959   0.61087   0.00000  Uiso   1.00
N875   N     0.83333   0.28402   0.75000   0.00000  Uiso   1.00
N876   N     0.83333   0.04931   0.75000   0.00000  Uiso   1.00
N877   N     0.71169   0.10832   0.69080   0.00000  Uiso   1.00
N878   N     0.95482   0.22477   0.80962   0.00000  Uiso   1.00
N879   N     0.95763   0.10025   0.69768   0.00000  Uiso   1.00
N880   N     0.70904   0.23260   0.80304   0.00000  Uiso   1.00
O881   O     0.77321   0.20625   0.74999   0.00000  Uiso   1.00
O882   O     0.89345   0.12709   0.75000   0.00000  Uiso   1.00
O883   O     0.89345   0.20625   0.75000   0.00000  Uiso   1.00
O884   O     0.77321   0.12709   0.74999   0.00000  Uiso   1.00
O885   O     0.83333   0.20626   0.68573   0.00000  Uiso   1.00
O886   O     0.83334   0.12707   0.81427   0.00000  Uiso   1.00
O887   O     0.83334   0.20626   0.81427   0.00000  Uiso   1.00
O888   O     0.83333   0.12707   0.68573   0.00000  Uiso   1.00
C889   C     0.08740   0.50052   0.74987   0.00000  Uiso   1.00
C890   C     0.31112   0.53016   0.77890   0.00000  Uiso   1.00
C891   C     0.31255   0.46654   0.72414   0.00000  Uiso   1.00
C892   C     0.02076   0.53322   0.77635   0.00000  Uiso   1.00
C893   C     0.17758   0.54089   0.54761   0.00000  Uiso   1.00
C894   C     0.18291   0.46090   0.95224   0.00000  Uiso   1.00
C895   C     0.15286   0.53939   0.95226   0.00000  Uiso   1.00
C896   C     0.15823   0.45911   0.54742   0.00000  Uiso   1.00
C897   C     0.17692   0.54098   0.59352   0.00000  Uiso   1.00
C898   C     0.18220   0.46071   0.90632   0.00000  Uiso   1.00
C899   C     0.15278   0.53947   0.90635   0.00000  Uiso   1.00
C900   C     0.24592   0.49947   0.75021   0.00000  Uiso   1.00
C901   C     0.15824   0.45899   0.59333   0.00000  Uiso   1.00
C902   C     0.16730   0.50001   0.61666   0.00000  Uiso   1.00
C903   C     0.16719   0.50002   0.88318   0.00000  Uiso   1.00
C904   C     0.16801   0.50003   0.52418   0.00000  Uiso   1.00
C905   C     0.16801   0.50014   0.97559   0.00000  Uiso   1.00
C906   C     0.29062   0.49813   0.75154   0.00000  Uiso   1.00
C907   C     0.04269   0.50176   0.74876   0.00000  Uiso   1.00
C908   C     0.05507   0.46552   0.65015   0.00000  Uiso   1.00
C909   C     0.27707   0.53395   0.84983   0.00000  Uiso   1.00
C910   C     0.28671   0.38763   0.71752   0.00000  Uiso   1.00
C911   C     0.16685   0.50001   0.66493   0.00000  Uiso   1.00
C912   C     0.04668   0.61204   0.78354   0.00000  Uiso   1.00
C913   C     0.16675   0.49999   0.83502   0.00000  Uiso   1.00
C914   C     0.14227   0.35865   0.72124   0.00000  Uiso   1.00
C915   C     0.19106   0.64135   0.77875   0.00000  Uiso   1.00
C916   C     0.19103   0.35765   0.77878   0.00000  Uiso   1.00
C917   C     0.14230   0.64235   0.72123   0.00000  Uiso   1.00
C918   C     0.02216   0.46963   0.72155   0.00000  Uiso   1.00
Cu919  Cu    0.16667   0.54689   0.75000   0.00000  Uiso   1.00
Cu920  Cu    0.16667   0.45311   0.75000   0.00000  Uiso   1.00
H921   H     0.12272   0.37778   0.69823   0.00000  Uiso   1.00
H922   H     0.19392   0.43013   0.88892   0.00000  Uiso   1.00
H923   H     0.14080   0.57005   0.88899   0.00000  Uiso   1.00
H924   H     0.15061   0.42698   0.61052   0.00000  Uiso   1.00
H925   H     0.03437   0.40835   0.68557   0.00000  Uiso   1.00
H926   H     0.02650   0.47527   0.63178   0.00000  Uiso   1.00
H927   H     0.07416   0.44194   0.62911   0.00000  Uiso   1.00
H928   H     0.07287   0.49761   0.65708   0.00000  Uiso   1.00
H929   H     0.29902   0.59120   0.81540   0.00000  Uiso   1.00
H930   H     0.30514   0.52510   0.86942   0.00000  Uiso   1.00
H931   H     0.26034   0.50128   0.84223   0.00000  Uiso   1.00
H932   H     0.21062   0.62222   0.80176   0.00000  Uiso   1.00
H933   H     0.25654   0.55694   0.86993   0.00000  Uiso   1.00
H934   H     0.30023   0.43203   0.66517   0.00000  Uiso   1.00
H935   H     0.31650   0.36799   0.71732   0.00000  Uiso   1.00
H936   H     0.26377   0.36737   0.69850   0.00000  Uiso   1.00
H937   H     0.27600   0.39052   0.75223   0.00000  Uiso   1.00
H938   H     0.03307   0.56723   0.83555   0.00000  Uiso   1.00
H939   H     0.01691   0.63169   0.78381   0.00000  Uiso   1.00
H940   H     0.05745   0.60944   0.74884   0.00000  Uiso   1.00
H941   H     0.06959   0.63213   0.80276   0.00000  Uiso   1.00
H942   H     0.21054   0.37598   0.80182   0.00000  Uiso   1.00
H943   H     0.12277   0.62402   0.69820   0.00000  Uiso   1.00
H944   H     0.18597   0.57266   0.53049   0.00000  Uiso   1.00
H945   H     0.19549   0.43055   0.96942   0.00000  Uiso   1.00
H946   H     0.14052   0.56977   0.96946   0.00000  Uiso   1.00
H947   H     0.15004   0.42736   0.53016   0.00000  Uiso   1.00
H948   H     0.18442   0.57293   0.61087   0.00000  Uiso   1.00
N949   N     0.16667   0.61736   0.75000   0.00000  Uiso   1.00
N950   N     0.16667   0.38264   0.75000   0.00000  Uiso   1.00
N951   N     0.04502   0.44165   0.69080   0.00000  Uiso   1.00
N952   N     0.28816   0.55810   0.80962   0.00000  Uiso   1.00
N953   N     0.29096   0.43359   0.69768   0.00000  Uiso   1.00
N954   N     0.04238   0.56593   0.80304   0.00000  Uiso   1.00
O955   O     0.10655   0.53958   0.74999   0.00000  Uiso   1.00
O956   O     0.22679   0.46042   0.75000   0.00000  Uiso   1.00
O957   O     0.22679   0.53958   0.75000   0.00000  Uiso   1.00
O958   O     0.10655   0.46042   0.74999   0.00000  Uiso   1.00
O959   O     0.16666   0.53959   0.68573   0.00000  Uiso   1.00
O960   O     0.16667   0.46041   0.81427   0.00000  Uiso   1.00
O961   O     0.16667   0.53959   0.81427   0.00000  Uiso   1.00
O962   O     0.16666   0.46041   0.68573   0.00000  Uiso   1.00
C963   C     0.42073   0.50052   0.74987   0.00000  Uiso   1.00
C964   C     0.64445   0.53016   0.77890   0.00000  Uiso   1.00
C965   C     0.64588   0.46654   0.72414   0.00000  Uiso   1.00
C966   C     0.35409   0.53322   0.77635   0.00000  Uiso   1.00
C967   C     0.51091   0.54089   0.54761   0.00000  Uiso   1.00
C968   C     0.51624   0.46090   0.95224   0.00000  Uiso   1.00
C969   C     0.48620   0.53939   0.95226   0.00000  Uiso   1.00
C970   C     0.49156   0.45911   0.54742   0.00000  Uiso   1.00
C971   C     0.51025   0.54098   0.59352   0.00000  Uiso   1.00
C972   C     0.51553   0.46071   0.90632   0.00000  Uiso   1.00
C973   C     0.48611   0.53947   0.90635   0.00000  Uiso   1.00
C974   C     0.57926   0.49947   0.75021   0.00000  Uiso   1.00
C975   C     0.49157   0.45899   0.59333   0.00000  Uiso   1.00
C976   C     0.50063   0.50001   0.61666   0.00000  Uiso   1.00
C977   C     0.50052   0.50002   0.88318   0.00000  Uiso   1.00
C978   C     0.50134   0.50003   0.52418   0.00000  Uiso   1.00
C979   C     0.50134   0.50014   0.97559   0.00000  Uiso   1.00
C980   C     0.62395   0.49813   0.75154   0.00000  Uiso   1.00
C981   C     0.37602   0.50176   0.74876   0.00000  Uiso   1.00
C982   C     0.38840   0.46552   0.65015   0.00000  Uiso   1.00
C983   C     0.61041   0.53395   0.84983   0.00000  Uiso   1.00
C984   C     0.62005   0.38763   0.71752   0.00000  Uiso   1.00
C985   C     0.50018   0.50001   0.66493   0.00000  Uiso   1.00
C986   C     0.38001   0.61204   0.78354   0.00000  Uiso   1.00
C987   C     0.50008   0.49999   0.83502   0.00000  Uiso   1.00
C988   C     0.47561   0.35865   0.72124   0.00000  Uiso   1.00
C989   C     0.52440   0.64135   0.77875   0.00000  Uiso   1.00
C990   C     0.52436   0.35765   0.77878   0.00000  Uiso   1.00
C991   C     0.47563   0.64235   0.72123   0.00000  Uiso   1.00
C992   C     0.35549   0.46963   0.72155   0.00000  Uiso   1.00
Cu993  Cu    0.50000   0.54689   0.75000   0.00000  Uiso   1.00
Cu994  Cu    0.50000   0.45311   0.75000   0.00000  Uiso   1.00
H995   H     0.45606   0.37778   0.69823   0.00000  Uiso   1.00
H996   H     0.52726   0.43013   0.88892   0.00000  Uiso   1.00
H997   H     0.47413   0.57005   0.88899   0.00000  Uiso   1.00
H998   H     0.48394   0.42698   0.61052   0.00000  Uiso   1.00
H999   H     0.36770   0.40835   0.68557   0.00000  Uiso   1.00
H1000  H     0.35983   0.47527   0.63178   0.00000  Uiso   1.00
H1001  H     0.40750   0.44194   0.62911   0.00000  Uiso   1.00
H1002  H     0.40620   0.49761   0.65708   0.00000  Uiso   1.00
H1003  H     0.63236   0.59120   0.81540   0.00000  Uiso   1.00
H1004  H     0.63847   0.52510   0.86942   0.00000  Uiso   1.00
H1005  H     0.59368   0.50128   0.84223   0.00000  Uiso   1.00
H1006  H     0.54395   0.62222   0.80176   0.00000  Uiso   1.00
H1007  H     0.58987   0.55694   0.86993   0.00000  Uiso   1.00
H1008  H     0.63356   0.43203   0.66517   0.00000  Uiso   1.00
H1009  H     0.64983   0.36799   0.71732   0.00000  Uiso   1.00
H1010  H     0.59711   0.36737   0.69850   0.00000  Uiso   1.00
H1011  H     0.60934   0.39052   0.75223   0.00000  Uiso   1.00
H1012  H     0.36640   0.56723   0.83555   0.00000  Uiso   1.00
H1013  H     0.35024   0.63169   0.78381   0.00000  Uiso   1.00
H1014  H     0.39079   0.60944   0.74884   0.00000  Uiso   1.00
H1015  H     0.40293   0.63213   0.80276   0.00000  Uiso   1.00
H1016  H     0.54387   0.37598   0.80182   0.00000  Uiso   1.00
H1017  H     0.45611   0.62402   0.69820   0.00000  Uiso   1.00
H1018  H     0.51931   0.57266   0.53049   0.00000  Uiso   1.00
H1019  H     0.52882   0.43055   0.96942   0.00000  Uiso   1.00
H1020  H     0.47386   0.56977   0.96946   0.00000  Uiso   1.00
H1021  H     0.48337   0.42736   0.53016   0.00000  Uiso   1.00
H1022  H     0.51775   0.57293   0.61087   0.00000  Uiso   1.00
N1023  N     0.50000   0.61736   0.75000   0.00000  Uiso   1.00
N1024  N     0.50000   0.38264   0.75000   0.00000  Uiso   1.00
N1025  N     0.37835   0.44165   0.69080   0.00000  Uiso   1.00
N1026  N     0.62149   0.55810   0.80962   0.00000  Uiso   1.00
N1027  N     0.62429   0.43359   0.69768   0.00000  Uiso   1.00
N1028  N     0.37571   0.56593   0.80304   0.00000  Uiso   1.00
O1029  O     0.43988   0.53958   0.74999   0.00000  Uiso   1.00
O1030  O     0.56012   0.46042   0.75000   0.00000  Uiso   1.00
O1031  O     0.56012   0.53958   0.75000   0.00000  Uiso   1.00
O1032  O     0.43988   0.46042   0.74999   0.00000  Uiso   1.00
O1033  O     0.50000   0.53959   0.68573   0.00000  Uiso   1.00
O1034  O     0.50000   0.46041   0.81427   0.00000  Uiso   1.00
O1035  O     0.50000   0.53959   0.81427   0.00000  Uiso   1.00
O1036  O     0.50000   0.46041   0.68573   0.00000  Uiso   1.00
C1037  C     0.75407   0.50052   0.74987   0.00000  Uiso   1.00
C1038  C     0.97779   0.53016   0.77890   0.00000  Uiso   1.00
C1039  C     0.97921   0.46654   0.72414   0.00000  Uiso   1.00
C1040  C     0.68743   0.53322   0.77635   0.00000  Uiso   1.00
C1041  C     0.84424   0.54089   0.54761   0.00000  Uiso   1.00
C1042  C     0.84957   0.46090   0.95224   0.00000  Uiso   1.00
C1043  C     0.81953   0.53939   0.95226   0.00000  Uiso   1.00
C1044  C     0.82489   0.45911   0.54742   0.00000  Uiso   1.00
C1045  C     0.84359   0.54098   0.59352   0.00000  Uiso   1.00
C1046  C     0.84886   0.46071   0.90632   0.00000  Uiso   1.00
C1047  C     0.81944   0.53947   0.90635   0.00000  Uiso   1.00
C1048  C     0.91259   0.49947   0.75021   0.00000  Uiso   1.00
C1049  C     0.82491   0.45899   0.59333   0.00000  Uiso   1.00
C1050  C     0.83396   0.50001   0.61666   0.00000  Uiso   1.00
C1051  C     0.83386   0.50002   0.88318   0.00000  Uiso   1.00
C1052  C     0.83468   0.50003   0.52418   0.00000  Uiso   1.00
C1053  C     0.83468   0.50014   0.97559   0.00000  Uiso   1.00
C1054  C     0.95728   0.49813   0.75154   0.00000  Uiso   1.00
C1055  C     0.70935   0.50176   0.74876   0.00000  Uiso   1.00
C1056  C     0.72174   0.46552   0.65015   0.00000  Uiso   1.00
C1057  C     0.94374   0.53395   0.84983   0.00000  Uiso   1.00
C1058  C     0.95338   0.38763   0.71752   0.00000  Uiso   1.00
C1059  C     0.83352   0.50001   0.66493   0.00000  Uiso   1.00
C1060  C     0.71335   0.61204   0.78354   0.00000  Uiso   1.00
C1061  C     0.83341   0.49999   0.83502   0.00000  Uiso   1.00
C1062  C     0.80894   0.35865   0.72124   0.00000  Uiso   1.00
C1063  C     0.85773   0.64135   0.77875   0.00000  Uiso   1.00
C1064  C     0.85769   0.35765   0.77878   0.00000  Uiso   1.00
C1065  C     0.80896   0.64235   0.72123   0.00000  Uiso   1.00
C1066  C     0.68882   0.46963   0.72155   0.00000  Uiso   1.00
Cu1067 Cu    0.83333   0.54689   0.75000   0.00000  Uiso   1.00
Cu1068 Cu    0.83333   0.45311   0.75000   0.00000  Uiso   1.00
H1069  H     0.78939   0.37778   0.69823   0.00000  Uiso   1.00
H1070  H     0.86059   0.43013   0.88892   0.00000  Uiso   1.00
H1071  H     0.80747   0.57005   0.88899   0.00000  Uiso   1.00
H1072  H     0.81728   0.42698   0.61052   0.00000  Uiso   1.00
H1073  H     0.70103   0.40835   0.68557   0.00000  Uiso   1.00
H1074  H     0.69317   0.47527   0.63178   0.00000  Uiso   1.00
H1075  H     0.74083   0.44194   0.62911   0.00000  Uiso   1.00
H1076  H     0.73953   0.49761   0.65708   0.00000  Uiso   1.00
H1077  H     0.96569   0.59120   0.81540   0.00000  Uiso   1.00
H1078  H     0.97181   0.52510   0.86942   0.00000  Uiso   1.00
H1079  H     0.92701   0.50128   0.84223   0.00000  Uiso   1.00
H1080  H     0.87729   0.62222   0.80176   0.00000  Uiso   1.00
H1081  H     0.92320   0.55694   0.86993   0.00000  Uiso   1.00
H1082  H     0.96690   0.43203   0.66517   0.00000  Uiso   1.00
H1083  H     0.98316   0.36799   0.71732   0.00000  Uiso   1.00
H1084  H     0.93044   0.36737   0.69850   0.00000  Uiso   1.00
H1085  H     0.94267   0.39052   0.75223   0.00000  Uiso   1.00
H1086  H     0.69973   0.56723   0.83555   0.00000  Uiso   1.00
H1087  H     0.68358   0.63169   0.78381   0.00000  Uiso   1.00
H1088  H     0.72412   0.60944   0.74884   0.00000  Uiso   1.00
H1089  H     0.73626   0.63213   0.80276   0.00000  Uiso   1.00
H1090  H     0.87721   0.37598   0.80182   0.00000  Uiso   1.00
H1091  H     0.78944   0.62402   0.69820   0.00000  Uiso   1.00
H1092  H     0.85264   0.57266   0.53049   0.00000  Uiso   1.00
H1093  H     0.86215   0.43055   0.96942   0.00000  Uiso   1.00
H1094  H     0.80719   0.56977   0.96946   0.00000  Uiso   1.00
H1095  H     0.81671   0.42736   0.53016   0.00000  Uiso   1.00
H1096  H     0.85109   0.57293   0.61087   0.00000  Uiso   1.00
N1097  N     0.83333   0.61736   0.75000   0.00000  Uiso   1.00
N1098  N     0.83333   0.38264   0.75000   0.00000  Uiso   1.00
N1099  N     0.71169   0.44165   0.69080   0.00000  Uiso   1.00
N1100  N     0.95482   0.55810   0.80962   0.00000  Uiso   1.00
N1101  N     0.95763   0.43359   0.69768   0.00000  Uiso   1.00
N1102  N     0.70904   0.56593   0.80304   0.00000  Uiso   1.00
O1103  O     0.77321   0.53958   0.74999   0.00000  Uiso   1.00
O1104  O     0.89345   0.46042   0.75000   0.00000  Uiso   1.00
O1105  O     0.89345   0.53958   0.75000   0.00000  Uiso   1.00
O1106  O     0.77321   0.46042   0.74999   0.00000  Uiso   1.00
O1107  O     0.83333   0.53959   0.68573   0.00000  Uiso   1.00
O1108  O     0.83334   0.46041   0.81427   0.00000  Uiso   1.00
O1109  O     0.83334   0.53959   0.81427   0.00000  Uiso   1.00
O1110  O     0.83333   0.46041   0.68573   0.00000  Uiso   1.00
C1111  C     0.08740   0.83385   0.74987   0.00000  Uiso   1.00
C1112  C     0.31112   0.86349   0.77890   0.00000  Uiso   1.00
C1113  C     0.31255   0.79988   0.72414   0.00000  Uiso   1.00
C1114  C     0.02076   0.86655   0.77635   0.00000  Uiso   1.00
C1115  C     0.17758   0.87423   0.54761   0.00000  Uiso   1.00
C1116  C     0.18291   0.79423   0.95224   0.00000  Uiso   1.00
C1117  C     0.15286   0.87273   0.95226   0.00000  Uiso   1.00
C1118  C     0.15823   0.79245   0.54742   0.00000  Uiso   1.00
C1119  C     0.17692   0.87431   0.59352   0.00000  Uiso   1.00
C1120  C     0.18220   0.79404   0.90632   0.00000  Uiso   1.00
C1121  C     0.15278   0.87281   0.90635   0.00000  Uiso   1.00
C1122  C     0.24592   0.83280   0.75021   0.00000  Uiso   1.00
C1123  C     0.15824   0.79233   0.59333   0.00000  Uiso   1.00
C1124  C     0.16730   0.83334   0.61666   0.00000  Uiso   1.00
C1125  C     0.16719   0.83336   0.88318   0.00000  Uiso   1.00
C1126  C     0.16801   0.83336   0.52418   0.00000  Uiso   1.00
C1127  C     0.16801   0.83347   0.97559   0.00000  Uiso   1.00
C1128  C     0.29062   0.83147   0.75154   0.00000  Uiso   1.00
C1129  C     0.04269   0.83510   0.74876   0.00000  Uiso   1.00
C1130  C     0.05507   0.79886   0.65015   0.00000  Uiso   1.00
C1131  C     0.27707   0.86729   0.84983   0.00000  Uiso   1.00
C1132  C     0.28671   0.72097   0.71752   0.00000  Uiso   1.00
C1133  C     0.16685   0.83334   0.66493   0.00000  Uiso   1.00
C1134  C     0.04668   0.94538   0.78354   0.00000  Uiso   1.00
C1135  C     0.16675   0.83332   0.83502   0.00000  Uiso   1.00
C1136  C     0.14227   0.69199   0.72124   0.00000  Uiso   1.00
C1137  C     0.19106   0.97468   0.77875   0.00000  Uiso   1.00
C1138  C     0.19103   0.69098   0.77878   0.00000  Uiso   1.00
C1139  C     0.14230   0.97569   0.72123   0.00000  Uiso   1.00
C1140  C     0.02216   0.80296   0.72155   0.00000  Uiso   1.00
Cu1141 Cu    0.16667   0.88022   0.75000   0.00000  Uiso   1.00
Cu1142 Cu    0.16667   0.78645   0.75000   0.00000  Uiso   1.00
H1143  H     0.12272   0.71112   0.69823   0.00000  Uiso   1.00
H1144  H     0.19392   0.76347   0.88892   0.00000  Uiso   1.00
H1145  H     0.14080   0.90338   0.88899   0.00000  Uiso   1.00
H1146  H     0.15061   0.76031   0.61052   0.00000  Uiso   1.00
H1147  H     0.03437   0.74169   0.68557   0.00000  Uiso   1.00
H1148  H     0.02650   0.80861   0.63178   0.00000  Uiso   1.00
H1149  H     0.07416   0.77528   0.62911   0.00000  Uiso   1.00
H1150  H     0.07287   0.83094   0.65708   0.00000  Uiso   1.00
H1151  H     0.29902   0.92454   0.81540   0.00000  Uiso   1.00
H1152  H     0.30514   0.85843   0.86942   0.00000  Uiso   1.00
H1153  H     0.26034   0.83461   0.84223   0.00000  Uiso   1.00
H1154  H     0.21062   0.95555   0.80176   0.00000  Uiso   1.00
H1155  H     0.25654   0.89027   0.86993   0.00000  Uiso   1.00
H1156  H     0.30023   0.76536   0.66517   0.00000  Uiso   1.00
H1157  H     0.31650   0.70133   0.71732   0.00000  Uiso   1.00
H1158  H     0.26377   0.70071   0.69850   0.00000  Uiso   1.00
H1159  H     0.27600   0.72385   0.75223   0.00000  Uiso   1.00
H1160  H     0.03307   0.90057   0.83555   0.00000  Uiso   1.00
H1161  H     0.01691   0.96503   0.78381   0.00000  Uiso   1.00
H1162  H     0.05745   0.94277   0.74884   0.00000  Uiso   1.00
H1163  H     0.06959   0.96546   0.80276   0.00000  Uiso   1.00
H1164  H     0.21054   0.70931   0.80182   0.00000  Uiso   1.00
H1165  H     0.12277   0.95736   0.69820   0.00000  Uiso   1.00
H1166  H     0.18597   0.90600   0.53049   0.00000  Uiso   1.00
H1167  H     0.19549   0.76388   0.96942   0.00000  Uiso   1.00
H1168  H     0.14052   0.90310   0.96946   0.00000  Uiso   1.00
H1169  H     0.15004   0.76069   0.53016   0.00000  Uiso   1.00
H1170  H     0.18442   0.90626   0.61087   0.00000  Uiso   1.00
N1171  N     0.16667   0.95069   0.75000   0.00000  Uiso   1.00
N1172  N     0.16667   0.71598   0.75000   0.00000  Uiso   1.00
N1173  N     0.04502   0.77499   0.69080   0.00000  Uiso   1.00
N1174  N     0.28816   0.89143   0.80962   0.00000  Uiso   1.00
N1175  N     0.29096   0.76692   0.69768   0.00000  Uiso   1.00
N1176  N     0.04238   0.89927   0.80304   0.00000  Uiso   1.00
O1177  O     0.10655   0.87291   0.74999   0.00000  Uiso   1.00
O1178  O     0.22679   0.79375   0.75000   0.00000  Uiso   1.00
O1179  O     0.22679   0.87291   0.75000   0.00000  Uiso   1.00
O1180  O     0.10655   0.79375   0.74999   0.00000  Uiso   1.00
O1181  O     0.16666   0.87293   0.68573   0.00000  Uiso   1.00
O1182  O     0.16667   0.79374   0.81427   0.00000  Uiso   1.00
O1183  O     0.16667   0.87293   0.81427   0.00000  Uiso   1.00
O1184  O     0.16666   0.79374   0.68573   0.00000  Uiso   1.00
C1185  C     0.42073   0.83385   0.74987   0.00000  Uiso   1.00
C1186  C     0.64445   0.86349   0.77890   0.00000  Uiso   1.00
C1187  C     0.64588   0.79988   0.72414   0.00000  Uiso   1.00
C1188  C     0.35409   0.86655   0.77635   0.00000  Uiso   1.00
C1189  C     0.51091   0.87423   0.54761   0.00000  Uiso   1.00
C1190  C     0.51624   0.79423   0.95224   0.00000  Uiso   1.00
C1191  C     0.48620   0.87273   0.95226   0.00000  Uiso   1.00
C1192  C     0.49156   0.79245   0.54742   0.00000  Uiso   1.00
C1193  C     0.51025   0.87431   0.59352   0.00000  Uiso   1.00
C1194  C     0.51553   0.79404   0.90632   0.00000  Uiso   1.00
C1195  C     0.48611   0.87281   0.90635   0.00000  Uiso   1.00
C1196  C     0.57926   0.83280   0.75021   0.00000  Uiso   1.00
C1197  C     0.49157   0.79233   0.59333   0.00000  Uiso   1.00
C1198  C     0.50063   0.83334   0.61666   0.00000  Uiso   1.00
C1199  C     0.50052   0.83336   0.88318   0.00000  Uiso   1.00
C1200  C     0.50134   0.83336   0.52418   0.00000  Uiso   1.00
C1201  C     0.50134   0.83347   0.97559   0.00000  Uiso   1.00
C1202  C     0.62395   0.83147   0.75154   0.00000  Uiso   1.00
C1203  C     0.37602   0.83510   0.74876   0.00000  Uiso   1.00
C1204  C     0.38840   0.79886   0.65015   0.00000  Uiso   1.00
C1205  C     0.61041   0.86729   0.84983   0.00000  Uiso   1.00
C1206  C     0.62005   0.72097   0.71752   0.00000  Uiso   1.00
C1207  C     0.50018   0.83334   0.66493   0.00000  Uiso   1.00
C1208  C     0.38001   0.94538   0.78354   0.00000  Uiso   1.00
C1209  C     0.50008   0.83332   0.83502   0.00000  Uiso   1.00
C1210  C     0.47561   0.69199   0.72124   0.00000  Uiso   1.00
C1211  C     0.52440   0.97468   0.77875   0.00000  Uiso   1.00
C1212  C     0.52436   0.69098   0.77878   0.00000  Uiso   1.00
C1213  C     0.47563   0.97569   0.72123   0.00000  Uiso   1.00
C1214  C     0.35549   0.80296   0.72155   0.00000  Uiso   1.00
Cu1215 Cu    0.50000   0.88022   0.75000   0.00000  Uiso   1.00
Cu1216 Cu    0.50000   0.78645   0.75000   0.00000  Uiso   1.00
H1217  H     0.45606   0.71112   0.69823   0.00000  Uiso   1.00
H1218  H     0.52726   0.76347   0.88892   0.00000  Uiso   1.00
H1219  H     0.47413   0.90338   0.88899   0.00000  Uiso   1.00
H1220  H     0.48394   0.76031   0.61052   0.00000  Uiso   1.00
H1221  H     0.36770   0.74169   0.68557   0.00000  Uiso   1.00
H1222  H     0.35983   0.80861   0.63178   0.00000  Uiso   1.00
H1223  H     0.40750   0.77528   0.62911   0.00000  Uiso   1.00
H1224  H     0.40620   0.83094   0.65708   0.00000  Uiso   1.00
H1225  H     0.63236   0.92454   0.81540   0.00000  Uiso   1.00
H1226  H     0.63847   0.85843   0.86942   0.00000  Uiso   1.00
H1227  H     0.59368   0.83461   0.84223   0.00000  Uiso   1.00
H1228  H     0.54395   0.95555   0.80176   0.00000  Uiso   1.00
H1229  H     0.58987   0.89027   0.86993   0.00000  Uiso   1.00
H1230  H     0.63356   0.76536   0.66517   0.00000  Uiso   1.00
H1231  H     0.64983   0.70133   0.71732   0.00000  Uiso   1.00
H1232  H     0.59711   0.70071   0.69850   0.00000  Uiso   1.00
H1233  H     0.60934   0.72385   0.75223   0.00000  Uiso   1.00
H1234  H     0.36640   0.90057   0.83555   0.00000  Uiso   1.00
H1235  H     0.35024   0.96503   0.78381   0.00000  Uiso   1.00
H1236  H     0.39079   0.94277   0.74884   0.00000  Uiso   1.00
H1237  H     0.40293   0.96546   0.80276   0.00000  Uiso   1.00
H1238  H     0.54387   0.70931   0.80182   0.00000  Uiso   1.00
H1239  H     0.45611   0.95736   0.69820   0.00000  Uiso   1.00
H1240  H     0.51931   0.90600   0.53049   0.00000  Uiso   1.00
H1241  H     0.52882   0.76388   0.96942   0.00000  Uiso   1.00
H1242  H     0.47386   0.90310   0.96946   0.00000  Uiso   1.00
H1243  H     0.48337   0.76069   0.53016   0.00000  Uiso   1.00
H1244  H     0.51775   0.90626   0.61087   0.00000  Uiso   1.00
N1245  N     0.50000   0.95069   0.75000   0.00000  Uiso   1.00
N1246  N     0.50000   0.71598   0.75000   0.00000  Uiso   1.00
N1247  N     0.37835   0.77499   0.69080   0.00000  Uiso   1.00
N1248  N     0.62149   0.89143   0.80962   0.00000  Uiso   1.00
N1249  N     0.62429   0.76692   0.69768   0.00000  Uiso   1.00
N1250  N     0.37571   0.89927   0.80304   0.00000  Uiso   1.00
O1251  O     0.43988   0.87291   0.74999   0.00000  Uiso   1.00
O1252  O     0.56012   0.79375   0.75000   0.00000  Uiso   1.00
O1253  O     0.56012   0.87291   0.75000   0.00000  Uiso   1.00
O1254  O     0.43988   0.79375   0.74999   0.00000  Uiso   1.00
O1255  O     0.50000   0.87293   0.68573   0.00000  Uiso   1.00
O1256  O     0.50000   0.79374   0.81427   0.00000  Uiso   1.00
O1257  O     0.50000   0.87293   0.81427   0.00000  Uiso   1.00
O1258  O     0.50000   0.79374   0.68573   0.00000  Uiso   1.00
C1259  C     0.75407   0.83385   0.74987   0.00000  Uiso   1.00
C1260  C     0.97779   0.86349   0.77890   0.00000  Uiso   1.00
C1261  C     0.97921   0.79988   0.72414   0.00000  Uiso   1.00
C1262  C     0.68743   0.86655   0.77635   0.00000  Uiso   1.00
C1263  C     0.84424   0.87423   0.54761   0.00000  Uiso   1.00
C1264  C     0.84957   0.79423   0.95224   0.00000  Uiso   1.00
C1265  C     0.81953   0.87273   0.95226   0.00000  Uiso   1.00
C1266  C     0.82489   0.79245   0.54742   0.00000  Uiso   1.00
C1267  C     0.84359   0.87431   0.59352   0.00000  Uiso   1.00
C1268  C     0.84886   0.79404   0.90632   0.00000  Uiso   1.00
C1269  C     0.81944   0.87281   0.90635   0.00000  Uiso   1.00
C1270  C     0.91259   0.83280   0.75021   0.00000  Uiso   1.00
C1271  C     0.82491   0.79233   0.59333   0.00000  Uiso   1.00
C1272  C     0.83396   0.83334   0.61666   0.00000  Uiso   1.00
C1273  C     0.83386   0.83336   0.88318   0.00000  Uiso   1.00
C1274  C     0.83468   0.83336   0.52418   0.00000  Uiso   1.00
C1275  C     0.83468   0.83347   0.97559   0.00000  Uiso   1.00
C1276  C     0.95728   0.83147   0.75154   0.00000  Uiso   1.00
C1277  C     0.70935   0.83510   0.74876   0.00000  Uiso   1.00
C1278  C     0.72174   0.79886   0.65015   0.00000  Uiso   1.00
C1279  C     0.94374   0.86729   0.84983   0.00000  Uiso   1.00
C1280  C     0.95338   0.72097   0.71752   0.00000  Uiso   1.00
C1281  C     0.83352   0.83334   0.66493   0.00000  Uiso   1.00
C1282  C     0.71335   0.94538   0.78354   0.00000  Uiso   1.00
C1283  C     0.83341   0.83332   0.83502   0.00000  Uiso   1.00
C1284  C     0.80894   0.69199   0.72124   0.00000  Uiso   1.00
C1285  C     0.85773   0.97468   0.77875   0.00000  Uiso   1.00
C1286  C     0.85769   0.69098   0.77878   0.00000  Uiso   1.00
C1287  C     0.80896   0.97569   0.72123   0.00000  Uiso   1.00
C1288  C     0.68882   0.80296   0.72155   0.00000  Uiso   1.00
Cu1289 Cu    0.83333   0.88022   0.75000   0.00000  Uiso   1.00
Cu1290 Cu    0.83333   0.78645   0.75000   0.00000  Uiso   1.00
H1291  H     0.78939   0.71112   0.69823   0.00000  Uiso   1.00
H1292  H     0.86059   0.76347   0.88892   0.00000  Uiso   1.00
H1293  H     0.80747   0.90338   0.88899   0.00000  Uiso   1.00
H1294  H     0.81728   0.76031   0.61052   0.00000  Uiso   1.00
H1295  H     0.70103   0.74169   0.68557   0.00000  Uiso   1.00
H1296  H     0.69317   0.80861   0.63178   0.00000  Uiso   1.00
H1297  H     0.74083   0.77528   0.62911   0.00000  Uiso   1.00
H1298  H     0.73953   0.83094   0.65708   0.00000  Uiso   1.00
H1299  H     0.96569   0.92454   0.81540   0.00000  Uiso   1.00
H1300  H     0.97181   0.85843   0.86942   0.00000  Uiso   1.00
H1301  H     0.92701   0.83461   0.84223   0.00000  Uiso   1.00
H1302  H     0.87729   0.95555   0.80176   0.00000  Uiso   1.00
H1303  H     0.92320   0.89027   0.86993   0.00000  Uiso   1.00
H1304  H     0.96690   0.76536   0.66517   0.00000  Uiso   1.00
H1305  H     0.98316   0.70133   0.71732   0.00000  Uiso   1.00
H1306  H     0.93044   0.70071   0.69850   0.00000  Uiso   1.00
H1307  H     0.94267   0.72385   0.75223   0.00000  Uiso   1.00
H1308  H     0.69973   0.90057   0.83555   0.00000  Uiso   1.00
H1309  H     0.68358   0.96503   0.78381   0.00000  Uiso   1.00
H1310  H     0.72412   0.94277   0.74884   0.00000  Uiso   1.00
H1311  H     0.73626   0.96546   0.80276   0.00000  Uiso   1.00
H1312  H     0.87721   0.70931   0.80182   0.00000  Uiso   1.00
H1313  H     0.78944   0.95736   0.69820   0.00000  Uiso   1.00
H1314  H     0.85264   0.90600   0.53049   0.00000  Uiso   1.00
H1315  H     0.86215   0.76388   0.96942   0.00000  Uiso   1.00
H1316  H     0.80719   0.90310   0.96946   0.00000  Uiso   1.00
H1317  H     0.81671   0.76069   0.53016   0.00000  Uiso   1.00
H1318  H     0.85109   0.90626   0.61087   0.00000  Uiso   1.00
N1319  N     0.83333   0.95069   0.75000   0.00000  Uiso   1.00
N1320  N     0.83333   0.71598   0.75000   0.00000  Uiso   1.00
N1321  N     0.71169   0.77499   0.69080   0.00000  Uiso   1.00
N1322  N     0.95482   0.89143   0.80962   0.00000  Uiso   1.00
N1323  N     0.95763   0.76692   0.69768   0.00000  Uiso   1.00
N1324  N     0.70904   0.89927   0.80304   0.00000  Uiso   1.00
O1325  O     0.77321   0.87291   0.74999   0.00000  Uiso   1.00
O1326  O     0.89345   0.79375   0.75000   0.00000  Uiso   1.00
O1327  O     0.89345   0.87291   0.75000   0.00000  Uiso   1.00
O1328  O     0.77321   0.79375   0.74999   0.00000  Uiso   1.00
O1329  O     0.83333   0.87293   0.68573   0.00000  Uiso   1.00
O1330  O     0.83334   0.79374   0.81427   0.00000  Uiso   1.00
O1331  O     0.83334   0.87293   0.81427   0.00000  Uiso   1.00
O1332  O     0.83333   0.79374   0.68573   0.00000  Uiso   1.00
loop_
_geom_bond_atom_site_label_1
_geom_bond_atom_site_label_2
_geom_bond_distance
_geom_bond_site_symmetry_2
_ccdc_geom_bond_type
C1     O70     1.292   .     A
C1     C19     1.452   .     S
C1     O67     1.285   .     A
C2     C18     1.408   .     A
C2     N64     1.429   .     S
C2     C78     1.402   .     S
C3     N65     1.427   .     S
C3     C18     1.411   .     A
C3     C104    1.401   .     S
C4     N66     1.427   .     S
C4     C19     1.412   .     A
C4     C150    1.402   1_455 S
C5     C9      1.390   .     A
C5     H56     1.083   .     S
C5     C16     1.404   .     A
C6     C10     1.390   .     A
C6     H57     1.083   .     S
C6     C17     1.404   .     A
C7     H58     1.083   .     S
C7     C11     1.390   .     A
C7     C17     1.404   .     A
C8     C13     1.390   .     A
C8     H59     1.083   .     S
C8     C16     1.404   .     A
C9     C14     1.402   .     A
C9     H60     1.083   .     S
C10    H34     1.083   .     S
C10    C15     1.401   .     A
C11    C15     1.401   .     A
C11    H35     1.083   .     S
C12    O68     1.285   .     A
C12    O69     1.292   .     A
C12    C18     1.451   .     S
C13    C14     1.402   .     A
C13    H36     1.083   .     S
C14    C23     1.461   .     S
C15    C25     1.458   .     S
C16    C683    1.471   1_554 S
C17    C682    1.471   .     S
C19    C30     1.408   .     A
C20    H38     1.111   .     S
C20    H40     1.111   .     S
C20    H39     1.110   .     S
C20    N63     1.447   .     S
C21    H42     1.111   .     S
C21    N64     1.447   .     S
C21    H43     1.111   .     S
C21    H45     1.110   .     S
C22    H48     1.110   .     S
C22    N65     1.450   .     S
C22    H47     1.109   .     S
C22    H49     1.110   .     S
C23    O74     1.293   .     A
C23    O71     1.293   .     A
C24    N66     1.450   .     S
C24    H51     1.109   .     S
C24    H52     1.110   .     S
C24    H53     1.110   .     S
C25    O72     1.293   .     A
C25    O73     1.292   .     A
C26    N62     1.367   .     A
C26    H33     1.082   .     S
C26    C473    1.416   1_545 S
C27    N61     1.367   .     A
C27    H44     1.082   .     S
C27    C250    1.416   .     S
C28    H54     1.082   .     S
C28    N62     1.367   .     A
C28    C471    1.416   1_545 S
C29    N61     1.367   .     A
C29    H55     1.082   .     S
C29    C248    1.416   .     S
C30    N63     1.428   .     S
C30    C151    1.401   1_455 S
Cu31   N61     2.010   .     S
Cu31   O71     1.957   .     S
Cu31   O67     1.967   .     S
Cu31   O73     1.956   .     S
Cu31   O69     1.960   .     S
Cu31   Cu32    2.675   .     S
Cu32   O68     1.967   .     S
Cu32   N62     2.010   .     S
Cu32   O72     1.957   .     S
Cu32   O74     1.956   .     S
Cu32   O70     1.960   .     S
H37    N63     1.029   .     S
H41    N64     1.029   .     S
H46    N65     1.031   .     S
H50    N66     1.031   .     S
C75    O144    1.292   .     A
C75    C93     1.452   .     S
C75    O141    1.285   .     A
C76    C92     1.408   .     A
C76    N138    1.429   .     S
C76    C152    1.402   .     S
C77    N139    1.427   .     S
C77    C92     1.411   .     A
C77    C178    1.401   .     S
C78    N140    1.427   .     S
C78    C93     1.412   .     A
C79    C83     1.390   .     A
C79    H130    1.083   .     S
C79    C90     1.404   .     A
C80    C84     1.390   .     A
C80    H131    1.083   .     S
C80    C91     1.404   .     A
C81    H132    1.083   .     S
C81    C85     1.390   .     A
C81    C91     1.404   .     A
C82    C87     1.390   .     A
C82    H133    1.083   .     S
C82    C90     1.404   .     A
C83    C88     1.402   .     A
C83    H134    1.083   .     S
C84    H108    1.083   .     S
C84    C89     1.401   .     A
C85    C89     1.401   .     A
C85    H109    1.083   .     S
C86    O142    1.285   .     A
C86    O143    1.292   .     A
C86    C92     1.451   .     S
C87    C88     1.402   .     A
C87    H110    1.083   .     S
C88    C97     1.461   .     S
C89    C99     1.458   .     S
C90    C757    1.471   1_554 S
C91    C756    1.471   .     S
C93    C104    1.408   .     A
C94    H112    1.111   .     S
C94    H114    1.111   .     S
C94    H113    1.110   .     S
C94    N137    1.447   .     S
C95    H116    1.111   .     S
C95    N138    1.447   .     S
C95    H117    1.111   .     S
C95    H119    1.110   .     S
C96    H122    1.110   .     S
C96    N139    1.450   .     S
C96    H121    1.109   .     S
C96    H123    1.110   .     S
C97    O148    1.293   .     A
C97    O145    1.293   .     A
C98    N140    1.450   .     S
C98    H125    1.109   .     S
C98    H126    1.110   .     S
C98    H127    1.110   .     S
C99    O146    1.293   .     A
C99    O147    1.292   .     A
C100   N136    1.367   .     A
C100   H107    1.082   .     S
C100   C547    1.416   1_545 S
C101   N135    1.367   .     A
C101   H118    1.082   .     S
C101   C324    1.416   .     S
C102   H128    1.082   .     S
C102   N136    1.367   .     A
C102   C545    1.416   1_545 S
C103   N135    1.367   .     A
C103   H129    1.082   .     S
C103   C322    1.416   .     S
C104   N137    1.428   .     S
Cu105  N135    2.010   .     S
Cu105  O145    1.957   .     S
Cu105  O141    1.967   .     S
Cu105  O147    1.956   .     S
Cu105  O143    1.960   .     S
Cu105  Cu106   2.675   .     S
Cu106  O142    1.967   .     S
Cu106  N136    2.010   .     S
Cu106  O146    1.957   .     S
Cu106  O148    1.956   .     S
Cu106  O144    1.960   .     S
H111   N137    1.029   .     S
H115   N138    1.029   .     S
H120   N139    1.031   .     S
H124   N140    1.031   .     S
C149   O218    1.292   .     A
C149   C167    1.452   .     S
C149   O215    1.285   .     A
C150   C166    1.408   .     A
C150   N212    1.429   .     S
C150   C4      1.402   1_655 S
C151   N213    1.427   .     S
C151   C166    1.411   .     A
C151   C30     1.401   1_655 S
C152   N214    1.427   .     S
C152   C167    1.412   .     A
C153   C157    1.390   .     A
C153   H204    1.083   .     S
C153   C164    1.404   .     A
C154   C158    1.390   .     A
C154   H205    1.083   .     S
C154   C165    1.404   .     A
C155   H206    1.083   .     S
C155   C159    1.390   .     A
C155   C165    1.404   .     A
C156   C161    1.390   .     A
C156   H207    1.083   .     S
C156   C164    1.404   .     A
C157   C162    1.402   .     A
C157   H208    1.083   .     S
C158   H182    1.083   .     S
C158   C163    1.401   .     A
C159   C163    1.401   .     A
C159   H183    1.083   .     S
C160   O216    1.285   .     A
C160   O217    1.292   .     A
C160   C166    1.451   .     S
C161   C162    1.402   .     A
C161   H184    1.083   .     S
C162   C171    1.461   .     S
C163   C173    1.458   .     S
C164   C831    1.471   1_554 S
C165   C830    1.471   .     S
C167   C178    1.408   .     A
C168   H186    1.111   .     S
C168   H188    1.111   .     S
C168   H187    1.110   .     S
C168   N211    1.447   .     S
C169   H190    1.111   .     S
C169   N212    1.447   .     S
C169   H191    1.111   .     S
C169   H193    1.110   .     S
C170   H196    1.110   .     S
C170   N213    1.450   .     S
C170   H195    1.109   .     S
C170   H197    1.110   .     S
C171   O222    1.293   .     A
C171   O219    1.293   .     A
C172   N214    1.450   .     S
C172   H199    1.109   .     S
C172   H200    1.110   .     S
C172   H201    1.110   .     S
C173   O220    1.293   .     A
C173   O221    1.292   .     A
C174   N210    1.367   .     A
C174   H181    1.082   .     S
C174   C621    1.416   1_545 S
C175   N209    1.367   .     A
C175   H192    1.082   .     S
C175   C398    1.416   .     S
C176   H202    1.082   .     S
C176   N210    1.367   .     A
C176   C619    1.416   1_545 S
C177   N209    1.367   .     A
C177   H203    1.082   .     S
C177   C396    1.416   .     S
C178   N211    1.428   .     S
Cu179  N209    2.010   .     S
Cu179  O219    1.957   .     S
Cu179  O215    1.967   .     S
Cu179  O221    1.956   .     S
Cu179  O217    1.960   .     S
Cu179  Cu180   2.675   .     S
Cu180  O216    1.967   .     S
Cu180  N210    2.010   .     S
Cu180  O220    1.957   .     S
Cu180  O222    1.956   .     S
Cu180  O218    1.960   .     S
H185   N211    1.029   .     S
H189   N212    1.029   .     S
H194   N213    1.031   .     S
H198   N214    1.031   .     S
C223   O292    1.292   .     A
C223   C241    1.452   .     S
C223   O289    1.285   .     A
C224   C240    1.408   .     A
C224   N286    1.429   .     S
C224   C300    1.402   .     S
C225   N287    1.427   .     S
C225   C240    1.411   .     A
C225   C326    1.401   .     S
C226   N288    1.427   .     S
C226   C241    1.412   .     A
C226   C372    1.402   1_455 S
C227   C231    1.390   .     A
C227   H278    1.083   .     S
C227   C238    1.404   .     A
C228   C232    1.390   .     A
C228   H279    1.083   .     S
C228   C239    1.404   .     A
C229   H280    1.083   .     S
C229   C233    1.390   .     A
C229   C239    1.404   .     A
C230   C235    1.390   .     A
C230   H281    1.083   .     S
C230   C238    1.404   .     A
C231   C236    1.402   .     A
C231   H282    1.083   .     S
C232   H256    1.083   .     S
C232   C237    1.401   .     A
C233   C237    1.401   .     A
C233   H257    1.083   .     S
C234   O290    1.285   .     A
C234   O291    1.292   .     A
C234   C240    1.451   .     S
C235   C236    1.402   .     A
C235   H258    1.083   .     S
C236   C245    1.461   .     S
C237   C247    1.458   .     S
C238   C905    1.471   1_554 S
C239   C904    1.471   .     S
C241   C252    1.408   .     A
C242   H260    1.111   .     S
C242   H262    1.111   .     S
C242   H261    1.110   .     S
C242   N285    1.447   .     S
C243   H264    1.111   .     S
C243   N286    1.447   .     S
C243   H265    1.111   .     S
C243   H267    1.110   .     S
C244   H270    1.110   .     S
C244   N287    1.450   .     S
C244   H269    1.109   .     S
C244   H271    1.110   .     S
C245   O296    1.293   .     A
C245   O293    1.293   .     A
C246   N288    1.450   .     S
C246   H273    1.109   .     S
C246   H274    1.110   .     S
C246   H275    1.110   .     S
C247   O294    1.293   .     A
C247   O295    1.292   .     A
C248   N284    1.367   .     A
C248   H255    1.082   .     S
C249   N283    1.367   .     A
C249   H266    1.082   .     S
C249   C472    1.416   .     S
C250   H276    1.082   .     S
C250   N284    1.367   .     A
C251   N283    1.367   .     A
C251   H277    1.082   .     S
C251   C470    1.416   .     S
C252   N285    1.428   .     S
C252   C373    1.401   1_455 S
Cu253  N283    2.010   .     S
Cu253  O293    1.957   .     S
Cu253  O289    1.967   .     S
Cu253  O295    1.956   .     S
Cu253  O291    1.960   .     S
Cu253  Cu254   2.675   .     S
Cu254  O290    1.967   .     S
Cu254  N284    2.010   .     S
Cu254  O294    1.957   .     S
Cu254  O296    1.956   .     S
Cu254  O292    1.960   .     S
H259   N285    1.029   .     S
H263   N286    1.029   .     S
H268   N287    1.031   .     S
H272   N288    1.031   .     S
C297   O366    1.292   .     A
C297   C315    1.452   .     S
C297   O363    1.285   .     A
C298   C314    1.408   .     A
C298   N360    1.429   .     S
C298   C374    1.402   .     S
C299   N361    1.427   .     S
C299   C314    1.411   .     A
C299   C400    1.401   .     S
C300   N362    1.427   .     S
C300   C315    1.412   .     A
C301   C305    1.390   .     A
C301   H352    1.083   .     S
C301   C312    1.404   .     A
C302   C306    1.390   .     A
C302   H353    1.083   .     S
C302   C313    1.404   .     A
C303   H354    1.083   .     S
C303   C307    1.390   .     A
C303   C313    1.404   .     A
C304   C309    1.390   .     A
C304   H355    1.083   .     S
C304   C312    1.404   .     A
C305   C310    1.402   .     A
C305   H356    1.083   .     S
C306   H330    1.083   .     S
C306   C311    1.401   .     A
C307   C311    1.401   .     A
C307   H331    1.083   .     S
C308   O364    1.285   .     A
C308   O365    1.292   .     A
C308   C314    1.451   .     S
C309   C310    1.402   .     A
C309   H332    1.083   .     S
C310   C319    1.461   .     S
C311   C321    1.458   .     S
C312   C979    1.471   1_554 S
C313   C978    1.471   .     S
C315   C326    1.408   .     A
C316   H334    1.111   .     S
C316   H336    1.111   .     S
C316   H335    1.110   .     S
C316   N359    1.447   .     S
C317   H338    1.111   .     S
C317   N360    1.447   .     S
C317   H339    1.111   .     S
C317   H341    1.110   .     S
C318   H344    1.110   .     S
C318   N361    1.450   .     S
C318   H343    1.109   .     S
C318   H345    1.110   .     S
C319   O370    1.293   .     A
C319   O367    1.293   .     A
C320   N362    1.450   .     S
C320   H347    1.109   .     S
C320   H348    1.110   .     S
C320   H349    1.110   .     S
C321   O368    1.293   .     A
C321   O369    1.292   .     A
C322   N358    1.367   .     A
C322   H329    1.082   .     S
C323   N357    1.367   .     A
C323   H340    1.082   .     S
C323   C546    1.416   .     S
C324   H350    1.082   .     S
C324   N358    1.367   .     A
C325   N357    1.367   .     A
C325   H351    1.082   .     S
C325   C544    1.416   .     S
C326   N359    1.428   .     S
Cu327  N357    2.010   .     S
Cu327  O367    1.957   .     S
Cu327  O363    1.967   .     S
Cu327  O369    1.956   .     S
Cu327  O365    1.960   .     S
Cu327  Cu328   2.675   .     S
Cu328  O364    1.967   .     S
Cu328  N358    2.010   .     S
Cu328  O368    1.957   .     S
Cu328  O370    1.956   .     S
Cu328  O366    1.960   .     S
H333   N359    1.029   .     S
H337   N360    1.029   .     S
H342   N361    1.031   .     S
H346   N362    1.031   .     S
C371   O440    1.292   .     A
C371   C389    1.452   .     S
C371   O437    1.285   .     A
C372   C388    1.408   .     A
C372   N434    1.429   .     S
C372   C226    1.402   1_655 S
C373   N435    1.427   .     S
C373   C388    1.411   .     A
C373   C252    1.401   1_655 S
C374   N436    1.427   .     S
C374   C389    1.412   .     A
C375   C379    1.390   .     A
C375   H426    1.083   .     S
C375   C386    1.404   .     A
C376   C380    1.390   .     A
C376   H427    1.083   .     S
C376   C387    1.404   .     A
C377   H428    1.083   .     S
C377   C381    1.390   .     A
C377   C387    1.404   .     A
C378   C383    1.390   .     A
C378   H429    1.083   .     S
C378   C386    1.404   .     A
C379   C384    1.402   .     A
C379   H430    1.083   .     S
C380   H404    1.083   .     S
C380   C385    1.401   .     A
C381   C385    1.401   .     A
C381   H405    1.083   .     S
C382   O438    1.285   .     A
C382   O439    1.292   .     A
C382   C388    1.451   .     S
C383   C384    1.402   .     A
C383   H406    1.083   .     S
C384   C393    1.461   .     S
C385   C395    1.458   .     S
C386   C1053   1.471   1_554 S
C387   C1052   1.471   .     S
C389   C400    1.408   .     A
C390   H408    1.111   .     S
C390   H410    1.111   .     S
C390   H409    1.110   .     S
C390   N433    1.447   .     S
C391   H412    1.111   .     S
C391   N434    1.447   .     S
C391   H413    1.111   .     S
C391   H415    1.110   .     S
C392   H418    1.110   .     S
C392   N435    1.450   .     S
C392   H417    1.109   .     S
C392   H419    1.110   .     S
C393   O444    1.293   .     A
C393   O441    1.293   .     A
C394   N436    1.450   .     S
C394   H421    1.109   .     S
C394   H422    1.110   .     S
C394   H423    1.110   .     S
C395   O442    1.293   .     A
C395   O443    1.292   .     A
C396   N432    1.367   .     A
C396   H403    1.082   .     S
C397   N431    1.367   .     A
C397   H414    1.082   .     S
C397   C620    1.416   .     S
C398   H424    1.082   .     S
C398   N432    1.367   .     A
C399   N431    1.367   .     A
C399   H425    1.082   .     S
C399   C618    1.416   .     S
C400   N433    1.428   .     S
Cu401  N431    2.010   .     S
Cu401  O441    1.957   .     S
Cu401  O437    1.967   .     S
Cu401  O443    1.956   .     S
Cu401  O439    1.960   .     S
Cu401  Cu402   2.675   .     S
Cu402  O438    1.967   .     S
Cu402  N432    2.010   .     S
Cu402  O442    1.957   .     S
Cu402  O444    1.956   .     S
Cu402  O440    1.960   .     S
H407   N433    1.029   .     S
H411   N434    1.029   .     S
H416   N435    1.031   .     S
H420   N436    1.031   .     S
C445   O514    1.292   .     A
C445   C463    1.452   .     S
C445   O511    1.285   .     A
C446   C462    1.408   .     A
C446   N508    1.429   .     S
C446   C522    1.402   .     S
C447   N509    1.427   .     S
C447   C462    1.411   .     A
C447   C548    1.401   .     S
C448   N510    1.427   .     S
C448   C463    1.412   .     A
C448   C594    1.402   1_455 S
C449   C453    1.390   .     A
C449   H500    1.083   .     S
C449   C460    1.404   .     A
C450   C454    1.390   .     A
C450   H501    1.083   .     S
C450   C461    1.404   .     A
C451   H502    1.083   .     S
C451   C455    1.390   .     A
C451   C461    1.404   .     A
C452   C457    1.390   .     A
C452   H503    1.083   .     S
C452   C460    1.404   .     A
C453   C458    1.402   .     A
C453   H504    1.083   .     S
C454   H478    1.083   .     S
C454   C459    1.401   .     A
C455   C459    1.401   .     A
C455   H479    1.083   .     S
C456   O512    1.285   .     A
C456   O513    1.292   .     A
C456   C462    1.451   .     S
C457   C458    1.402   .     A
C457   H480    1.083   .     S
C458   C467    1.461   .     S
C459   C469    1.458   .     S
C460   C1127   1.471   1_554 S
C461   C1126   1.471   .     S
C463   C474    1.408   .     A
C464   H482    1.111   .     S
C464   H484    1.111   .     S
C464   H483    1.110   .     S
C464   N507    1.447   .     S
C465   H486    1.111   .     S
C465   N508    1.447   .     S
C465   H487    1.111   .     S
C465   H489    1.110   .     S
C466   H492    1.110   .     S
C466   N509    1.450   .     S
C466   H491    1.109   .     S
C466   H493    1.110   .     S
C467   O518    1.293   .     A
C467   O515    1.293   .     A
C468   N510    1.450   .     S
C468   H495    1.109   .     S
C468   H496    1.110   .     S
C468   H497    1.110   .     S
C469   O516    1.293   .     A
C469   O517    1.292   .     A
C470   N506    1.367   .     A
C470   H477    1.082   .     S
C471   N505    1.367   .     A
C471   H488    1.082   .     S
C471   C28     1.416   1_565 S
C472   H498    1.082   .     S
C472   N506    1.367   .     A
C473   N505    1.367   .     A
C473   H499    1.082   .     S
C473   C26     1.416   1_565 S
C474   N507    1.428   .     S
C474   C595    1.401   1_455 S
Cu475  N505    2.010   .     S
Cu475  O515    1.957   .     S
Cu475  O511    1.967   .     S
Cu475  O517    1.956   .     S
Cu475  O513    1.960   .     S
Cu475  Cu476   2.675   .     S
Cu476  O512    1.967   .     S
Cu476  N506    2.010   .     S
Cu476  O516    1.957   .     S
Cu476  O518    1.956   .     S
Cu476  O514    1.960   .     S
H481   N507    1.029   .     S
H485   N508    1.029   .     S
H490   N509    1.031   .     S
H494   N510    1.031   .     S
C519   O588    1.292   .     A
C519   C537    1.452   .     S
C519   O585    1.285   .     A
C520   C536    1.408   .     A
C520   N582    1.429   .     S
C520   C596    1.402   .     S
C521   N583    1.427   .     S
C521   C536    1.411   .     A
C521   C622    1.401   .     S
C522   N584    1.427   .     S
C522   C537    1.412   .     A
C523   C527    1.390   .     A
C523   H574    1.083   .     S
C523   C534    1.404   .     A
C524   C528    1.390   .     A
C524   H575    1.083   .     S
C524   C535    1.404   .     A
C525   H576    1.083   .     S
C525   C529    1.390   .     A
C525   C535    1.404   .     A
C526   C531    1.390   .     A
C526   H577    1.083   .     S
C526   C534    1.404   .     A
C527   C532    1.402   .     A
C527   H578    1.083   .     S
C528   H552    1.083   .     S
C528   C533    1.401   .     A
C529   C533    1.401   .     A
C529   H553    1.083   .     S
C530   O586    1.285   .     A
C530   O587    1.292   .     A
C530   C536    1.451   .     S
C531   C532    1.402   .     A
C531   H554    1.083   .     S
C532   C541    1.461   .     S
C533   C543    1.458   .     S
C534   C1201   1.471   1_554 S
C535   C1200   1.471   .     S
C537   C548    1.408   .     A
C538   H556    1.111   .     S
C538   H558    1.111   .     S
C538   H557    1.110   .     S
C538   N581    1.447   .     S
C539   H560    1.111   .     S
C539   N582    1.447   .     S
C539   H561    1.111   .     S
C539   H563    1.110   .     S
C540   H566    1.110   .     S
C540   N583    1.450   .     S
C540   H565    1.109   .     S
C540   H567    1.110   .     S
C541   O592    1.293   .     A
C541   O589    1.293   .     A
C542   N584    1.450   .     S
C542   H569    1.109   .     S
C542   H570    1.110   .     S
C542   H571    1.110   .     S
C543   O590    1.293   .     A
C543   O591    1.292   .     A
C544   N580    1.367   .     A
C544   H551    1.082   .     S
C545   N579    1.367   .     A
C545   H562    1.082   .     S
C545   C102    1.416   1_565 S
C546   H572    1.082   .     S
C546   N580    1.367   .     A
C547   N579    1.367   .     A
C547   H573    1.082   .     S
C547   C100    1.416   1_565 S
C548   N581    1.428   .     S
Cu549  N579    2.010   .     S
Cu549  O589    1.957   .     S
Cu549  O585    1.967   .     S
Cu549  O591    1.956   .     S
Cu549  O587    1.960   .     S
Cu549  Cu550   2.675   .     S
Cu550  O586    1.967   .     S
Cu550  N580    2.010   .     S
Cu550  O590    1.957   .     S
Cu550  O592    1.956   .     S
Cu550  O588    1.960   .     S
H555   N581    1.029   .     S
H559   N582    1.029   .     S
H564   N583    1.031   .     S
H568   N584    1.031   .     S
C593   O662    1.292   .     A
C593   C611    1.452   .     S
C593   O659    1.285   .     A
C594   C610    1.408   .     A
C594   N656    1.429   .     S
C594   C448    1.402   1_655 S
C595   N657    1.427   .     S
C595   C610    1.411   .     A
C595   C474    1.401   1_655 S
C596   N658    1.427   .     S
C596   C611    1.412   .     A
C597   C601    1.390   .     A
C597   H648    1.083   .     S
C597   C608    1.404   .     A
C598   C602    1.390   .     A
C598   H649    1.083   .     S
C598   C609    1.404   .     A
C599   H650    1.083   .     S
C599   C603    1.390   .     A
C599   C609    1.404   .     A
C600   C605    1.390   .     A
C600   H651    1.083   .     S
C600   C608    1.404   .     A
C601   C606    1.402   .     A
C601   H652    1.083   .     S
C602   H626    1.083   .     S
C602   C607    1.401   .     A
C603   C607    1.401   .     A
C603   H627    1.083   .     S
C604   O660    1.285   .     A
C604   O661    1.292   .     A
C604   C610    1.451   .     S
C605   C606    1.402   .     A
C605   H628    1.083   .     S
C606   C615    1.461   .     S
C607   C617    1.458   .     S
C608   C1275   1.471   1_554 S
C609   C1274   1.471   .     S
C611   C622    1.408   .     A
C612   H630    1.111   .     S
C612   H632    1.111   .     S
C612   H631    1.110   .     S
C612   N655    1.447   .     S
C613   H634    1.111   .     S
C613   N656    1.447   .     S
C613   H635    1.111   .     S
C613   H637    1.110   .     S
C614   H640    1.110   .     S
C614   N657    1.450   .     S
C614   H639    1.109   .     S
C614   H641    1.110   .     S
C615   O666    1.293   .     A
C615   O663    1.293   .     A
C616   N658    1.450   .     S
C616   H643    1.109   .     S
C616   H644    1.110   .     S
C616   H645    1.110   .     S
C617   O664    1.293   .     A
C617   O665    1.292   .     A
C618   N654    1.367   .     A
C618   H625    1.082   .     S
C619   N653    1.367   .     A
C619   H636    1.082   .     S
C619   C176    1.416   1_565 S
C620   H646    1.082   .     S
C620   N654    1.367   .     A
C621   N653    1.367   .     A
C621   H647    1.082   .     S
C621   C174    1.416   1_565 S
C622   N655    1.428   .     S
Cu623  N653    2.010   .     S
Cu623  O663    1.957   .     S
Cu623  O659    1.967   .     S
Cu623  O665    1.956   .     S
Cu623  O661    1.960   .     S
Cu623  Cu624   2.675   .     S
Cu624  O660    1.967   .     S
Cu624  N654    2.010   .     S
Cu624  O664    1.957   .     S
Cu624  O666    1.956   .     S
Cu624  O662    1.960   .     S
H629   N655    1.029   .     S
H633   N656    1.029   .     S
H638   N657    1.031   .     S
H642   N658    1.031   .     S
C667   O736    1.292   .     A
C667   C685    1.452   .     S
C667   O733    1.285   .     A
C668   C684    1.408   .     A
C668   N730    1.429   .     S
C668   C744    1.402   .     S
C669   N731    1.427   .     S
C669   C684    1.411   .     A
C669   C770    1.401   .     S
C670   N732    1.427   .     S
C670   C685    1.412   .     A
C670   C816    1.402   1_455 S
C671   C675    1.390   .     A
C671   H722    1.083   .     S
C671   C682    1.404   .     A
C672   C676    1.390   .     A
C672   H723    1.083   .     S
C672   C683    1.404   .     A
C673   H724    1.083   .     S
C673   C677    1.390   .     A
C673   C683    1.404   .     A
C674   C679    1.390   .     A
C674   H725    1.083   .     S
C674   C682    1.404   .     A
C675   C680    1.402   .     A
C675   H726    1.083   .     S
C676   H700    1.083   .     S
C676   C681    1.401   .     A
C677   C681    1.401   .     A
C677   H701    1.083   .     S
C678   O734    1.285   .     A
C678   O735    1.292   .     A
C678   C684    1.451   .     S
C679   C680    1.402   .     A
C679   H702    1.083   .     S
C680   C689    1.461   .     S
C681   C691    1.458   .     S
C683   C16     1.471   1_556 S
C685   C696    1.408   .     A
C686   H704    1.111   .     S
C686   H706    1.111   .     S
C686   H705    1.110   .     S
C686   N729    1.447   .     S
C687   H708    1.111   .     S
C687   N730    1.447   .     S
C687   H709    1.111   .     S
C687   H711    1.110   .     S
C688   H714    1.110   .     S
C688   N731    1.450   .     S
C688   H713    1.109   .     S
C688   H715    1.110   .     S
C689   O740    1.293   .     A
C689   O737    1.293   .     A
C690   N732    1.450   .     S
C690   H717    1.109   .     S
C690   H718    1.110   .     S
C690   H719    1.110   .     S
C691   O738    1.293   .     A
C691   O739    1.292   .     A
C692   N728    1.367   .     A
C692   H699    1.082   .     S
C692   C1139   1.416   1_545 S
C693   N727    1.367   .     A
C693   H710    1.082   .     S
C693   C916    1.416   .     S
C694   H720    1.082   .     S
C694   N728    1.367   .     A
C694   C1137   1.416   1_545 S
C695   N727    1.367   .     A
C695   H721    1.082   .     S
C695   C914    1.416   .     S
C696   N729    1.428   .     S
C696   C817    1.401   1_455 S
Cu697  N727    2.010   .     S
Cu697  O737    1.957   .     S
Cu697  O733    1.967   .     S
Cu697  O739    1.956   .     S
Cu697  O735    1.960   .     S
Cu697  Cu698   2.675   .     S
Cu698  O734    1.967   .     S
Cu698  N728    2.010   .     S
Cu698  O738    1.957   .     S
Cu698  O740    1.956   .     S
Cu698  O736    1.960   .     S
H703   N729    1.029   .     S
H707   N730    1.029   .     S
H712   N731    1.031   .     S
H716   N732    1.031   .     S
C741   O810    1.292   .     A
C741   C759    1.452   .     S
C741   O807    1.285   .     A
C742   C758    1.408   .     A
C742   N804    1.429   .     S
C742   C818    1.402   .     S
C743   N805    1.427   .     S
C743   C758    1.411   .     A
C743   C844    1.401   .     S
C744   N806    1.427   .     S
C744   C759    1.412   .     A
C745   C749    1.390   .     A
C745   H796    1.083   .     S
C745   C756    1.404   .     A
C746   C750    1.390   .     A
C746   H797    1.083   .     S
C746   C757    1.404   .     A
C747   H798    1.083   .     S
C747   C751    1.390   .     A
C747   C757    1.404   .     A
C748   C753    1.390   .     A
C748   H799    1.083   .     S
C748   C756    1.404   .     A
C749   C754    1.402   .     A
C749   H800    1.083   .     S
C750   H774    1.083   .     S
C750   C755    1.401   .     A
C751   C755    1.401   .     A
C751   H775    1.083   .     S
C752   O808    1.285   .     A
C752   O809    1.292   .     A
C752   C758    1.451   .     S
C753   C754    1.402   .     A
C753   H776    1.083   .     S
C754   C763    1.461   .     S
C755   C765    1.458   .     S
C757   C90     1.471   1_556 S
C759   C770    1.408   .     A
C760   H778    1.111   .     S
C760   H780    1.111   .     S
C760   H779    1.110   .     S
C760   N803    1.447   .     S
C761   H782    1.111   .     S
C761   N804    1.447   .     S
C761   H783    1.111   .     S
C761   H785    1.110   .     S
C762   H788    1.110   .     S
C762   N805    1.450   .     S
C762   H787    1.109   .     S
C762   H789    1.110   .     S
C763   O814    1.293   .     A
C763   O811    1.293   .     A
C764   N806    1.450   .     S
C764   H791    1.109   .     S
C764   H792    1.110   .     S
C764   H793    1.110   .     S
C765   O812    1.293   .     A
C765   O813    1.292   .     A
C766   N802    1.367   .     A
C766   H773    1.082   .     S
C766   C1213   1.416   1_545 S
C767   N801    1.367   .     A
C767   H784    1.082   .     S
C767   C990    1.416   .     S
C768   H794    1.082   .     S
C768   N802    1.367   .     A
C768   C1211   1.416   1_545 S
C769   N801    1.367   .     A
C769   H795    1.082   .     S
C769   C988    1.416   .     S
C770   N803    1.428   .     S
Cu771  N801    2.010   .     S
Cu771  O811    1.957   .     S
Cu771  O807    1.967   .     S
Cu771  O813    1.956   .     S
Cu771  O809    1.960   .     S
Cu771  Cu772   2.675   .     S
Cu772  O808    1.967   .     S
Cu772  N802    2.010   .     S
Cu772  O812    1.957   .     S
Cu772  O814    1.956   .     S
Cu772  O810    1.960   .     S
H777   N803    1.029   .     S
H781   N804    1.029   .     S
H786   N805    1.031   .     S
H790   N806    1.031   .     S
C815   O884    1.292   .     A
C815   C833    1.452   .     S
C815   O881    1.285   .     A
C816   C832    1.408   .     A
C816   N878    1.429   .     S
C816   C670    1.402   1_655 S
C817   N879    1.427   .     S
C817   C832    1.411   .     A
C817   C696    1.401   1_655 S
C818   N880    1.427   .     S
C818   C833    1.412   .     A
C819   C823    1.390   .     A
C819   H870    1.083   .     S
C819   C830    1.404   .     A
C820   C824    1.390   .     A
C820   H871    1.083   .     S
C820   C831    1.404   .     A
C821   H872    1.083   .     S
C821   C825    1.390   .     A
C821   C831    1.404   .     A
C822   C827    1.390   .     A
C822   H873    1.083   .     S
C822   C830    1.404   .     A
C823   C828    1.402   .     A
C823   H874    1.083   .     S
C824   H848    1.083   .     S
C824   C829    1.401   .     A
C825   C829    1.401   .     A
C825   H849    1.083   .     S
C826   O882    1.285   .     A
C826   O883    1.292   .     A
C826   C832    1.451   .     S
C827   C828    1.402   .     A
C827   H850    1.083   .     S
C828   C837    1.461   .     S
C829   C839    1.458   .     S
C831   C164    1.471   1_556 S
C833   C844    1.408   .     A
C834   H852    1.111   .     S
C834   H854    1.111   .     S
C834   H853    1.110   .     S
C834   N877    1.447   .     S
C835   H856    1.111   .     S
C835   N878    1.447   .     S
C835   H857    1.111   .     S
C835   H859    1.110   .     S
C836   H862    1.110   .     S
C836   N879    1.450   .     S
C836   H861    1.109   .     S
C836   H863    1.110   .     S
C837   O888    1.293   .     A
C837   O885    1.293   .     A
C838   N880    1.450   .     S
C838   H865    1.109   .     S
C838   H866    1.110   .     S
C838   H867    1.110   .     S
C839   O886    1.293   .     A
C839   O887    1.292   .     A
C840   N876    1.367   .     A
C840   H847    1.082   .     S
C840   C1287   1.416   1_545 S
C841   N875    1.367   .     A
C841   H858    1.082   .     S
C841   C1064   1.416   .     S
C842   H868    1.082   .     S
C842   N876    1.367   .     A
C842   C1285   1.416   1_545 S
C843   N875    1.367   .     A
C843   H869    1.082   .     S
C843   C1062   1.416   .     S
C844   N877    1.428   .     S
Cu845  N875    2.010   .     S
Cu845  O885    1.957   .     S
Cu845  O881    1.967   .     S
Cu845  O887    1.956   .     S
Cu845  O883    1.960   .     S
Cu845  Cu846   2.675   .     S
Cu846  O882    1.967   .     S
Cu846  N876    2.010   .     S
Cu846  O886    1.957   .     S
Cu846  O888    1.956   .     S
Cu846  O884    1.960   .     S
H851   N877    1.029   .     S
H855   N878    1.029   .     S
H860   N879    1.031   .     S
H864   N880    1.031   .     S
C889   O958    1.292   .     A
C889   C907    1.452   .     S
C889   O955    1.285   .     A
C890   C906    1.408   .     A
C890   N952    1.429   .     S
C890   C966    1.402   .     S
C891   N953    1.427   .     S
C891   C906    1.411   .     A
C891   C992    1.401   .     S
C892   N954    1.427   .     S
C892   C907    1.412   .     A
C892   C1038   1.402   1_455 S
C893   C897    1.390   .     A
C893   H944    1.083   .     S
C893   C904    1.404   .     A
C894   C898    1.390   .     A
C894   H945    1.083   .     S
C894   C905    1.404   .     A
C895   H946    1.083   .     S
C895   C899    1.390   .     A
C895   C905    1.404   .     A
C896   C901    1.390   .     A
C896   H947    1.083   .     S
C896   C904    1.404   .     A
C897   C902    1.402   .     A
C897   H948    1.083   .     S
C898   H922    1.083   .     S
C898   C903    1.401   .     A
C899   C903    1.401   .     A
C899   H923    1.083   .     S
C900   O956    1.285   .     A
C900   O957    1.292   .     A
C900   C906    1.451   .     S
C901   C902    1.402   .     A
C901   H924    1.083   .     S
C902   C911    1.461   .     S
C903   C913    1.458   .     S
C905   C238    1.471   1_556 S
C907   C918    1.408   .     A
C908   H926    1.111   .     S
C908   H928    1.111   .     S
C908   H927    1.110   .     S
C908   N951    1.447   .     S
C909   H930    1.111   .     S
C909   N952    1.447   .     S
C909   H931    1.111   .     S
C909   H933    1.110   .     S
C910   H936    1.110   .     S
C910   N953    1.450   .     S
C910   H935    1.109   .     S
C910   H937    1.110   .     S
C911   O962    1.293   .     A
C911   O959    1.293   .     A
C912   N954    1.450   .     S
C912   H939    1.109   .     S
C912   H940    1.110   .     S
C912   H941    1.110   .     S
C913   O960    1.293   .     A
C913   O961    1.292   .     A
C914   N950    1.367   .     A
C914   H921    1.082   .     S
C915   N949    1.367   .     A
C915   H932    1.082   .     S
C915   C1138   1.416   .     S
C916   H942    1.082   .     S
C916   N950    1.367   .     A
C917   N949    1.367   .     A
C917   H943    1.082   .     S
C917   C1136   1.416   .     S
C918   N951    1.428   .     S
C918   C1039   1.401   1_455 S
Cu919  N949    2.010   .     S
Cu919  O959    1.957   .     S
Cu919  O955    1.967   .     S
Cu919  O961    1.956   .     S
Cu919  O957    1.960   .     S
Cu919  Cu920   2.675   .     S
Cu920  O956    1.967   .     S
Cu920  N950    2.010   .     S
Cu920  O960    1.957   .     S
Cu920  O962    1.956   .     S
Cu920  O958    1.960   .     S
H925   N951    1.029   .     S
H929   N952    1.029   .     S
H934   N953    1.031   .     S
H938   N954    1.031   .     S
C963   O1032   1.292   .     A
C963   C981    1.452   .     S
C963   O1029   1.285   .     A
C964   C980    1.408   .     A
C964   N1026   1.429   .     S
C964   C1040   1.402   .     S
C965   N1027   1.427   .     S
C965   C980    1.411   .     A
C965   C1066   1.401   .     S
C966   N1028   1.427   .     S
C966   C981    1.412   .     A
C967   C971    1.390   .     A
C967   H1018   1.083   .     S
C967   C978    1.404   .     A
C968   C972    1.390   .     A
C968   H1019   1.083   .     S
C968   C979    1.404   .     A
C969   H1020   1.083   .     S
C969   C973    1.390   .     A
C969   C979    1.404   .     A
C970   C975    1.390   .     A
C970   H1021   1.083   .     S
C970   C978    1.404   .     A
C971   C976    1.402   .     A
C971   H1022   1.083   .     S
C972   H996    1.083   .     S
C972   C977    1.401   .     A
C973   C977    1.401   .     A
C973   H997    1.083   .     S
C974   O1030   1.285   .     A
C974   O1031   1.292   .     A
C974   C980    1.451   .     S
C975   C976    1.402   .     A
C975   H998    1.083   .     S
C976   C985    1.461   .     S
C977   C987    1.458   .     S
C979   C312    1.471   1_556 S
C981   C992    1.408   .     A
C982   H1000   1.111   .     S
C982   H1002   1.111   .     S
C982   H1001   1.110   .     S
C982   N1025   1.447   .     S
C983   H1004   1.111   .     S
C983   N1026   1.447   .     S
C983   H1005   1.111   .     S
C983   H1007   1.110   .     S
C984   H1010   1.110   .     S
C984   N1027   1.450   .     S
C984   H1009   1.109   .     S
C984   H1011   1.110   .     S
C985   O1036   1.293   .     A
C985   O1033   1.293   .     A
C986   N1028   1.450   .     S
C986   H1013   1.109   .     S
C986   H1014   1.110   .     S
C986   H1015   1.110   .     S
C987   O1034   1.293   .     A
C987   O1035   1.292   .     A
C988   N1024   1.367   .     A
C988   H995    1.082   .     S
C989   N1023   1.367   .     A
C989   H1006   1.082   .     S
C989   C1212   1.416   .     S
C990   H1016   1.082   .     S
C990   N1024   1.367   .     A
C991   N1023   1.367   .     A
C991   H1017   1.082   .     S
C991   C1210   1.416   .     S
C992   N1025   1.428   .     S
Cu993  N1023   2.010   .     S
Cu993  O1033   1.957   .     S
Cu993  O1029   1.967   .     S
Cu993  O1035   1.956   .     S
Cu993  O1031   1.960   .     S
Cu993  Cu994   2.675   .     S
Cu994  O1030   1.967   .     S
Cu994  N1024   2.010   .     S
Cu994  O1034   1.957   .     S
Cu994  O1036   1.956   .     S
Cu994  O1032   1.960   .     S
H999   N1025   1.029   .     S
H1003  N1026   1.029   .     S
H1008  N1027   1.031   .     S
H1012  N1028   1.031   .     S
C1037  O1106   1.292   .     A
C1037  C1055   1.452   .     S
C1037  O1103   1.285   .     A
C1038  C1054   1.408   .     A
C1038  N1100   1.429   .     S
C1038  C892    1.402   1_655 S
C1039  N1101   1.427   .     S
C1039  C1054   1.411   .     A
C1039  C918    1.401   1_655 S
C1040  N1102   1.427   .     S
C1040  C1055   1.412   .     A
C1041  C1045   1.390   .     A
C1041  H1092   1.083   .     S
C1041  C1052   1.404   .     A
C1042  C1046   1.390   .     A
C1042  H1093   1.083   .     S
C1042  C1053   1.404   .     A
C1043  H1094   1.083   .     S
C1043  C1047   1.390   .     A
C1043  C1053   1.404   .     A
C1044  C1049   1.390   .     A
C1044  H1095   1.083   .     S
C1044  C1052   1.404   .     A
C1045  C1050   1.402   .     A
C1045  H1096   1.083   .     S
C1046  H1070   1.083   .     S
C1046  C1051   1.401   .     A
C1047  C1051   1.401   .     A
C1047  H1071   1.083   .     S
C1048  O1104   1.285   .     A
C1048  O1105   1.292   .     A
C1048  C1054   1.451   .     S
C1049  C1050   1.402   .     A
C1049  H1072   1.083   .     S
C1050  C1059   1.461   .     S
C1051  C1061   1.458   .     S
C1053  C386    1.471   1_556 S
C1055  C1066   1.408   .     A
C1056  H1074   1.111   .     S
C1056  H1076   1.111   .     S
C1056  H1075   1.110   .     S
C1056  N1099   1.447   .     S
C1057  H1078   1.111   .     S
C1057  N1100   1.447   .     S
C1057  H1079   1.111   .     S
C1057  H1081   1.110   .     S
C1058  H1084   1.110   .     S
C1058  N1101   1.450   .     S
C1058  H1083   1.109   .     S
C1058  H1085   1.110   .     S
C1059  O1110   1.293   .     A
C1059  O1107   1.293   .     A
C1060  N1102   1.450   .     S
C1060  H1087   1.109   .     S
C1060  H1088   1.110   .     S
C1060  H1089   1.110   .     S
C1061  O1108   1.293   .     A
C1061  O1109   1.292   .     A
C1062  N1098   1.367   .     A
C1062  H1069   1.082   .     S
C1063  N1097   1.367   .     A
C1063  H1080   1.082   .     S
C1063  C1286   1.416   .     S
C1064  H1090   1.082   .     S
C1064  N1098   1.367   .     A
C1065  N1097   1.367   .     A
C1065  H1091   1.082   .     S
C1065  C1284   1.416   .     S
C1066  N1099   1.428   .     S
Cu1067 N1097   2.010   .     S
Cu1067 O1107   1.957   .     S
Cu1067 O1103   1.967   .     S
Cu1067 O1109   1.956   .     S
Cu1067 O1105   1.960   .     S
Cu1067 Cu1068  2.675   .     S
Cu1068 O1104   1.967   .     S
Cu1068 N1098   2.010   .     S
Cu1068 O1108   1.957   .     S
Cu1068 O1110   1.956   .     S
Cu1068 O1106   1.960   .     S
H1073  N1099   1.029   .     S
H1077  N1100   1.029   .     S
H1082  N1101   1.031   .     S
H1086  N1102   1.031   .     S
C1111  O1180   1.292   .     A
C1111  C1129   1.452   .     S
C1111  O1177   1.285   .     A
C1112  C1128   1.408   .     A
C1112  N1174   1.429   .     S
C1112  C1188   1.402   .     S
C1113  N1175   1.427   .     S
C1113  C1128   1.411   .     A
C1113  C1214   1.401   .     S
C1114  N1176   1.427   .     S
C1114  C1129   1.412   .     A
C1114  C1260   1.402   1_455 S
C1115  C1119   1.390   .     A
C1115  H1166   1.083   .     S
C1115  C1126   1.404   .     A
C1116  C1120   1.390   .     A
C1116  H1167   1.083   .     S
C1116  C1127   1.404   .     A
C1117  H1168   1.083   .     S
C1117  C1121   1.390   .     A
C1117  C1127   1.404   .     A
C1118  C1123   1.390   .     A
C1118  H1169   1.083   .     S
C1118  C1126   1.404   .     A
C1119  C1124   1.402   .     A
C1119  H1170   1.083   .     S
C1120  H1144   1.083   .     S
C1120  C1125   1.401   .     A
C1121  C1125   1.401   .     A
C1121  H1145   1.083   .     S
C1122  O1178   1.285   .     A
C1122  O1179   1.292   .     A
C1122  C1128   1.451   .     S
C1123  C1124   1.402   .     A
C1123  H1146   1.083   .     S
C1124  C1133   1.461   .     S
C1125  C1135   1.458   .     S
C1127  C460    1.471   1_556 S
C1129  C1140   1.408   .     A
C1130  H1148   1.111   .     S
C1130  H1150   1.111   .     S
C1130  H1149   1.110   .     S
C1130  N1173   1.447   .     S
C1131  H1152   1.111   .     S
C1131  N1174   1.447   .     S
C1131  H1153   1.111   .     S
C1131  H1155   1.110   .     S
C1132  H1158   1.110   .     S
C1132  N1175   1.450   .     S
C1132  H1157   1.109   .     S
C1132  H1159   1.110   .     S
C1133  O1184   1.293   .     A
C1133  O1181   1.293   .     A
C1134  N1176   1.450   .     S
C1134  H1161   1.109   .     S
C1134  H1162   1.110   .     S
C1134  H1163   1.110   .     S
C1135  O1182   1.293   .     A
C1135  O1183   1.292   .     A
C1136  N1172   1.367   .     A
C1136  H1143   1.082   .     S
C1137  N1171   1.367   .     A
C1137  H1154   1.082   .     S
C1137  C694    1.416   1_565 S
C1138  H1164   1.082   .     S
C1138  N1172   1.367   .     A
C1139  N1171   1.367   .     A
C1139  H1165   1.082   .     S
C1139  C692    1.416   1_565 S
C1140  N1173   1.428   .     S
C1140  C1261   1.401   1_455 S
Cu1141 N1171   2.010   .     S
Cu1141 O1181   1.957   .     S
Cu1141 O1177   1.967   .     S
Cu1141 O1183   1.956   .     S
Cu1141 O1179   1.960   .     S
Cu1141 Cu1142  2.675   .     S
Cu1142 O1178   1.967   .     S
Cu1142 N1172   2.010   .     S
Cu1142 O1182   1.957   .     S
Cu1142 O1184   1.956   .     S
Cu1142 O1180   1.960   .     S
H1147  N1173   1.029   .     S
H1151  N1174   1.029   .     S
H1156  N1175   1.031   .     S
H1160  N1176   1.031   .     S
C1185  O1254   1.292   .     A
C1185  C1203   1.452   .     S
C1185  O1251   1.285   .     A
C1186  C1202   1.408   .     A
C1186  N1248   1.429   .     S
C1186  C1262   1.402   .     S
C1187  N1249   1.427   .     S
C1187  C1202   1.411   .     A
C1187  C1288   1.401   .     S
C1188  N1250   1.427   .     S
C1188  C1203   1.412   .     A
C1189  C1193   1.390   .     A
C1189  H1240   1.083   .     S
C1189  C1200   1.404   .     A
C1190  C1194   1.390   .     A
C1190  H1241   1.083   .     S
C1190  C1201   1.404   .     A
C1191  H1242   1.083   .     S
C1191  C1195   1.390   .     A
C1191  C1201   1.404   .     A
C1192  C1197   1.390   .     A
C1192  H1243   1.083   .     S
C1192  C1200   1.404   .     A
C1193  C1198   1.402   .     A
C1193  H1244   1.083   .     S
C1194  H1218   1.083   .     S
C1194  C1199   1.401   .     A
C1195  C1199   1.401   .     A
C1195  H1219   1.083   .     S
C1196  O1252   1.285   .     A
C1196  O1253   1.292   .     A
C1196  C1202   1.451   .     S
C1197  C1198   1.402   .     A
C1197  H1220   1.083   .     S
C1198  C1207   1.461   .     S
C1199  C1209   1.458   .     S
C1201  C534    1.471   1_556 S
C1203  C1214   1.408   .     A
C1204  H1222   1.111   .     S
C1204  H1224   1.111   .     S
C1204  H1223   1.110   .     S
C1204  N1247   1.447   .     S
C1205  H1226   1.111   .     S
C1205  N1248   1.447   .     S
C1205  H1227   1.111   .     S
C1205  H1229   1.110   .     S
C1206  H1232   1.110   .     S
C1206  N1249   1.450   .     S
C1206  H1231   1.109   .     S
C1206  H1233   1.110   .     S
C1207  O1258   1.293   .     A
C1207  O1255   1.293   .     A
C1208  N1250   1.450   .     S
C1208  H1235   1.109   .     S
C1208  H1236   1.110   .     S
C1208  H1237   1.110   .     S
C1209  O1256   1.293   .     A
C1209  O1257   1.292   .     A
C1210  N1246   1.367   .     A
C1210  H1217   1.082   .     S
C1211  N1245   1.367   .     A
C1211  H1228   1.082   .     S
C1211  C768    1.416   1_565 S
C1212  H1238   1.082   .     S
C1212  N1246   1.367   .     A
C1213  N1245   1.367   .     A
C1213  H1239   1.082   .     S
C1213  C766    1.416   1_565 S
C1214  N1247   1.428   .     S
Cu1215 N1245   2.010   .     S
Cu1215 O1255   1.957   .     S
Cu1215 O1251   1.967   .     S
Cu1215 O1257   1.956   .     S
Cu1215 O1253   1.960   .     S
Cu1215 Cu1216  2.675   .     S
Cu1216 O1252   1.967   .     S
Cu1216 N1246   2.010   .     S
Cu1216 O1256   1.957   .     S
Cu1216 O1258   1.956   .     S
Cu1216 O1254   1.960   .     S
H1221  N1247   1.029   .     S
H1225  N1248   1.029   .     S
H1230  N1249   1.031   .     S
H1234  N1250   1.031   .     S
C1259  O1328   1.292   .     A
C1259  C1277   1.452   .     S
C1259  O1325   1.285   .     A
C1260  C1276   1.408   .     A
C1260  N1322   1.429   .     S
C1260  C1114   1.402   1_655 S
C1261  N1323   1.427   .     S
C1261  C1276   1.411   .     A
C1261  C1140   1.401   1_655 S
C1262  N1324   1.427   .     S
C1262  C1277   1.412   .     A
C1263  C1267   1.390   .     A
C1263  H1314   1.083   .     S
C1263  C1274   1.404   .     A
C1264  C1268   1.390   .     A
C1264  H1315   1.083   .     S
C1264  C1275   1.404   .     A
C1265  H1316   1.083   .     S
C1265  C1269   1.390   .     A
C1265  C1275   1.404   .     A
C1266  C1271   1.390   .     A
C1266  H1317   1.083   .     S
C1266  C1274   1.404   .     A
C1267  C1272   1.402   .     A
C1267  H1318   1.083   .     S
C1268  H1292   1.083   .     S
C1268  C1273   1.401   .     A
C1269  C1273   1.401   .     A
C1269  H1293   1.083   .     S
C1270  O1326   1.285   .     A
C1270  O1327   1.292   .     A
C1270  C1276   1.451   .     S
C1271  C1272   1.402   .     A
C1271  H1294   1.083   .     S
C1272  C1281   1.461   .     S
C1273  C1283   1.458   .     S
C1275  C608    1.471   1_556 S
C1277  C1288   1.408   .     A
C1278  H1296   1.111   .     S
C1278  H1298   1.111   .     S
C1278  H1297   1.110   .     S
C1278  N1321   1.447   .     S
C1279  H1300   1.111   .     S
C1279  N1322   1.447   .     S
C1279  H1301   1.111   .     S
C1279  H1303   1.110   .     S
C1280  H1306   1.110   .     S
C1280  N1323   1.450   .     S
C1280  H1305   1.109   .     S
C1280  H1307   1.110   .     S
C1281  O1332   1.293   .     A
C1281  O1329   1.293   .     A
C1282  N1324   1.450   .     S
C1282  H1309   1.109   .     S
C1282  H1310   1.110   .     S
C1282  H1311   1.110   .     S
C1283  O1330   1.293   .     A
C1283  O1331   1.292   .     A
C1284  N1320   1.367   .     A
C1284  H1291   1.082   .     S
C1285  N1319   1.367   .     A
C1285  H1302   1.082   .     S
C1285  C842    1.416   1_565 S
C1286  H1312   1.082   .     S
C1286  N1320   1.367   .     A
C1287  N1319   1.367   .     A
C1287  H1313   1.082   .     S
C1287  C840    1.416   1_565 S
C1288  N1321   1.428   .     S
Cu1289 N1319   2.010   .     S
Cu1289 O1329   1.957   .     S
Cu1289 O1325   1.967   .     S
Cu1289 O1331   1.956   .     S
Cu1289 O1327   1.960   .     S
Cu1289 Cu1290  2.675   .     S
Cu1290 O1326   1.967   .     S
Cu1290 N1320   2.010   .     S
Cu1290 O1330   1.957   .     S
Cu1290 O1332   1.956   .     S
Cu1290 O1328   1.960   .     S
H1295  N1321   1.029   .     S
H1299  N1322   1.029   .     S
H1304  N1323   1.031   .     S
H1308  N1324   1.031   .     S
