data_str_m2_o10_o16_pcu_sym.139
_audit_creation_date              2020-01-03
_audit_creation_method            'Materials Studio'
_symmetry_space_group_name_H-M    'P1'
_symmetry_Int_Tables_number       1
_symmetry_cell_setting            triclinic
loop_
_symmetry_equiv_pos_as_xyz
  x,y,z
_cell_length_a                    22.2595
_cell_length_b                    26.1349
_cell_length_c                    26.9650
_cell_angle_alpha                 94.1565
_cell_angle_beta                  77.7918
_cell_angle_gamma                 103.0496
loop_
_atom_site_label
_atom_site_type_symbol
_atom_site_fract_x
_atom_site_fract_y
_atom_site_fract_z
_atom_site_U_iso_or_equiv
_atom_site_adp_type
_atom_site_occupancy
O1     O     0.12797   0.23807   0.24633   0.00000  Uiso   1.00
O2     O     0.22858   0.24755   0.25586   0.00000  Uiso   1.00
C3     C     0.18178   0.26664   0.25156   0.00000  Uiso   1.00
O4     O     0.09181   0.15960   0.31839   0.00000  Uiso   1.00
O5     O     0.19242   0.16908   0.32793   0.00000  Uiso   1.00
C6     C     0.13344   0.16568   0.34713   0.00000  Uiso   1.00
Cu7    Cu    0.10710   0.16105   0.24435   0.00000  Uiso   1.00
Cu8    Cu    0.22623   0.17228   0.25564   0.00000  Uiso   1.00
O9     O     0.10476   0.08578   0.24413   0.00000  Uiso   1.00
O10    O     0.20536   0.09526   0.25367   0.00000  Uiso   1.00
O11    O     0.14092   0.16425   0.17207   0.00000  Uiso   1.00
O12    O     0.24152   0.17373   0.18160   0.00000  Uiso   1.00
C13    C     0.15169   0.06662   0.24853   0.00000  Uiso   1.00
C14    C     0.20021   0.17012   0.15299   0.00000  Uiso   1.00
C15    C     0.29889   0.20229   0.02299   0.00000  Uiso   1.00
H16    H     0.31951   0.19814   0.09646   0.00000  Uiso   1.00
H17    H     0.31136   0.23783   0.43053   0.00000  Uiso   1.00
H18    H     0.01399   0.21997   0.00650   0.00000  Uiso   1.00
C19    C     0.21951   0.17392   0.09758   0.00000  Uiso   1.00
C20    C     0.05365   0.13040   0.42160   0.00000  Uiso   1.00
C21    C     0.04089   0.10682   0.46825   0.00000  Uiso   1.00
C22    C     0.08722   0.11418   0.49741   0.00000  Uiso   1.00
C23    C     0.14429   0.15256   0.48352   0.00000  Uiso   1.00
C24    C     0.15822   0.17469   0.43479   0.00000  Uiso   1.00
C25    C     0.18965   0.16779   0.01497   0.00000  Uiso   1.00
C26    C     0.25205   0.19345   0.49386   0.00000  Uiso   1.00
C27    C     0.26519   0.21432   0.44580   0.00000  Uiso   1.00
C28    C     0.21737   0.20906   0.41881   0.00000  Uiso   1.00
C29    C     0.17296   0.16450   0.06777   0.00000  Uiso   1.00
C30    C     0.28296   0.19041   0.07431   0.00000  Uiso   1.00
C31    C     0.11375   0.16030   0.40255   0.00000  Uiso   1.00
H32    H     0.01864   0.12018   0.39802   0.00000  Uiso   1.00
H33    H     0.22795   0.23188   0.38499   0.00000  Uiso   1.00
C34    C     0.19090   0.32239   0.25240   0.00000  Uiso   1.00
C35    C     0.14368   0.01077   0.24788   0.00000  Uiso   1.00
H36    H     0.09806   0.32042   0.24360   0.00000  Uiso   1.00
N37    N     0.31574   0.18074   0.26416   0.00000  Uiso   1.00
H38    H     0.00380   0.20582   0.28961   0.00000  Uiso   1.00
N39    N     0.01759   0.15259   0.23584   0.00000  Uiso   1.00
H40    H     0.32952   0.12750   0.21041   0.00000  Uiso   1.00
F41    F     0.11137   0.16031   0.09027   0.00000  Uiso   1.00
Cl42   Cl    0.07681   0.06593   0.04312   0.00000  Uiso   1.00
F43    F     0.31848   0.07238   0.48272   0.00000  Uiso   1.00
F44    F     0.24849   0.01790   0.25783   0.00000  Uiso   1.00
O45    O     0.46131   0.23807   0.24633   0.00000  Uiso   1.00
O46    O     0.56191   0.24755   0.25586   0.00000  Uiso   1.00
C47    C     0.51512   0.26664   0.25156   0.00000  Uiso   1.00
O48    O     0.42515   0.15960   0.31839   0.00000  Uiso   1.00
O49    O     0.52575   0.16908   0.32793   0.00000  Uiso   1.00
C50    C     0.46678   0.16568   0.34713   0.00000  Uiso   1.00
Cu51   Cu    0.44043   0.16105   0.24435   0.00000  Uiso   1.00
Cu52   Cu    0.55957   0.17228   0.25564   0.00000  Uiso   1.00
O53    O     0.43809   0.08578   0.24413   0.00000  Uiso   1.00
O54    O     0.53869   0.09526   0.25367   0.00000  Uiso   1.00
O55    O     0.47425   0.16425   0.17207   0.00000  Uiso   1.00
O56    O     0.57485   0.17373   0.18160   0.00000  Uiso   1.00
C57    C     0.48502   0.06662   0.24853   0.00000  Uiso   1.00
C58    C     0.53354   0.17012   0.15299   0.00000  Uiso   1.00
C59    C     0.63223   0.20229   0.02299   0.00000  Uiso   1.00
H60    H     0.65285   0.19814   0.09646   0.00000  Uiso   1.00
H61    H     0.64470   0.23783   0.43053   0.00000  Uiso   1.00
H62    H     0.34732   0.21997   0.00650   0.00000  Uiso   1.00
C63    C     0.55284   0.17392   0.09758   0.00000  Uiso   1.00
C64    C     0.38698   0.13040   0.42160   0.00000  Uiso   1.00
C65    C     0.37423   0.10682   0.46825   0.00000  Uiso   1.00
C66    C     0.42056   0.11418   0.49741   0.00000  Uiso   1.00
C67    C     0.47762   0.15256   0.48352   0.00000  Uiso   1.00
C68    C     0.49156   0.17469   0.43479   0.00000  Uiso   1.00
C69    C     0.52298   0.16779   0.01497   0.00000  Uiso   1.00
C70    C     0.58539   0.19345   0.49386   0.00000  Uiso   1.00
C71    C     0.59852   0.21432   0.44580   0.00000  Uiso   1.00
C72    C     0.55070   0.20906   0.41881   0.00000  Uiso   1.00
C73    C     0.50629   0.16450   0.06777   0.00000  Uiso   1.00
C74    C     0.61630   0.19041   0.07431   0.00000  Uiso   1.00
C75    C     0.44708   0.16030   0.40255   0.00000  Uiso   1.00
H76    H     0.35197   0.12018   0.39802   0.00000  Uiso   1.00
H77    H     0.56129   0.23188   0.38499   0.00000  Uiso   1.00
C78    C     0.52423   0.32239   0.25240   0.00000  Uiso   1.00
C79    C     0.47702   0.01077   0.24788   0.00000  Uiso   1.00
H80    H     0.43139   0.32042   0.24360   0.00000  Uiso   1.00
N81    N     0.64908   0.18074   0.26416   0.00000  Uiso   1.00
H82    H     0.33713   0.20582   0.28961   0.00000  Uiso   1.00
N83    N     0.35092   0.15259   0.23584   0.00000  Uiso   1.00
H84    H     0.66285   0.12750   0.21041   0.00000  Uiso   1.00
F85    F     0.44471   0.16031   0.09027   0.00000  Uiso   1.00
Cl86   Cl    0.41015   0.06593   0.04312   0.00000  Uiso   1.00
F87    F     0.65181   0.07238   0.48272   0.00000  Uiso   1.00
F88    F     0.58183   0.01790   0.25783   0.00000  Uiso   1.00
O89    O     0.79464   0.23807   0.24633   0.00000  Uiso   1.00
O90    O     0.89524   0.24755   0.25586   0.00000  Uiso   1.00
C91    C     0.84845   0.26664   0.25156   0.00000  Uiso   1.00
O92    O     0.75848   0.15960   0.31839   0.00000  Uiso   1.00
O93    O     0.85908   0.16908   0.32793   0.00000  Uiso   1.00
C94    C     0.80011   0.16568   0.34713   0.00000  Uiso   1.00
Cu95   Cu    0.77377   0.16105   0.24435   0.00000  Uiso   1.00
Cu96   Cu    0.89290   0.17228   0.25564   0.00000  Uiso   1.00
O97    O     0.77142   0.08578   0.24413   0.00000  Uiso   1.00
O98    O     0.87203   0.09526   0.25367   0.00000  Uiso   1.00
O99    O     0.80758   0.16425   0.17207   0.00000  Uiso   1.00
O100   O     0.90819   0.17373   0.18160   0.00000  Uiso   1.00
C101   C     0.81836   0.06662   0.24853   0.00000  Uiso   1.00
C102   C     0.86688   0.17012   0.15299   0.00000  Uiso   1.00
C103   C     0.96556   0.20229   0.02299   0.00000  Uiso   1.00
H104   H     0.98618   0.19814   0.09646   0.00000  Uiso   1.00
H105   H     0.97803   0.23783   0.43053   0.00000  Uiso   1.00
H106   H     0.68065   0.21997   0.00650   0.00000  Uiso   1.00
C107   C     0.88618   0.17392   0.09758   0.00000  Uiso   1.00
C108   C     0.72032   0.13040   0.42160   0.00000  Uiso   1.00
C109   C     0.70756   0.10682   0.46825   0.00000  Uiso   1.00
C110   C     0.75389   0.11418   0.49741   0.00000  Uiso   1.00
C111   C     0.81096   0.15256   0.48352   0.00000  Uiso   1.00
C112   C     0.82489   0.17469   0.43479   0.00000  Uiso   1.00
C113   C     0.85632   0.16779   0.01497   0.00000  Uiso   1.00
C114   C     0.91872   0.19345   0.49386   0.00000  Uiso   1.00
C115   C     0.93186   0.21432   0.44580   0.00000  Uiso   1.00
C116   C     0.88403   0.20906   0.41881   0.00000  Uiso   1.00
C117   C     0.83963   0.16450   0.06777   0.00000  Uiso   1.00
C118   C     0.94963   0.19041   0.07431   0.00000  Uiso   1.00
C119   C     0.78041   0.16030   0.40255   0.00000  Uiso   1.00
H120   H     0.68531   0.12018   0.39802   0.00000  Uiso   1.00
H121   H     0.89462   0.23188   0.38499   0.00000  Uiso   1.00
C122   C     0.85756   0.32239   0.25240   0.00000  Uiso   1.00
C123   C     0.81035   0.01077   0.24788   0.00000  Uiso   1.00
H124   H     0.76473   0.32042   0.24360   0.00000  Uiso   1.00
N125   N     0.98241   0.18074   0.26416   0.00000  Uiso   1.00
H126   H     0.67046   0.20582   0.28961   0.00000  Uiso   1.00
N127   N     0.68426   0.15259   0.23584   0.00000  Uiso   1.00
H128   H     0.99619   0.12750   0.21041   0.00000  Uiso   1.00
F129   F     0.77804   0.16031   0.09027   0.00000  Uiso   1.00
Cl130  Cl    0.74348   0.06593   0.04312   0.00000  Uiso   1.00
F131   F     0.98514   0.07238   0.48272   0.00000  Uiso   1.00
F132   F     0.91516   0.01790   0.25783   0.00000  Uiso   1.00
O133   O     0.12797   0.57141   0.24633   0.00000  Uiso   1.00
O134   O     0.22858   0.58089   0.25586   0.00000  Uiso   1.00
C135   C     0.18178   0.59998   0.25156   0.00000  Uiso   1.00
O136   O     0.09181   0.49293   0.31839   0.00000  Uiso   1.00
O137   O     0.19242   0.50241   0.32793   0.00000  Uiso   1.00
C138   C     0.13344   0.49901   0.34713   0.00000  Uiso   1.00
Cu139  Cu    0.10710   0.49439   0.24435   0.00000  Uiso   1.00
Cu140  Cu    0.22623   0.50561   0.25564   0.00000  Uiso   1.00
O141   O     0.10476   0.41911   0.24413   0.00000  Uiso   1.00
O142   O     0.20536   0.42859   0.25367   0.00000  Uiso   1.00
O143   O     0.14092   0.49759   0.17207   0.00000  Uiso   1.00
O144   O     0.24152   0.50707   0.18160   0.00000  Uiso   1.00
C145   C     0.15169   0.39995   0.24853   0.00000  Uiso   1.00
C146   C     0.20021   0.50345   0.15299   0.00000  Uiso   1.00
C147   C     0.29889   0.53563   0.02299   0.00000  Uiso   1.00
H148   H     0.31951   0.53147   0.09646   0.00000  Uiso   1.00
H149   H     0.31136   0.57116   0.43053   0.00000  Uiso   1.00
H150   H     0.01399   0.55330   0.00650   0.00000  Uiso   1.00
C151   C     0.21951   0.50725   0.09758   0.00000  Uiso   1.00
C152   C     0.05365   0.46373   0.42160   0.00000  Uiso   1.00
C153   C     0.04089   0.44015   0.46825   0.00000  Uiso   1.00
C154   C     0.08722   0.44751   0.49741   0.00000  Uiso   1.00
C155   C     0.14429   0.48589   0.48352   0.00000  Uiso   1.00
C156   C     0.15822   0.50803   0.43479   0.00000  Uiso   1.00
C157   C     0.18965   0.50112   0.01497   0.00000  Uiso   1.00
C158   C     0.25205   0.52678   0.49386   0.00000  Uiso   1.00
C159   C     0.26519   0.54765   0.44580   0.00000  Uiso   1.00
C160   C     0.21737   0.54239   0.41881   0.00000  Uiso   1.00
C161   C     0.17296   0.49783   0.06777   0.00000  Uiso   1.00
C162   C     0.28296   0.52374   0.07431   0.00000  Uiso   1.00
C163   C     0.11375   0.49363   0.40255   0.00000  Uiso   1.00
H164   H     0.01864   0.45351   0.39802   0.00000  Uiso   1.00
H165   H     0.22795   0.56521   0.38499   0.00000  Uiso   1.00
C166   C     0.19090   0.65572   0.25240   0.00000  Uiso   1.00
C167   C     0.14368   0.34411   0.24788   0.00000  Uiso   1.00
H168   H     0.09806   0.65376   0.24360   0.00000  Uiso   1.00
N169   N     0.31574   0.51407   0.26416   0.00000  Uiso   1.00
H170   H     0.00380   0.53915   0.28961   0.00000  Uiso   1.00
N171   N     0.01759   0.48593   0.23584   0.00000  Uiso   1.00
H172   H     0.32952   0.46083   0.21041   0.00000  Uiso   1.00
F173   F     0.11137   0.49365   0.09027   0.00000  Uiso   1.00
Cl174  Cl    0.07681   0.39927   0.04312   0.00000  Uiso   1.00
F175   F     0.31848   0.40572   0.48272   0.00000  Uiso   1.00
F176   F     0.24849   0.35123   0.25783   0.00000  Uiso   1.00
O177   O     0.46131   0.57141   0.24633   0.00000  Uiso   1.00
O178   O     0.56191   0.58089   0.25586   0.00000  Uiso   1.00
C179   C     0.51512   0.59998   0.25156   0.00000  Uiso   1.00
O180   O     0.42515   0.49293   0.31839   0.00000  Uiso   1.00
O181   O     0.52575   0.50241   0.32793   0.00000  Uiso   1.00
C182   C     0.46678   0.49901   0.34713   0.00000  Uiso   1.00
Cu183  Cu    0.44043   0.49439   0.24435   0.00000  Uiso   1.00
Cu184  Cu    0.55957   0.50561   0.25564   0.00000  Uiso   1.00
O185   O     0.43809   0.41911   0.24413   0.00000  Uiso   1.00
O186   O     0.53869   0.42859   0.25367   0.00000  Uiso   1.00
O187   O     0.47425   0.49759   0.17207   0.00000  Uiso   1.00
O188   O     0.57485   0.50707   0.18160   0.00000  Uiso   1.00
C189   C     0.48502   0.39995   0.24853   0.00000  Uiso   1.00
C190   C     0.53354   0.50345   0.15299   0.00000  Uiso   1.00
C191   C     0.63223   0.53563   0.02299   0.00000  Uiso   1.00
H192   H     0.65285   0.53147   0.09646   0.00000  Uiso   1.00
H193   H     0.64470   0.57116   0.43053   0.00000  Uiso   1.00
H194   H     0.34732   0.55330   0.00650   0.00000  Uiso   1.00
C195   C     0.55284   0.50725   0.09758   0.00000  Uiso   1.00
C196   C     0.38698   0.46373   0.42160   0.00000  Uiso   1.00
C197   C     0.37423   0.44015   0.46825   0.00000  Uiso   1.00
C198   C     0.42056   0.44751   0.49741   0.00000  Uiso   1.00
C199   C     0.47762   0.48589   0.48352   0.00000  Uiso   1.00
C200   C     0.49156   0.50803   0.43479   0.00000  Uiso   1.00
C201   C     0.52298   0.50112   0.01497   0.00000  Uiso   1.00
C202   C     0.58539   0.52678   0.49386   0.00000  Uiso   1.00
C203   C     0.59852   0.54765   0.44580   0.00000  Uiso   1.00
C204   C     0.55070   0.54239   0.41881   0.00000  Uiso   1.00
C205   C     0.50629   0.49783   0.06777   0.00000  Uiso   1.00
C206   C     0.61630   0.52374   0.07431   0.00000  Uiso   1.00
C207   C     0.44708   0.49363   0.40255   0.00000  Uiso   1.00
H208   H     0.35197   0.45351   0.39802   0.00000  Uiso   1.00
H209   H     0.56129   0.56521   0.38499   0.00000  Uiso   1.00
C210   C     0.52423   0.65572   0.25240   0.00000  Uiso   1.00
C211   C     0.47702   0.34411   0.24788   0.00000  Uiso   1.00
H212   H     0.43139   0.65376   0.24360   0.00000  Uiso   1.00
N213   N     0.64908   0.51407   0.26416   0.00000  Uiso   1.00
H214   H     0.33713   0.53915   0.28961   0.00000  Uiso   1.00
N215   N     0.35092   0.48593   0.23584   0.00000  Uiso   1.00
H216   H     0.66285   0.46083   0.21041   0.00000  Uiso   1.00
F217   F     0.44471   0.49365   0.09027   0.00000  Uiso   1.00
Cl218  Cl    0.41015   0.39927   0.04312   0.00000  Uiso   1.00
F219   F     0.65181   0.40572   0.48272   0.00000  Uiso   1.00
F220   F     0.58183   0.35123   0.25783   0.00000  Uiso   1.00
O221   O     0.79464   0.57141   0.24633   0.00000  Uiso   1.00
O222   O     0.89524   0.58089   0.25586   0.00000  Uiso   1.00
C223   C     0.84845   0.59998   0.25156   0.00000  Uiso   1.00
O224   O     0.75848   0.49293   0.31839   0.00000  Uiso   1.00
O225   O     0.85908   0.50241   0.32793   0.00000  Uiso   1.00
C226   C     0.80011   0.49901   0.34713   0.00000  Uiso   1.00
Cu227  Cu    0.77377   0.49439   0.24435   0.00000  Uiso   1.00
Cu228  Cu    0.89290   0.50561   0.25564   0.00000  Uiso   1.00
O229   O     0.77142   0.41911   0.24413   0.00000  Uiso   1.00
O230   O     0.87203   0.42859   0.25367   0.00000  Uiso   1.00
O231   O     0.80758   0.49759   0.17207   0.00000  Uiso   1.00
O232   O     0.90819   0.50707   0.18160   0.00000  Uiso   1.00
C233   C     0.81836   0.39995   0.24853   0.00000  Uiso   1.00
C234   C     0.86688   0.50345   0.15299   0.00000  Uiso   1.00
C235   C     0.96556   0.53563   0.02299   0.00000  Uiso   1.00
H236   H     0.98618   0.53147   0.09646   0.00000  Uiso   1.00
H237   H     0.97803   0.57116   0.43053   0.00000  Uiso   1.00
H238   H     0.68065   0.55330   0.00650   0.00000  Uiso   1.00
C239   C     0.88618   0.50725   0.09758   0.00000  Uiso   1.00
C240   C     0.72032   0.46373   0.42160   0.00000  Uiso   1.00
C241   C     0.70756   0.44015   0.46825   0.00000  Uiso   1.00
C242   C     0.75389   0.44751   0.49741   0.00000  Uiso   1.00
C243   C     0.81096   0.48589   0.48352   0.00000  Uiso   1.00
C244   C     0.82489   0.50803   0.43479   0.00000  Uiso   1.00
C245   C     0.85632   0.50112   0.01497   0.00000  Uiso   1.00
C246   C     0.91872   0.52678   0.49386   0.00000  Uiso   1.00
C247   C     0.93186   0.54765   0.44580   0.00000  Uiso   1.00
C248   C     0.88403   0.54239   0.41881   0.00000  Uiso   1.00
C249   C     0.83963   0.49783   0.06777   0.00000  Uiso   1.00
C250   C     0.94963   0.52374   0.07431   0.00000  Uiso   1.00
C251   C     0.78041   0.49363   0.40255   0.00000  Uiso   1.00
H252   H     0.68531   0.45351   0.39802   0.00000  Uiso   1.00
H253   H     0.89462   0.56521   0.38499   0.00000  Uiso   1.00
C254   C     0.85756   0.65572   0.25240   0.00000  Uiso   1.00
C255   C     0.81035   0.34411   0.24788   0.00000  Uiso   1.00
H256   H     0.76473   0.65376   0.24360   0.00000  Uiso   1.00
N257   N     0.98241   0.51407   0.26416   0.00000  Uiso   1.00
H258   H     0.67046   0.53915   0.28961   0.00000  Uiso   1.00
N259   N     0.68426   0.48593   0.23584   0.00000  Uiso   1.00
H260   H     0.99619   0.46083   0.21041   0.00000  Uiso   1.00
F261   F     0.77804   0.49365   0.09027   0.00000  Uiso   1.00
Cl262  Cl    0.74348   0.39927   0.04312   0.00000  Uiso   1.00
F263   F     0.98514   0.40572   0.48272   0.00000  Uiso   1.00
F264   F     0.91516   0.35123   0.25783   0.00000  Uiso   1.00
O265   O     0.12797   0.90474   0.24633   0.00000  Uiso   1.00
O266   O     0.22858   0.91422   0.25586   0.00000  Uiso   1.00
C267   C     0.18178   0.93331   0.25156   0.00000  Uiso   1.00
O268   O     0.09181   0.82627   0.31839   0.00000  Uiso   1.00
O269   O     0.19242   0.83575   0.32793   0.00000  Uiso   1.00
C270   C     0.13344   0.83234   0.34713   0.00000  Uiso   1.00
Cu271  Cu    0.10710   0.82772   0.24435   0.00000  Uiso   1.00
Cu272  Cu    0.22623   0.83895   0.25564   0.00000  Uiso   1.00
O273   O     0.10476   0.75245   0.24413   0.00000  Uiso   1.00
O274   O     0.20536   0.76193   0.25367   0.00000  Uiso   1.00
O275   O     0.14092   0.83092   0.17207   0.00000  Uiso   1.00
O276   O     0.24152   0.84040   0.18160   0.00000  Uiso   1.00
C277   C     0.15169   0.73328   0.24853   0.00000  Uiso   1.00
C278   C     0.20021   0.83679   0.15299   0.00000  Uiso   1.00
C279   C     0.29889   0.86896   0.02299   0.00000  Uiso   1.00
H280   H     0.31951   0.86481   0.09646   0.00000  Uiso   1.00
H281   H     0.31136   0.90449   0.43053   0.00000  Uiso   1.00
H282   H     0.01399   0.88663   0.00650   0.00000  Uiso   1.00
C283   C     0.21951   0.84058   0.09758   0.00000  Uiso   1.00
C284   C     0.05365   0.79706   0.42160   0.00000  Uiso   1.00
C285   C     0.04089   0.77348   0.46825   0.00000  Uiso   1.00
C286   C     0.08722   0.78085   0.49741   0.00000  Uiso   1.00
C287   C     0.14429   0.81923   0.48352   0.00000  Uiso   1.00
C288   C     0.15822   0.84136   0.43479   0.00000  Uiso   1.00
C289   C     0.18965   0.83445   0.01497   0.00000  Uiso   1.00
C290   C     0.25205   0.86012   0.49386   0.00000  Uiso   1.00
C291   C     0.26519   0.88098   0.44580   0.00000  Uiso   1.00
C292   C     0.21737   0.87573   0.41881   0.00000  Uiso   1.00
C293   C     0.17296   0.83116   0.06777   0.00000  Uiso   1.00
C294   C     0.28296   0.85707   0.07431   0.00000  Uiso   1.00
C295   C     0.11375   0.82696   0.40255   0.00000  Uiso   1.00
H296   H     0.01864   0.78684   0.39802   0.00000  Uiso   1.00
H297   H     0.22795   0.89855   0.38499   0.00000  Uiso   1.00
C298   C     0.19090   0.98905   0.25240   0.00000  Uiso   1.00
C299   C     0.14368   0.67744   0.24788   0.00000  Uiso   1.00
H300   H     0.09806   0.98709   0.24360   0.00000  Uiso   1.00
N301   N     0.31574   0.84741   0.26416   0.00000  Uiso   1.00
H302   H     0.00380   0.87249   0.28961   0.00000  Uiso   1.00
N303   N     0.01759   0.81926   0.23584   0.00000  Uiso   1.00
H304   H     0.32952   0.79417   0.21041   0.00000  Uiso   1.00
F305   F     0.11137   0.82698   0.09027   0.00000  Uiso   1.00
Cl306  Cl    0.07681   0.73260   0.04312   0.00000  Uiso   1.00
F307   F     0.31848   0.73905   0.48272   0.00000  Uiso   1.00
F308   F     0.24849   0.68457   0.25783   0.00000  Uiso   1.00
O309   O     0.46131   0.90474   0.24633   0.00000  Uiso   1.00
O310   O     0.56191   0.91422   0.25586   0.00000  Uiso   1.00
C311   C     0.51512   0.93331   0.25156   0.00000  Uiso   1.00
O312   O     0.42515   0.82627   0.31839   0.00000  Uiso   1.00
O313   O     0.52575   0.83575   0.32793   0.00000  Uiso   1.00
C314   C     0.46678   0.83234   0.34713   0.00000  Uiso   1.00
Cu315  Cu    0.44043   0.82772   0.24435   0.00000  Uiso   1.00
Cu316  Cu    0.55957   0.83895   0.25564   0.00000  Uiso   1.00
O317   O     0.43809   0.75245   0.24413   0.00000  Uiso   1.00
O318   O     0.53869   0.76193   0.25367   0.00000  Uiso   1.00
O319   O     0.47425   0.83092   0.17207   0.00000  Uiso   1.00
O320   O     0.57485   0.84040   0.18160   0.00000  Uiso   1.00
C321   C     0.48502   0.73328   0.24853   0.00000  Uiso   1.00
C322   C     0.53354   0.83679   0.15299   0.00000  Uiso   1.00
C323   C     0.63223   0.86896   0.02299   0.00000  Uiso   1.00
H324   H     0.65285   0.86481   0.09646   0.00000  Uiso   1.00
H325   H     0.64470   0.90449   0.43053   0.00000  Uiso   1.00
H326   H     0.34732   0.88663   0.00650   0.00000  Uiso   1.00
C327   C     0.55284   0.84058   0.09758   0.00000  Uiso   1.00
C328   C     0.38698   0.79706   0.42160   0.00000  Uiso   1.00
C329   C     0.37423   0.77348   0.46825   0.00000  Uiso   1.00
C330   C     0.42056   0.78085   0.49741   0.00000  Uiso   1.00
C331   C     0.47762   0.81923   0.48352   0.00000  Uiso   1.00
C332   C     0.49156   0.84136   0.43479   0.00000  Uiso   1.00
C333   C     0.52298   0.83445   0.01497   0.00000  Uiso   1.00
C334   C     0.58539   0.86012   0.49386   0.00000  Uiso   1.00
C335   C     0.59852   0.88098   0.44580   0.00000  Uiso   1.00
C336   C     0.55070   0.87573   0.41881   0.00000  Uiso   1.00
C337   C     0.50629   0.83116   0.06777   0.00000  Uiso   1.00
C338   C     0.61630   0.85707   0.07431   0.00000  Uiso   1.00
C339   C     0.44708   0.82696   0.40255   0.00000  Uiso   1.00
H340   H     0.35197   0.78684   0.39802   0.00000  Uiso   1.00
H341   H     0.56129   0.89855   0.38499   0.00000  Uiso   1.00
C342   C     0.52423   0.98905   0.25240   0.00000  Uiso   1.00
C343   C     0.47702   0.67744   0.24788   0.00000  Uiso   1.00
H344   H     0.43139   0.98709   0.24360   0.00000  Uiso   1.00
N345   N     0.64908   0.84741   0.26416   0.00000  Uiso   1.00
H346   H     0.33713   0.87249   0.28961   0.00000  Uiso   1.00
N347   N     0.35092   0.81926   0.23584   0.00000  Uiso   1.00
H348   H     0.66285   0.79417   0.21041   0.00000  Uiso   1.00
F349   F     0.44471   0.82698   0.09027   0.00000  Uiso   1.00
Cl350  Cl    0.41015   0.73260   0.04312   0.00000  Uiso   1.00
F351   F     0.65181   0.73905   0.48272   0.00000  Uiso   1.00
F352   F     0.58183   0.68457   0.25783   0.00000  Uiso   1.00
O353   O     0.79464   0.90474   0.24633   0.00000  Uiso   1.00
O354   O     0.89524   0.91422   0.25586   0.00000  Uiso   1.00
C355   C     0.84845   0.93331   0.25156   0.00000  Uiso   1.00
O356   O     0.75848   0.82627   0.31839   0.00000  Uiso   1.00
O357   O     0.85908   0.83575   0.32793   0.00000  Uiso   1.00
C358   C     0.80011   0.83234   0.34713   0.00000  Uiso   1.00
Cu359  Cu    0.77377   0.82772   0.24435   0.00000  Uiso   1.00
Cu360  Cu    0.89290   0.83895   0.25564   0.00000  Uiso   1.00
O361   O     0.77142   0.75245   0.24413   0.00000  Uiso   1.00
O362   O     0.87203   0.76193   0.25367   0.00000  Uiso   1.00
O363   O     0.80758   0.83092   0.17207   0.00000  Uiso   1.00
O364   O     0.90819   0.84040   0.18160   0.00000  Uiso   1.00
C365   C     0.81836   0.73328   0.24853   0.00000  Uiso   1.00
C366   C     0.86688   0.83679   0.15299   0.00000  Uiso   1.00
C367   C     0.96556   0.86896   0.02299   0.00000  Uiso   1.00
H368   H     0.98618   0.86481   0.09646   0.00000  Uiso   1.00
H369   H     0.97803   0.90449   0.43053   0.00000  Uiso   1.00
H370   H     0.68065   0.88663   0.00650   0.00000  Uiso   1.00
C371   C     0.88618   0.84058   0.09758   0.00000  Uiso   1.00
C372   C     0.72032   0.79706   0.42160   0.00000  Uiso   1.00
C373   C     0.70756   0.77348   0.46825   0.00000  Uiso   1.00
C374   C     0.75389   0.78085   0.49741   0.00000  Uiso   1.00
C375   C     0.81096   0.81923   0.48352   0.00000  Uiso   1.00
C376   C     0.82489   0.84136   0.43479   0.00000  Uiso   1.00
C377   C     0.85632   0.83445   0.01497   0.00000  Uiso   1.00
C378   C     0.91872   0.86012   0.49386   0.00000  Uiso   1.00
C379   C     0.93186   0.88098   0.44580   0.00000  Uiso   1.00
C380   C     0.88403   0.87573   0.41881   0.00000  Uiso   1.00
C381   C     0.83963   0.83116   0.06777   0.00000  Uiso   1.00
C382   C     0.94963   0.85707   0.07431   0.00000  Uiso   1.00
C383   C     0.78041   0.82696   0.40255   0.00000  Uiso   1.00
H384   H     0.68531   0.78684   0.39802   0.00000  Uiso   1.00
H385   H     0.89462   0.89855   0.38499   0.00000  Uiso   1.00
C386   C     0.85756   0.98905   0.25240   0.00000  Uiso   1.00
C387   C     0.81035   0.67744   0.24788   0.00000  Uiso   1.00
H388   H     0.76473   0.98709   0.24360   0.00000  Uiso   1.00
N389   N     0.98241   0.84741   0.26416   0.00000  Uiso   1.00
H390   H     0.67046   0.87249   0.28961   0.00000  Uiso   1.00
N391   N     0.68426   0.81926   0.23584   0.00000  Uiso   1.00
H392   H     0.99619   0.79417   0.21041   0.00000  Uiso   1.00
F393   F     0.77804   0.82698   0.09027   0.00000  Uiso   1.00
Cl394  Cl    0.74348   0.73260   0.04312   0.00000  Uiso   1.00
F395   F     0.98514   0.73905   0.48272   0.00000  Uiso   1.00
F396   F     0.91516   0.68457   0.25783   0.00000  Uiso   1.00
O397   O     0.12797   0.23807   0.74633   0.00000  Uiso   1.00
O398   O     0.22858   0.24755   0.75586   0.00000  Uiso   1.00
C399   C     0.18178   0.26664   0.75156   0.00000  Uiso   1.00
O400   O     0.09181   0.15960   0.81839   0.00000  Uiso   1.00
O401   O     0.19242   0.16908   0.82793   0.00000  Uiso   1.00
C402   C     0.13344   0.16568   0.84713   0.00000  Uiso   1.00
Cu403  Cu    0.10710   0.16105   0.74435   0.00000  Uiso   1.00
Cu404  Cu    0.22623   0.17228   0.75564   0.00000  Uiso   1.00
O405   O     0.10476   0.08578   0.74413   0.00000  Uiso   1.00
O406   O     0.20536   0.09526   0.75367   0.00000  Uiso   1.00
O407   O     0.14092   0.16425   0.67207   0.00000  Uiso   1.00
O408   O     0.24152   0.17373   0.68160   0.00000  Uiso   1.00
C409   C     0.15169   0.06662   0.74853   0.00000  Uiso   1.00
C410   C     0.20021   0.17012   0.65299   0.00000  Uiso   1.00
C411   C     0.29889   0.20229   0.52299   0.00000  Uiso   1.00
H412   H     0.31951   0.19814   0.59646   0.00000  Uiso   1.00
H413   H     0.31136   0.23783   0.93053   0.00000  Uiso   1.00
H414   H     0.01399   0.21997   0.50650   0.00000  Uiso   1.00
C415   C     0.21951   0.17392   0.59758   0.00000  Uiso   1.00
C416   C     0.05365   0.13040   0.92160   0.00000  Uiso   1.00
C417   C     0.04089   0.10682   0.96825   0.00000  Uiso   1.00
C418   C     0.08722   0.11418   0.99741   0.00000  Uiso   1.00
C419   C     0.14429   0.15256   0.98352   0.00000  Uiso   1.00
C420   C     0.15822   0.17469   0.93479   0.00000  Uiso   1.00
C421   C     0.18965   0.16779   0.51497   0.00000  Uiso   1.00
C422   C     0.25205   0.19345   0.99386   0.00000  Uiso   1.00
C423   C     0.26519   0.21432   0.94580   0.00000  Uiso   1.00
C424   C     0.21737   0.20906   0.91881   0.00000  Uiso   1.00
C425   C     0.17296   0.16450   0.56777   0.00000  Uiso   1.00
C426   C     0.28296   0.19041   0.57431   0.00000  Uiso   1.00
C427   C     0.11375   0.16030   0.90255   0.00000  Uiso   1.00
H428   H     0.01864   0.12018   0.89802   0.00000  Uiso   1.00
H429   H     0.22795   0.23188   0.88499   0.00000  Uiso   1.00
C430   C     0.19090   0.32239   0.75240   0.00000  Uiso   1.00
C431   C     0.14368   0.01077   0.74788   0.00000  Uiso   1.00
H432   H     0.09806   0.32042   0.74360   0.00000  Uiso   1.00
N433   N     0.31574   0.18074   0.76416   0.00000  Uiso   1.00
H434   H     0.00380   0.20582   0.78961   0.00000  Uiso   1.00
N435   N     0.01759   0.15259   0.73584   0.00000  Uiso   1.00
H436   H     0.32952   0.12750   0.71041   0.00000  Uiso   1.00
F437   F     0.11137   0.16031   0.59027   0.00000  Uiso   1.00
Cl438  Cl    0.07681   0.06593   0.54312   0.00000  Uiso   1.00
F439   F     0.31848   0.07238   0.98272   0.00000  Uiso   1.00
F440   F     0.24849   0.01790   0.75783   0.00000  Uiso   1.00
O441   O     0.46131   0.23807   0.74633   0.00000  Uiso   1.00
O442   O     0.56191   0.24755   0.75586   0.00000  Uiso   1.00
C443   C     0.51512   0.26664   0.75156   0.00000  Uiso   1.00
O444   O     0.42515   0.15960   0.81839   0.00000  Uiso   1.00
O445   O     0.52575   0.16908   0.82793   0.00000  Uiso   1.00
C446   C     0.46678   0.16568   0.84713   0.00000  Uiso   1.00
Cu447  Cu    0.44043   0.16105   0.74435   0.00000  Uiso   1.00
Cu448  Cu    0.55957   0.17228   0.75564   0.00000  Uiso   1.00
O449   O     0.43809   0.08578   0.74413   0.00000  Uiso   1.00
O450   O     0.53869   0.09526   0.75367   0.00000  Uiso   1.00
O451   O     0.47425   0.16425   0.67207   0.00000  Uiso   1.00
O452   O     0.57485   0.17373   0.68160   0.00000  Uiso   1.00
C453   C     0.48502   0.06662   0.74853   0.00000  Uiso   1.00
C454   C     0.53354   0.17012   0.65299   0.00000  Uiso   1.00
C455   C     0.63223   0.20229   0.52299   0.00000  Uiso   1.00
H456   H     0.65285   0.19814   0.59646   0.00000  Uiso   1.00
H457   H     0.64470   0.23783   0.93053   0.00000  Uiso   1.00
H458   H     0.34732   0.21997   0.50650   0.00000  Uiso   1.00
C459   C     0.55284   0.17392   0.59758   0.00000  Uiso   1.00
C460   C     0.38698   0.13040   0.92160   0.00000  Uiso   1.00
C461   C     0.37423   0.10682   0.96825   0.00000  Uiso   1.00
C462   C     0.42056   0.11418   0.99741   0.00000  Uiso   1.00
C463   C     0.47762   0.15256   0.98352   0.00000  Uiso   1.00
C464   C     0.49156   0.17469   0.93479   0.00000  Uiso   1.00
C465   C     0.52298   0.16779   0.51497   0.00000  Uiso   1.00
C466   C     0.58539   0.19345   0.99386   0.00000  Uiso   1.00
C467   C     0.59852   0.21432   0.94580   0.00000  Uiso   1.00
C468   C     0.55070   0.20906   0.91881   0.00000  Uiso   1.00
C469   C     0.50629   0.16450   0.56777   0.00000  Uiso   1.00
C470   C     0.61630   0.19041   0.57431   0.00000  Uiso   1.00
C471   C     0.44708   0.16030   0.90255   0.00000  Uiso   1.00
H472   H     0.35197   0.12018   0.89802   0.00000  Uiso   1.00
H473   H     0.56129   0.23188   0.88499   0.00000  Uiso   1.00
C474   C     0.52423   0.32239   0.75240   0.00000  Uiso   1.00
C475   C     0.47702   0.01077   0.74788   0.00000  Uiso   1.00
H476   H     0.43139   0.32042   0.74360   0.00000  Uiso   1.00
N477   N     0.64908   0.18074   0.76416   0.00000  Uiso   1.00
H478   H     0.33713   0.20582   0.78961   0.00000  Uiso   1.00
N479   N     0.35092   0.15259   0.73584   0.00000  Uiso   1.00
H480   H     0.66285   0.12750   0.71041   0.00000  Uiso   1.00
F481   F     0.44471   0.16031   0.59027   0.00000  Uiso   1.00
Cl482  Cl    0.41015   0.06593   0.54312   0.00000  Uiso   1.00
F483   F     0.65181   0.07238   0.98272   0.00000  Uiso   1.00
F484   F     0.58183   0.01790   0.75783   0.00000  Uiso   1.00
O485   O     0.79464   0.23807   0.74633   0.00000  Uiso   1.00
O486   O     0.89524   0.24755   0.75586   0.00000  Uiso   1.00
C487   C     0.84845   0.26664   0.75156   0.00000  Uiso   1.00
O488   O     0.75848   0.15960   0.81839   0.00000  Uiso   1.00
O489   O     0.85908   0.16908   0.82793   0.00000  Uiso   1.00
C490   C     0.80011   0.16568   0.84713   0.00000  Uiso   1.00
Cu491  Cu    0.77377   0.16105   0.74435   0.00000  Uiso   1.00
Cu492  Cu    0.89290   0.17228   0.75564   0.00000  Uiso   1.00
O493   O     0.77142   0.08578   0.74413   0.00000  Uiso   1.00
O494   O     0.87203   0.09526   0.75367   0.00000  Uiso   1.00
O495   O     0.80758   0.16425   0.67207   0.00000  Uiso   1.00
O496   O     0.90819   0.17373   0.68160   0.00000  Uiso   1.00
C497   C     0.81836   0.06662   0.74853   0.00000  Uiso   1.00
C498   C     0.86688   0.17012   0.65299   0.00000  Uiso   1.00
C499   C     0.96556   0.20229   0.52299   0.00000  Uiso   1.00
H500   H     0.98618   0.19814   0.59646   0.00000  Uiso   1.00
H501   H     0.97803   0.23783   0.93053   0.00000  Uiso   1.00
H502   H     0.68065   0.21997   0.50650   0.00000  Uiso   1.00
C503   C     0.88618   0.17392   0.59758   0.00000  Uiso   1.00
C504   C     0.72032   0.13040   0.92160   0.00000  Uiso   1.00
C505   C     0.70756   0.10682   0.96825   0.00000  Uiso   1.00
C506   C     0.75389   0.11418   0.99741   0.00000  Uiso   1.00
C507   C     0.81096   0.15256   0.98352   0.00000  Uiso   1.00
C508   C     0.82489   0.17469   0.93479   0.00000  Uiso   1.00
C509   C     0.85632   0.16779   0.51497   0.00000  Uiso   1.00
C510   C     0.91872   0.19345   0.99386   0.00000  Uiso   1.00
C511   C     0.93186   0.21432   0.94580   0.00000  Uiso   1.00
C512   C     0.88403   0.20906   0.91881   0.00000  Uiso   1.00
C513   C     0.83963   0.16450   0.56777   0.00000  Uiso   1.00
C514   C     0.94963   0.19041   0.57431   0.00000  Uiso   1.00
C515   C     0.78041   0.16030   0.90255   0.00000  Uiso   1.00
H516   H     0.68531   0.12018   0.89802   0.00000  Uiso   1.00
H517   H     0.89462   0.23188   0.88499   0.00000  Uiso   1.00
C518   C     0.85756   0.32239   0.75240   0.00000  Uiso   1.00
C519   C     0.81035   0.01077   0.74788   0.00000  Uiso   1.00
H520   H     0.76473   0.32042   0.74360   0.00000  Uiso   1.00
N521   N     0.98241   0.18074   0.76416   0.00000  Uiso   1.00
H522   H     0.67046   0.20582   0.78961   0.00000  Uiso   1.00
N523   N     0.68426   0.15259   0.73584   0.00000  Uiso   1.00
H524   H     0.99619   0.12750   0.71041   0.00000  Uiso   1.00
F525   F     0.77804   0.16031   0.59027   0.00000  Uiso   1.00
Cl526  Cl    0.74348   0.06593   0.54312   0.00000  Uiso   1.00
F527   F     0.98514   0.07238   0.98272   0.00000  Uiso   1.00
F528   F     0.91516   0.01790   0.75783   0.00000  Uiso   1.00
O529   O     0.12797   0.57141   0.74633   0.00000  Uiso   1.00
O530   O     0.22858   0.58089   0.75586   0.00000  Uiso   1.00
C531   C     0.18178   0.59998   0.75156   0.00000  Uiso   1.00
O532   O     0.09181   0.49293   0.81839   0.00000  Uiso   1.00
O533   O     0.19242   0.50241   0.82793   0.00000  Uiso   1.00
C534   C     0.13344   0.49901   0.84713   0.00000  Uiso   1.00
Cu535  Cu    0.10710   0.49439   0.74435   0.00000  Uiso   1.00
Cu536  Cu    0.22623   0.50561   0.75564   0.00000  Uiso   1.00
O537   O     0.10476   0.41911   0.74413   0.00000  Uiso   1.00
O538   O     0.20536   0.42859   0.75367   0.00000  Uiso   1.00
O539   O     0.14092   0.49759   0.67207   0.00000  Uiso   1.00
O540   O     0.24152   0.50707   0.68160   0.00000  Uiso   1.00
C541   C     0.15169   0.39995   0.74853   0.00000  Uiso   1.00
C542   C     0.20021   0.50345   0.65299   0.00000  Uiso   1.00
C543   C     0.29889   0.53563   0.52299   0.00000  Uiso   1.00
H544   H     0.31951   0.53147   0.59646   0.00000  Uiso   1.00
H545   H     0.31136   0.57116   0.93053   0.00000  Uiso   1.00
H546   H     0.01399   0.55330   0.50650   0.00000  Uiso   1.00
C547   C     0.21951   0.50725   0.59758   0.00000  Uiso   1.00
C548   C     0.05365   0.46373   0.92160   0.00000  Uiso   1.00
C549   C     0.04089   0.44015   0.96825   0.00000  Uiso   1.00
C550   C     0.08722   0.44751   0.99741   0.00000  Uiso   1.00
C551   C     0.14429   0.48589   0.98352   0.00000  Uiso   1.00
C552   C     0.15822   0.50803   0.93479   0.00000  Uiso   1.00
C553   C     0.18965   0.50112   0.51497   0.00000  Uiso   1.00
C554   C     0.25205   0.52678   0.99386   0.00000  Uiso   1.00
C555   C     0.26519   0.54765   0.94580   0.00000  Uiso   1.00
C556   C     0.21737   0.54239   0.91881   0.00000  Uiso   1.00
C557   C     0.17296   0.49783   0.56777   0.00000  Uiso   1.00
C558   C     0.28296   0.52374   0.57431   0.00000  Uiso   1.00
C559   C     0.11375   0.49363   0.90255   0.00000  Uiso   1.00
H560   H     0.01864   0.45351   0.89802   0.00000  Uiso   1.00
H561   H     0.22795   0.56521   0.88499   0.00000  Uiso   1.00
C562   C     0.19090   0.65572   0.75240   0.00000  Uiso   1.00
C563   C     0.14368   0.34411   0.74788   0.00000  Uiso   1.00
H564   H     0.09806   0.65376   0.74360   0.00000  Uiso   1.00
N565   N     0.31574   0.51407   0.76416   0.00000  Uiso   1.00
H566   H     0.00380   0.53915   0.78961   0.00000  Uiso   1.00
N567   N     0.01759   0.48593   0.73584   0.00000  Uiso   1.00
H568   H     0.32952   0.46083   0.71041   0.00000  Uiso   1.00
F569   F     0.11137   0.49365   0.59027   0.00000  Uiso   1.00
Cl570  Cl    0.07681   0.39927   0.54312   0.00000  Uiso   1.00
F571   F     0.31848   0.40572   0.98272   0.00000  Uiso   1.00
F572   F     0.24849   0.35123   0.75783   0.00000  Uiso   1.00
O573   O     0.46131   0.57141   0.74633   0.00000  Uiso   1.00
O574   O     0.56191   0.58089   0.75586   0.00000  Uiso   1.00
C575   C     0.51512   0.59998   0.75156   0.00000  Uiso   1.00
O576   O     0.42515   0.49293   0.81839   0.00000  Uiso   1.00
O577   O     0.52575   0.50241   0.82793   0.00000  Uiso   1.00
C578   C     0.46678   0.49901   0.84713   0.00000  Uiso   1.00
Cu579  Cu    0.44043   0.49439   0.74435   0.00000  Uiso   1.00
Cu580  Cu    0.55957   0.50561   0.75564   0.00000  Uiso   1.00
O581   O     0.43809   0.41911   0.74413   0.00000  Uiso   1.00
O582   O     0.53869   0.42859   0.75367   0.00000  Uiso   1.00
O583   O     0.47425   0.49759   0.67207   0.00000  Uiso   1.00
O584   O     0.57485   0.50707   0.68160   0.00000  Uiso   1.00
C585   C     0.48502   0.39995   0.74853   0.00000  Uiso   1.00
C586   C     0.53354   0.50345   0.65299   0.00000  Uiso   1.00
C587   C     0.63223   0.53563   0.52299   0.00000  Uiso   1.00
H588   H     0.65285   0.53147   0.59646   0.00000  Uiso   1.00
H589   H     0.64470   0.57116   0.93053   0.00000  Uiso   1.00
H590   H     0.34732   0.55330   0.50650   0.00000  Uiso   1.00
C591   C     0.55284   0.50725   0.59758   0.00000  Uiso   1.00
C592   C     0.38698   0.46373   0.92160   0.00000  Uiso   1.00
C593   C     0.37423   0.44015   0.96825   0.00000  Uiso   1.00
C594   C     0.42056   0.44751   0.99741   0.00000  Uiso   1.00
C595   C     0.47762   0.48589   0.98352   0.00000  Uiso   1.00
C596   C     0.49156   0.50803   0.93479   0.00000  Uiso   1.00
C597   C     0.52298   0.50112   0.51497   0.00000  Uiso   1.00
C598   C     0.58539   0.52678   0.99386   0.00000  Uiso   1.00
C599   C     0.59852   0.54765   0.94580   0.00000  Uiso   1.00
C600   C     0.55070   0.54239   0.91881   0.00000  Uiso   1.00
C601   C     0.50629   0.49783   0.56777   0.00000  Uiso   1.00
C602   C     0.61630   0.52374   0.57431   0.00000  Uiso   1.00
C603   C     0.44708   0.49363   0.90255   0.00000  Uiso   1.00
H604   H     0.35197   0.45351   0.89802   0.00000  Uiso   1.00
H605   H     0.56129   0.56521   0.88499   0.00000  Uiso   1.00
C606   C     0.52423   0.65572   0.75240   0.00000  Uiso   1.00
C607   C     0.47702   0.34411   0.74788   0.00000  Uiso   1.00
H608   H     0.43139   0.65376   0.74360   0.00000  Uiso   1.00
N609   N     0.64908   0.51407   0.76416   0.00000  Uiso   1.00
H610   H     0.33713   0.53915   0.78961   0.00000  Uiso   1.00
N611   N     0.35092   0.48593   0.73584   0.00000  Uiso   1.00
H612   H     0.66285   0.46083   0.71041   0.00000  Uiso   1.00
F613   F     0.44471   0.49365   0.59027   0.00000  Uiso   1.00
Cl614  Cl    0.41015   0.39927   0.54312   0.00000  Uiso   1.00
F615   F     0.65181   0.40572   0.98272   0.00000  Uiso   1.00
F616   F     0.58183   0.35123   0.75783   0.00000  Uiso   1.00
O617   O     0.79464   0.57141   0.74633   0.00000  Uiso   1.00
O618   O     0.89524   0.58089   0.75586   0.00000  Uiso   1.00
C619   C     0.84845   0.59998   0.75156   0.00000  Uiso   1.00
O620   O     0.75848   0.49293   0.81839   0.00000  Uiso   1.00
O621   O     0.85908   0.50241   0.82793   0.00000  Uiso   1.00
C622   C     0.80011   0.49901   0.84713   0.00000  Uiso   1.00
Cu623  Cu    0.77377   0.49439   0.74435   0.00000  Uiso   1.00
Cu624  Cu    0.89290   0.50561   0.75564   0.00000  Uiso   1.00
O625   O     0.77142   0.41911   0.74413   0.00000  Uiso   1.00
O626   O     0.87203   0.42859   0.75367   0.00000  Uiso   1.00
O627   O     0.80758   0.49759   0.67207   0.00000  Uiso   1.00
O628   O     0.90819   0.50707   0.68160   0.00000  Uiso   1.00
C629   C     0.81836   0.39995   0.74853   0.00000  Uiso   1.00
C630   C     0.86688   0.50345   0.65299   0.00000  Uiso   1.00
C631   C     0.96556   0.53563   0.52299   0.00000  Uiso   1.00
H632   H     0.98618   0.53147   0.59646   0.00000  Uiso   1.00
H633   H     0.97803   0.57116   0.93053   0.00000  Uiso   1.00
H634   H     0.68065   0.55330   0.50650   0.00000  Uiso   1.00
C635   C     0.88618   0.50725   0.59758   0.00000  Uiso   1.00
C636   C     0.72032   0.46373   0.92160   0.00000  Uiso   1.00
C637   C     0.70756   0.44015   0.96825   0.00000  Uiso   1.00
C638   C     0.75389   0.44751   0.99741   0.00000  Uiso   1.00
C639   C     0.81096   0.48589   0.98352   0.00000  Uiso   1.00
C640   C     0.82489   0.50803   0.93479   0.00000  Uiso   1.00
C641   C     0.85632   0.50112   0.51497   0.00000  Uiso   1.00
C642   C     0.91872   0.52678   0.99386   0.00000  Uiso   1.00
C643   C     0.93186   0.54765   0.94580   0.00000  Uiso   1.00
C644   C     0.88403   0.54239   0.91881   0.00000  Uiso   1.00
C645   C     0.83963   0.49783   0.56777   0.00000  Uiso   1.00
C646   C     0.94963   0.52374   0.57431   0.00000  Uiso   1.00
C647   C     0.78041   0.49363   0.90255   0.00000  Uiso   1.00
H648   H     0.68531   0.45351   0.89802   0.00000  Uiso   1.00
H649   H     0.89462   0.56521   0.88499   0.00000  Uiso   1.00
C650   C     0.85756   0.65572   0.75240   0.00000  Uiso   1.00
C651   C     0.81035   0.34411   0.74788   0.00000  Uiso   1.00
H652   H     0.76473   0.65376   0.74360   0.00000  Uiso   1.00
N653   N     0.98241   0.51407   0.76416   0.00000  Uiso   1.00
H654   H     0.67046   0.53915   0.78961   0.00000  Uiso   1.00
N655   N     0.68426   0.48593   0.73584   0.00000  Uiso   1.00
H656   H     0.99619   0.46083   0.71041   0.00000  Uiso   1.00
F657   F     0.77804   0.49365   0.59027   0.00000  Uiso   1.00
Cl658  Cl    0.74348   0.39927   0.54312   0.00000  Uiso   1.00
F659   F     0.98514   0.40572   0.98272   0.00000  Uiso   1.00
F660   F     0.91516   0.35123   0.75783   0.00000  Uiso   1.00
O661   O     0.12797   0.90474   0.74633   0.00000  Uiso   1.00
O662   O     0.22858   0.91422   0.75586   0.00000  Uiso   1.00
C663   C     0.18178   0.93331   0.75156   0.00000  Uiso   1.00
O664   O     0.09181   0.82627   0.81839   0.00000  Uiso   1.00
O665   O     0.19242   0.83575   0.82793   0.00000  Uiso   1.00
C666   C     0.13344   0.83234   0.84713   0.00000  Uiso   1.00
Cu667  Cu    0.10710   0.82772   0.74435   0.00000  Uiso   1.00
Cu668  Cu    0.22623   0.83895   0.75564   0.00000  Uiso   1.00
O669   O     0.10476   0.75245   0.74413   0.00000  Uiso   1.00
O670   O     0.20536   0.76193   0.75367   0.00000  Uiso   1.00
O671   O     0.14092   0.83092   0.67207   0.00000  Uiso   1.00
O672   O     0.24152   0.84040   0.68160   0.00000  Uiso   1.00
C673   C     0.15169   0.73328   0.74853   0.00000  Uiso   1.00
C674   C     0.20021   0.83679   0.65299   0.00000  Uiso   1.00
C675   C     0.29889   0.86896   0.52299   0.00000  Uiso   1.00
H676   H     0.31951   0.86481   0.59646   0.00000  Uiso   1.00
H677   H     0.31136   0.90449   0.93053   0.00000  Uiso   1.00
H678   H     0.01399   0.88663   0.50650   0.00000  Uiso   1.00
C679   C     0.21951   0.84058   0.59758   0.00000  Uiso   1.00
C680   C     0.05365   0.79706   0.92160   0.00000  Uiso   1.00
C681   C     0.04089   0.77348   0.96825   0.00000  Uiso   1.00
C682   C     0.08722   0.78085   0.99741   0.00000  Uiso   1.00
C683   C     0.14429   0.81923   0.98352   0.00000  Uiso   1.00
C684   C     0.15822   0.84136   0.93479   0.00000  Uiso   1.00
C685   C     0.18965   0.83445   0.51497   0.00000  Uiso   1.00
C686   C     0.25205   0.86012   0.99386   0.00000  Uiso   1.00
C687   C     0.26519   0.88098   0.94580   0.00000  Uiso   1.00
C688   C     0.21737   0.87573   0.91881   0.00000  Uiso   1.00
C689   C     0.17296   0.83116   0.56777   0.00000  Uiso   1.00
C690   C     0.28296   0.85707   0.57431   0.00000  Uiso   1.00
C691   C     0.11375   0.82696   0.90255   0.00000  Uiso   1.00
H692   H     0.01864   0.78684   0.89802   0.00000  Uiso   1.00
H693   H     0.22795   0.89855   0.88499   0.00000  Uiso   1.00
C694   C     0.19090   0.98905   0.75240   0.00000  Uiso   1.00
C695   C     0.14368   0.67744   0.74788   0.00000  Uiso   1.00
H696   H     0.09806   0.98709   0.74360   0.00000  Uiso   1.00
N697   N     0.31574   0.84741   0.76416   0.00000  Uiso   1.00
H698   H     0.00380   0.87249   0.78961   0.00000  Uiso   1.00
N699   N     0.01759   0.81926   0.73584   0.00000  Uiso   1.00
H700   H     0.32952   0.79417   0.71041   0.00000  Uiso   1.00
F701   F     0.11137   0.82698   0.59027   0.00000  Uiso   1.00
Cl702  Cl    0.07681   0.73260   0.54312   0.00000  Uiso   1.00
F703   F     0.31848   0.73905   0.98272   0.00000  Uiso   1.00
F704   F     0.24849   0.68457   0.75783   0.00000  Uiso   1.00
O705   O     0.46131   0.90474   0.74633   0.00000  Uiso   1.00
O706   O     0.56191   0.91422   0.75586   0.00000  Uiso   1.00
C707   C     0.51512   0.93331   0.75156   0.00000  Uiso   1.00
O708   O     0.42515   0.82627   0.81839   0.00000  Uiso   1.00
O709   O     0.52575   0.83575   0.82793   0.00000  Uiso   1.00
C710   C     0.46678   0.83234   0.84713   0.00000  Uiso   1.00
Cu711  Cu    0.44043   0.82772   0.74435   0.00000  Uiso   1.00
Cu712  Cu    0.55957   0.83895   0.75564   0.00000  Uiso   1.00
O713   O     0.43809   0.75245   0.74413   0.00000  Uiso   1.00
O714   O     0.53869   0.76193   0.75367   0.00000  Uiso   1.00
O715   O     0.47425   0.83092   0.67207   0.00000  Uiso   1.00
O716   O     0.57485   0.84040   0.68160   0.00000  Uiso   1.00
C717   C     0.48502   0.73328   0.74853   0.00000  Uiso   1.00
C718   C     0.53354   0.83679   0.65299   0.00000  Uiso   1.00
C719   C     0.63223   0.86896   0.52299   0.00000  Uiso   1.00
H720   H     0.65285   0.86481   0.59646   0.00000  Uiso   1.00
H721   H     0.64470   0.90449   0.93053   0.00000  Uiso   1.00
H722   H     0.34732   0.88663   0.50650   0.00000  Uiso   1.00
C723   C     0.55284   0.84058   0.59758   0.00000  Uiso   1.00
C724   C     0.38698   0.79706   0.92160   0.00000  Uiso   1.00
C725   C     0.37423   0.77348   0.96825   0.00000  Uiso   1.00
C726   C     0.42056   0.78085   0.99741   0.00000  Uiso   1.00
C727   C     0.47762   0.81923   0.98352   0.00000  Uiso   1.00
C728   C     0.49156   0.84136   0.93479   0.00000  Uiso   1.00
C729   C     0.52298   0.83445   0.51497   0.00000  Uiso   1.00
C730   C     0.58539   0.86012   0.99386   0.00000  Uiso   1.00
C731   C     0.59852   0.88098   0.94580   0.00000  Uiso   1.00
C732   C     0.55070   0.87573   0.91881   0.00000  Uiso   1.00
C733   C     0.50629   0.83116   0.56777   0.00000  Uiso   1.00
C734   C     0.61630   0.85707   0.57431   0.00000  Uiso   1.00
C735   C     0.44708   0.82696   0.90255   0.00000  Uiso   1.00
H736   H     0.35197   0.78684   0.89802   0.00000  Uiso   1.00
H737   H     0.56129   0.89855   0.88499   0.00000  Uiso   1.00
C738   C     0.52423   0.98905   0.75240   0.00000  Uiso   1.00
C739   C     0.47702   0.67744   0.74788   0.00000  Uiso   1.00
H740   H     0.43139   0.98709   0.74360   0.00000  Uiso   1.00
N741   N     0.64908   0.84741   0.76416   0.00000  Uiso   1.00
H742   H     0.33713   0.87249   0.78961   0.00000  Uiso   1.00
N743   N     0.35092   0.81926   0.73584   0.00000  Uiso   1.00
H744   H     0.66285   0.79417   0.71041   0.00000  Uiso   1.00
F745   F     0.44471   0.82698   0.59027   0.00000  Uiso   1.00
Cl746  Cl    0.41015   0.73260   0.54312   0.00000  Uiso   1.00
F747   F     0.65181   0.73905   0.98272   0.00000  Uiso   1.00
F748   F     0.58183   0.68457   0.75783   0.00000  Uiso   1.00
O749   O     0.79464   0.90474   0.74633   0.00000  Uiso   1.00
O750   O     0.89524   0.91422   0.75586   0.00000  Uiso   1.00
C751   C     0.84845   0.93331   0.75156   0.00000  Uiso   1.00
O752   O     0.75848   0.82627   0.81839   0.00000  Uiso   1.00
O753   O     0.85908   0.83575   0.82793   0.00000  Uiso   1.00
C754   C     0.80011   0.83234   0.84713   0.00000  Uiso   1.00
Cu755  Cu    0.77377   0.82772   0.74435   0.00000  Uiso   1.00
Cu756  Cu    0.89290   0.83895   0.75564   0.00000  Uiso   1.00
O757   O     0.77142   0.75245   0.74413   0.00000  Uiso   1.00
O758   O     0.87203   0.76193   0.75367   0.00000  Uiso   1.00
O759   O     0.80758   0.83092   0.67207   0.00000  Uiso   1.00
O760   O     0.90819   0.84040   0.68160   0.00000  Uiso   1.00
C761   C     0.81836   0.73328   0.74853   0.00000  Uiso   1.00
C762   C     0.86688   0.83679   0.65299   0.00000  Uiso   1.00
C763   C     0.96556   0.86896   0.52299   0.00000  Uiso   1.00
H764   H     0.98618   0.86481   0.59646   0.00000  Uiso   1.00
H765   H     0.97803   0.90449   0.93053   0.00000  Uiso   1.00
H766   H     0.68065   0.88663   0.50650   0.00000  Uiso   1.00
C767   C     0.88618   0.84058   0.59758   0.00000  Uiso   1.00
C768   C     0.72032   0.79706   0.92160   0.00000  Uiso   1.00
C769   C     0.70756   0.77348   0.96825   0.00000  Uiso   1.00
C770   C     0.75389   0.78085   0.99741   0.00000  Uiso   1.00
C771   C     0.81096   0.81923   0.98352   0.00000  Uiso   1.00
C772   C     0.82489   0.84136   0.93479   0.00000  Uiso   1.00
C773   C     0.85632   0.83445   0.51497   0.00000  Uiso   1.00
C774   C     0.91872   0.86012   0.99386   0.00000  Uiso   1.00
C775   C     0.93186   0.88098   0.94580   0.00000  Uiso   1.00
C776   C     0.88403   0.87573   0.91881   0.00000  Uiso   1.00
C777   C     0.83963   0.83116   0.56777   0.00000  Uiso   1.00
C778   C     0.94963   0.85707   0.57431   0.00000  Uiso   1.00
C779   C     0.78041   0.82696   0.90255   0.00000  Uiso   1.00
H780   H     0.68531   0.78684   0.89802   0.00000  Uiso   1.00
H781   H     0.89462   0.89855   0.88499   0.00000  Uiso   1.00
C782   C     0.85756   0.98905   0.75240   0.00000  Uiso   1.00
C783   C     0.81035   0.67744   0.74788   0.00000  Uiso   1.00
H784   H     0.76473   0.98709   0.74360   0.00000  Uiso   1.00
N785   N     0.98241   0.84741   0.76416   0.00000  Uiso   1.00
H786   H     0.67046   0.87249   0.78961   0.00000  Uiso   1.00
N787   N     0.68426   0.81926   0.73584   0.00000  Uiso   1.00
H788   H     0.99619   0.79417   0.71041   0.00000  Uiso   1.00
F789   F     0.77804   0.82698   0.59027   0.00000  Uiso   1.00
Cl790  Cl    0.74348   0.73260   0.54312   0.00000  Uiso   1.00
F791   F     0.98514   0.73905   0.98272   0.00000  Uiso   1.00
F792   F     0.91516   0.68457   0.75783   0.00000  Uiso   1.00
loop_
_geom_bond_atom_site_label_1
_geom_bond_atom_site_label_2
_geom_bond_distance
_geom_bond_site_symmetry_2
_ccdc_geom_bond_type
O1     Cu7     1.960   .     S
O1     C3      1.290   .     A
O2     C3      1.281   .     A
O2     Cu8     1.956   .     S
C3     C34     1.424   .     S
O4     Cu7     1.955   .     S
O4     C6      1.305   .     A
O5     Cu8     1.936   .     S
O5     C6      1.291   .     A
C6     C31     1.473   .     S
Cu7    Cu8     2.681   .     S
Cu7    O11     1.936   .     S
Cu7    N39     2.015   .     S
Cu7    O9      1.956   .     S
Cu8    O12     1.955   .     S
Cu8    O10     1.960   .     S
Cu8    N37     2.015   .     S
O9     C13     1.286   .     A
O10    C13     1.288   .     A
O11    C14     1.290   .     A
O12    C14     1.304   .     A
C13    C35     1.429   .     S
C14    C19     1.469   .     S
C15    C30     1.394   .     A
C15    H62     1.084   .     S
C15    C422    1.403   1_554 S
H16    C30     1.083   .     S
H17    C27     1.084   .     S
H18    C103    1.084   1_455 S
C19    C30     1.401   .     A
C19    C29     1.410   .     A
C20    C21     1.387   .     A
C20    H32     1.084   .     S
C20    C31     1.400   .     A
C21    C22     1.397   .     A
C21    F131    1.358   1_455 S
C22    C23     1.428   .     A
C22    Cl438   1.771   .     S
C23    C24     1.419   .     A
C23    C421    1.424   .     S
C24    C31     1.423   .     A
C24    C28     1.417   .     A
C25    C29     1.397   .     A
C25    C419    1.424   1_554 S
C25    C422    1.415   1_554 S
C26    C27     1.390   .     A
C26    C421    1.415   .     S
C26    C411    1.403   .     S
C27    C28     1.389   .     A
C28    H33     1.081   .     S
C29    F41     1.360   .     S
C34    C167    1.332   .     S
C34    F176    1.364   .     S
C35    C298    1.332   1_545 S
C35    H300    1.088   1_545 S
H36    C167    1.088   .     S
N37    H82     1.029   .     S
N37    N83     1.290   .     S
H38    N125    1.029   1_455 S
N39    N125    1.290   1_455 S
N39    H128    1.029   1_455 S
H40    N83     1.029   .     S
Cl42   C418    1.771   1_554 S
F43    C65     1.358   .     S
F44    C298    1.364   1_545 S
O45    Cu51    1.960   .     S
O45    C47     1.290   .     A
O46    C47     1.281   .     A
O46    Cu52    1.956   .     S
C47    C78     1.424   .     S
O48    Cu51    1.955   .     S
O48    C50     1.305   .     A
O49    Cu52    1.936   .     S
O49    C50     1.291   .     A
C50    C75     1.473   .     S
Cu51   Cu52    2.681   .     S
Cu51   O55     1.936   .     S
Cu51   N83     2.015   .     S
Cu51   O53     1.956   .     S
Cu52   O56     1.955   .     S
Cu52   O54     1.960   .     S
Cu52   N81     2.015   .     S
O53    C57     1.286   .     A
O54    C57     1.288   .     A
O55    C58     1.290   .     A
O56    C58     1.304   .     A
C57    C79     1.429   .     S
C58    C63     1.469   .     S
C59    C74     1.394   .     A
C59    H106    1.084   .     S
C59    C466    1.403   1_554 S
H60    C74     1.083   .     S
H61    C71     1.084   .     S
C63    C74     1.401   .     A
C63    C73     1.410   .     A
C64    C65     1.387   .     A
C64    H76     1.084   .     S
C64    C75     1.400   .     A
C65    C66     1.397   .     A
C66    C67     1.428   .     A
C66    Cl482   1.771   .     S
C67    C68     1.419   .     A
C67    C465    1.424   .     S
C68    C75     1.423   .     A
C68    C72     1.417   .     A
C69    C73     1.397   .     A
C69    C463    1.424   1_554 S
C69    C466    1.415   1_554 S
C70    C71     1.390   .     A
C70    C465    1.415   .     S
C70    C455    1.403   .     S
C71    C72     1.389   .     A
C72    H77     1.081   .     S
C73    F85     1.360   .     S
C78    C211    1.332   .     S
C78    F220    1.364   .     S
C79    C342    1.332   1_545 S
C79    H344    1.088   1_545 S
H80    C211    1.088   .     S
N81    H126    1.029   .     S
N81    N127    1.290   .     S
H84    N127    1.029   .     S
Cl86   C462    1.771   1_554 S
F87    C109    1.358   .     S
F88    C342    1.364   1_545 S
O89    Cu95    1.960   .     S
O89    C91     1.290   .     A
O90    C91     1.281   .     A
O90    Cu96    1.956   .     S
C91    C122    1.424   .     S
O92    Cu95    1.955   .     S
O92    C94     1.305   .     A
O93    Cu96    1.936   .     S
O93    C94     1.291   .     A
C94    C119    1.473   .     S
Cu95   Cu96    2.681   .     S
Cu95   O99     1.936   .     S
Cu95   N127    2.015   .     S
Cu95   O97     1.956   .     S
Cu96   O100    1.955   .     S
Cu96   O98     1.960   .     S
Cu96   N125    2.015   .     S
O97    C101    1.286   .     A
O98    C101    1.288   .     A
O99    C102    1.290   .     A
O100   C102    1.304   .     A
C101   C123    1.429   .     S
C102   C107    1.469   .     S
C103   C118    1.394   .     A
C103   H18     1.084   1_655 S
C103   C510    1.403   1_554 S
H104   C118    1.083   .     S
H105   C115    1.084   .     S
C107   C118    1.401   .     A
C107   C117    1.410   .     A
C108   C109    1.387   .     A
C108   H120    1.084   .     S
C108   C119    1.400   .     A
C109   C110    1.397   .     A
C110   C111    1.428   .     A
C110   Cl526   1.771   .     S
C111   C112    1.419   .     A
C111   C509    1.424   .     S
C112   C119    1.423   .     A
C112   C116    1.417   .     A
C113   C117    1.397   .     A
C113   C507    1.424   1_554 S
C113   C510    1.415   1_554 S
C114   C115    1.390   .     A
C114   C509    1.415   .     S
C114   C499    1.403   .     S
C115   C116    1.389   .     A
C116   H121    1.081   .     S
C117   F129    1.360   .     S
C122   C255    1.332   .     S
C122   F264    1.364   .     S
C123   C386    1.332   1_545 S
C123   H388    1.088   1_545 S
H124   C255    1.088   .     S
N125   H38     1.029   1_655 S
N125   N39     1.290   1_655 S
H128   N39     1.029   1_655 S
Cl130  C506    1.771   1_554 S
F131   C21     1.358   1_655 S
F132   C386    1.364   1_545 S
O133   Cu139   1.960   .     S
O133   C135    1.290   .     A
O134   C135    1.281   .     A
O134   Cu140   1.956   .     S
C135   C166    1.424   .     S
O136   Cu139   1.955   .     S
O136   C138    1.305   .     A
O137   Cu140   1.936   .     S
O137   C138    1.291   .     A
C138   C163    1.473   .     S
Cu139  Cu140   2.681   .     S
Cu139  O143    1.936   .     S
Cu139  N171    2.015   .     S
Cu139  O141    1.956   .     S
Cu140  O144    1.955   .     S
Cu140  O142    1.960   .     S
Cu140  N169    2.015   .     S
O141   C145    1.286   .     A
O142   C145    1.288   .     A
O143   C146    1.290   .     A
O144   C146    1.304   .     A
C145   C167    1.429   .     S
C146   C151    1.469   .     S
C147   C162    1.394   .     A
C147   H194    1.084   .     S
C147   C554    1.403   1_554 S
H148   C162    1.083   .     S
H149   C159    1.084   .     S
H150   C235    1.084   1_455 S
C151   C162    1.401   .     A
C151   C161    1.410   .     A
C152   C153    1.387   .     A
C152   H164    1.084   .     S
C152   C163    1.400   .     A
C153   C154    1.397   .     A
C153   F263    1.358   1_455 S
C154   C155    1.428   .     A
C154   Cl570   1.771   .     S
C155   C156    1.419   .     A
C155   C553    1.424   .     S
C156   C163    1.423   .     A
C156   C160    1.417   .     A
C157   C161    1.397   .     A
C157   C551    1.424   1_554 S
C157   C554    1.415   1_554 S
C158   C159    1.390   .     A
C158   C553    1.415   .     S
C158   C543    1.403   .     S
C159   C160    1.389   .     A
C160   H165    1.081   .     S
C161   F173    1.360   .     S
C166   C299    1.332   .     S
C166   F308    1.364   .     S
H168   C299    1.088   .     S
N169   H214    1.029   .     S
N169   N215    1.290   .     S
H170   N257    1.029   1_455 S
N171   N257    1.290   1_455 S
N171   H260    1.029   1_455 S
H172   N215    1.029   .     S
Cl174  C550    1.771   1_554 S
F175   C197    1.358   .     S
O177   Cu183   1.960   .     S
O177   C179    1.290   .     A
O178   C179    1.281   .     A
O178   Cu184   1.956   .     S
C179   C210    1.424   .     S
O180   Cu183   1.955   .     S
O180   C182    1.305   .     A
O181   Cu184   1.936   .     S
O181   C182    1.291   .     A
C182   C207    1.473   .     S
Cu183  Cu184   2.681   .     S
Cu183  O187    1.936   .     S
Cu183  N215    2.015   .     S
Cu183  O185    1.956   .     S
Cu184  O188    1.955   .     S
Cu184  O186    1.960   .     S
Cu184  N213    2.015   .     S
O185   C189    1.286   .     A
O186   C189    1.288   .     A
O187   C190    1.290   .     A
O188   C190    1.304   .     A
C189   C211    1.429   .     S
C190   C195    1.469   .     S
C191   C206    1.394   .     A
C191   H238    1.084   .     S
C191   C598    1.403   1_554 S
H192   C206    1.083   .     S
H193   C203    1.084   .     S
C195   C206    1.401   .     A
C195   C205    1.410   .     A
C196   C197    1.387   .     A
C196   H208    1.084   .     S
C196   C207    1.400   .     A
C197   C198    1.397   .     A
C198   C199    1.428   .     A
C198   Cl614   1.771   .     S
C199   C200    1.419   .     A
C199   C597    1.424   .     S
C200   C207    1.423   .     A
C200   C204    1.417   .     A
C201   C205    1.397   .     A
C201   C595    1.424   1_554 S
C201   C598    1.415   1_554 S
C202   C203    1.390   .     A
C202   C597    1.415   .     S
C202   C587    1.403   .     S
C203   C204    1.389   .     A
C204   H209    1.081   .     S
C205   F217    1.360   .     S
C210   C343    1.332   .     S
C210   F352    1.364   .     S
H212   C343    1.088   .     S
N213   H258    1.029   .     S
N213   N259    1.290   .     S
H216   N259    1.029   .     S
Cl218  C594    1.771   1_554 S
F219   C241    1.358   .     S
O221   Cu227   1.960   .     S
O221   C223    1.290   .     A
O222   C223    1.281   .     A
O222   Cu228   1.956   .     S
C223   C254    1.424   .     S
O224   Cu227   1.955   .     S
O224   C226    1.305   .     A
O225   Cu228   1.936   .     S
O225   C226    1.291   .     A
C226   C251    1.473   .     S
Cu227  Cu228   2.681   .     S
Cu227  O231    1.936   .     S
Cu227  N259    2.015   .     S
Cu227  O229    1.956   .     S
Cu228  O232    1.955   .     S
Cu228  O230    1.960   .     S
Cu228  N257    2.015   .     S
O229   C233    1.286   .     A
O230   C233    1.288   .     A
O231   C234    1.290   .     A
O232   C234    1.304   .     A
C233   C255    1.429   .     S
C234   C239    1.469   .     S
C235   C250    1.394   .     A
C235   H150    1.084   1_655 S
C235   C642    1.403   1_554 S
H236   C250    1.083   .     S
H237   C247    1.084   .     S
C239   C250    1.401   .     A
C239   C249    1.410   .     A
C240   C241    1.387   .     A
C240   H252    1.084   .     S
C240   C251    1.400   .     A
C241   C242    1.397   .     A
C242   C243    1.428   .     A
C242   Cl658   1.771   .     S
C243   C244    1.419   .     A
C243   C641    1.424   .     S
C244   C251    1.423   .     A
C244   C248    1.417   .     A
C245   C249    1.397   .     A
C245   C639    1.424   1_554 S
C245   C642    1.415   1_554 S
C246   C247    1.390   .     A
C246   C641    1.415   .     S
C246   C631    1.403   .     S
C247   C248    1.389   .     A
C248   H253    1.081   .     S
C249   F261    1.360   .     S
C254   C387    1.332   .     S
C254   F396    1.364   .     S
H256   C387    1.088   .     S
N257   H170    1.029   1_655 S
N257   N171    1.290   1_655 S
H260   N171    1.029   1_655 S
Cl262  C638    1.771   1_554 S
F263   C153    1.358   1_655 S
O265   Cu271   1.960   .     S
O265   C267    1.290   .     A
O266   C267    1.281   .     A
O266   Cu272   1.956   .     S
C267   C298    1.424   .     S
O268   Cu271   1.955   .     S
O268   C270    1.305   .     A
O269   Cu272   1.936   .     S
O269   C270    1.291   .     A
C270   C295    1.473   .     S
Cu271  Cu272   2.681   .     S
Cu271  O275    1.936   .     S
Cu271  N303    2.015   .     S
Cu271  O273    1.956   .     S
Cu272  O276    1.955   .     S
Cu272  O274    1.960   .     S
Cu272  N301    2.015   .     S
O273   C277    1.286   .     A
O274   C277    1.288   .     A
O275   C278    1.290   .     A
O276   C278    1.304   .     A
C277   C299    1.429   .     S
C278   C283    1.469   .     S
C279   C294    1.394   .     A
C279   H326    1.084   .     S
C279   C686    1.403   1_554 S
H280   C294    1.083   .     S
H281   C291    1.084   .     S
H282   C367    1.084   1_455 S
C283   C294    1.401   .     A
C283   C293    1.410   .     A
C284   C285    1.387   .     A
C284   H296    1.084   .     S
C284   C295    1.400   .     A
C285   C286    1.397   .     A
C285   F395    1.358   1_455 S
C286   C287    1.428   .     A
C286   Cl702   1.771   .     S
C287   C288    1.419   .     A
C287   C685    1.424   .     S
C288   C295    1.423   .     A
C288   C292    1.417   .     A
C289   C293    1.397   .     A
C289   C683    1.424   1_554 S
C289   C686    1.415   1_554 S
C290   C291    1.390   .     A
C290   C685    1.415   .     S
C290   C675    1.403   .     S
C291   C292    1.389   .     A
C292   H297    1.081   .     S
C293   F305    1.360   .     S
C298   C35     1.332   1_565 S
C298   F44     1.364   1_565 S
H300   C35     1.088   1_565 S
N301   H346    1.029   .     S
N301   N347    1.290   .     S
H302   N389    1.029   1_455 S
N303   N389    1.290   1_455 S
N303   H392    1.029   1_455 S
H304   N347    1.029   .     S
Cl306  C682    1.771   1_554 S
F307   C329    1.358   .     S
O309   Cu315   1.960   .     S
O309   C311    1.290   .     A
O310   C311    1.281   .     A
O310   Cu316   1.956   .     S
C311   C342    1.424   .     S
O312   Cu315   1.955   .     S
O312   C314    1.305   .     A
O313   Cu316   1.936   .     S
O313   C314    1.291   .     A
C314   C339    1.473   .     S
Cu315  Cu316   2.681   .     S
Cu315  O319    1.936   .     S
Cu315  N347    2.015   .     S
Cu315  O317    1.956   .     S
Cu316  O320    1.955   .     S
Cu316  O318    1.960   .     S
Cu316  N345    2.015   .     S
O317   C321    1.286   .     A
O318   C321    1.288   .     A
O319   C322    1.290   .     A
O320   C322    1.304   .     A
C321   C343    1.429   .     S
C322   C327    1.469   .     S
C323   C338    1.394   .     A
C323   H370    1.084   .     S
C323   C730    1.403   1_554 S
H324   C338    1.083   .     S
H325   C335    1.084   .     S
C327   C338    1.401   .     A
C327   C337    1.410   .     A
C328   C329    1.387   .     A
C328   H340    1.084   .     S
C328   C339    1.400   .     A
C329   C330    1.397   .     A
C330   C331    1.428   .     A
C330   Cl746   1.771   .     S
C331   C332    1.419   .     A
C331   C729    1.424   .     S
C332   C339    1.423   .     A
C332   C336    1.417   .     A
C333   C337    1.397   .     A
C333   C727    1.424   1_554 S
C333   C730    1.415   1_554 S
C334   C335    1.390   .     A
C334   C729    1.415   .     S
C334   C719    1.403   .     S
C335   C336    1.389   .     A
C336   H341    1.081   .     S
C337   F349    1.360   .     S
C342   C79     1.332   1_565 S
C342   F88     1.364   1_565 S
H344   C79     1.088   1_565 S
N345   H390    1.029   .     S
N345   N391    1.290   .     S
H348   N391    1.029   .     S
Cl350  C726    1.771   1_554 S
F351   C373    1.358   .     S
O353   Cu359   1.960   .     S
O353   C355    1.290   .     A
O354   C355    1.281   .     A
O354   Cu360   1.956   .     S
C355   C386    1.424   .     S
O356   Cu359   1.955   .     S
O356   C358    1.305   .     A
O357   Cu360   1.936   .     S
O357   C358    1.291   .     A
C358   C383    1.473   .     S
Cu359  Cu360   2.681   .     S
Cu359  O363    1.936   .     S
Cu359  N391    2.015   .     S
Cu359  O361    1.956   .     S
Cu360  O364    1.955   .     S
Cu360  O362    1.960   .     S
Cu360  N389    2.015   .     S
O361   C365    1.286   .     A
O362   C365    1.288   .     A
O363   C366    1.290   .     A
O364   C366    1.304   .     A
C365   C387    1.429   .     S
C366   C371    1.469   .     S
C367   C382    1.394   .     A
C367   H282    1.084   1_655 S
C367   C774    1.403   1_554 S
H368   C382    1.083   .     S
H369   C379    1.084   .     S
C371   C382    1.401   .     A
C371   C381    1.410   .     A
C372   C373    1.387   .     A
C372   H384    1.084   .     S
C372   C383    1.400   .     A
C373   C374    1.397   .     A
C374   C375    1.428   .     A
C374   Cl790   1.771   .     S
C375   C376    1.419   .     A
C375   C773    1.424   .     S
C376   C383    1.423   .     A
C376   C380    1.417   .     A
C377   C381    1.397   .     A
C377   C771    1.424   1_554 S
C377   C774    1.415   1_554 S
C378   C379    1.390   .     A
C378   C773    1.415   .     S
C378   C763    1.403   .     S
C379   C380    1.389   .     A
C380   H385    1.081   .     S
C381   F393    1.360   .     S
C386   C123    1.332   1_565 S
C386   F132    1.364   1_565 S
H388   C123    1.088   1_565 S
N389   H302    1.029   1_655 S
N389   N303    1.290   1_655 S
H392   N303    1.029   1_655 S
Cl394  C770    1.771   1_554 S
F395   C285    1.358   1_655 S
O397   Cu403   1.960   .     S
O397   C399    1.290   .     A
O398   C399    1.281   .     A
O398   Cu404   1.956   .     S
C399   C430    1.424   .     S
O400   Cu403   1.955   .     S
O400   C402    1.305   .     A
O401   Cu404   1.936   .     S
O401   C402    1.291   .     A
C402   C427    1.473   .     S
Cu403  Cu404   2.681   .     S
Cu403  O407    1.936   .     S
Cu403  N435    2.015   .     S
Cu403  O405    1.956   .     S
Cu404  O408    1.955   .     S
Cu404  O406    1.960   .     S
Cu404  N433    2.015   .     S
O405   C409    1.286   .     A
O406   C409    1.288   .     A
O407   C410    1.290   .     A
O408   C410    1.304   .     A
C409   C431    1.429   .     S
C410   C415    1.469   .     S
C411   C426    1.394   .     A
C411   H458    1.084   .     S
H412   C426    1.083   .     S
H413   C423    1.084   .     S
H414   C499    1.084   1_455 S
C415   C426    1.401   .     A
C415   C425    1.410   .     A
C416   C417    1.387   .     A
C416   H428    1.084   .     S
C416   C427    1.400   .     A
C417   C418    1.397   .     A
C417   F527    1.358   1_455 S
C418   C419    1.428   .     A
C418   Cl42    1.771   1_556 S
C419   C420    1.419   .     A
C419   C25     1.424   1_556 S
C420   C427    1.423   .     A
C420   C424    1.417   .     A
C421   C425    1.397   .     A
C422   C423    1.390   .     A
C422   C25     1.415   1_556 S
C422   C15     1.403   1_556 S
C423   C424    1.389   .     A
C424   H429    1.081   .     S
C425   F437    1.360   .     S
C430   C563    1.332   .     S
C430   F572    1.364   .     S
C431   C694    1.332   1_545 S
C431   H696    1.088   1_545 S
H432   C563    1.088   .     S
N433   H478    1.029   .     S
N433   N479    1.290   .     S
H434   N521    1.029   1_455 S
N435   N521    1.290   1_455 S
N435   H524    1.029   1_455 S
H436   N479    1.029   .     S
F439   C461    1.358   .     S
F440   C694    1.364   1_545 S
O441   Cu447   1.960   .     S
O441   C443    1.290   .     A
O442   C443    1.281   .     A
O442   Cu448   1.956   .     S
C443   C474    1.424   .     S
O444   Cu447   1.955   .     S
O444   C446    1.305   .     A
O445   Cu448   1.936   .     S
O445   C446    1.291   .     A
C446   C471    1.473   .     S
Cu447  Cu448   2.681   .     S
Cu447  O451    1.936   .     S
Cu447  N479    2.015   .     S
Cu447  O449    1.956   .     S
Cu448  O452    1.955   .     S
Cu448  O450    1.960   .     S
Cu448  N477    2.015   .     S
O449   C453    1.286   .     A
O450   C453    1.288   .     A
O451   C454    1.290   .     A
O452   C454    1.304   .     A
C453   C475    1.429   .     S
C454   C459    1.469   .     S
C455   C470    1.394   .     A
C455   H502    1.084   .     S
H456   C470    1.083   .     S
H457   C467    1.084   .     S
C459   C470    1.401   .     A
C459   C469    1.410   .     A
C460   C461    1.387   .     A
C460   H472    1.084   .     S
C460   C471    1.400   .     A
C461   C462    1.397   .     A
C462   C463    1.428   .     A
C462   Cl86    1.771   1_556 S
C463   C464    1.419   .     A
C463   C69     1.424   1_556 S
C464   C471    1.423   .     A
C464   C468    1.417   .     A
C465   C469    1.397   .     A
C466   C467    1.390   .     A
C466   C69     1.415   1_556 S
C466   C59     1.403   1_556 S
C467   C468    1.389   .     A
C468   H473    1.081   .     S
C469   F481    1.360   .     S
C474   C607    1.332   .     S
C474   F616    1.364   .     S
C475   C738    1.332   1_545 S
C475   H740    1.088   1_545 S
H476   C607    1.088   .     S
N477   H522    1.029   .     S
N477   N523    1.290   .     S
H480   N523    1.029   .     S
F483   C505    1.358   .     S
F484   C738    1.364   1_545 S
O485   Cu491   1.960   .     S
O485   C487    1.290   .     A
O486   C487    1.281   .     A
O486   Cu492   1.956   .     S
C487   C518    1.424   .     S
O488   Cu491   1.955   .     S
O488   C490    1.305   .     A
O489   Cu492   1.936   .     S
O489   C490    1.291   .     A
C490   C515    1.473   .     S
Cu491  Cu492   2.681   .     S
Cu491  O495    1.936   .     S
Cu491  N523    2.015   .     S
Cu491  O493    1.956   .     S
Cu492  O496    1.955   .     S
Cu492  O494    1.960   .     S
Cu492  N521    2.015   .     S
O493   C497    1.286   .     A
O494   C497    1.288   .     A
O495   C498    1.290   .     A
O496   C498    1.304   .     A
C497   C519    1.429   .     S
C498   C503    1.469   .     S
C499   C514    1.394   .     A
C499   H414    1.084   1_655 S
H500   C514    1.083   .     S
H501   C511    1.084   .     S
C503   C514    1.401   .     A
C503   C513    1.410   .     A
C504   C505    1.387   .     A
C504   H516    1.084   .     S
C504   C515    1.400   .     A
C505   C506    1.397   .     A
C506   C507    1.428   .     A
C506   Cl130   1.771   1_556 S
C507   C508    1.419   .     A
C507   C113    1.424   1_556 S
C508   C515    1.423   .     A
C508   C512    1.417   .     A
C509   C513    1.397   .     A
C510   C511    1.390   .     A
C510   C113    1.415   1_556 S
C510   C103    1.403   1_556 S
C511   C512    1.389   .     A
C512   H517    1.081   .     S
C513   F525    1.360   .     S
C518   C651    1.332   .     S
C518   F660    1.364   .     S
C519   C782    1.332   1_545 S
C519   H784    1.088   1_545 S
H520   C651    1.088   .     S
N521   H434    1.029   1_655 S
N521   N435    1.290   1_655 S
H524   N435    1.029   1_655 S
F527   C417    1.358   1_655 S
F528   C782    1.364   1_545 S
O529   Cu535   1.960   .     S
O529   C531    1.290   .     A
O530   C531    1.281   .     A
O530   Cu536   1.956   .     S
C531   C562    1.424   .     S
O532   Cu535   1.955   .     S
O532   C534    1.305   .     A
O533   Cu536   1.936   .     S
O533   C534    1.291   .     A
C534   C559    1.473   .     S
Cu535  Cu536   2.681   .     S
Cu535  O539    1.936   .     S
Cu535  N567    2.015   .     S
Cu535  O537    1.956   .     S
Cu536  O540    1.955   .     S
Cu536  O538    1.960   .     S
Cu536  N565    2.015   .     S
O537   C541    1.286   .     A
O538   C541    1.288   .     A
O539   C542    1.290   .     A
O540   C542    1.304   .     A
C541   C563    1.429   .     S
C542   C547    1.469   .     S
C543   C558    1.394   .     A
C543   H590    1.084   .     S
H544   C558    1.083   .     S
H545   C555    1.084   .     S
H546   C631    1.084   1_455 S
C547   C558    1.401   .     A
C547   C557    1.410   .     A
C548   C549    1.387   .     A
C548   H560    1.084   .     S
C548   C559    1.400   .     A
C549   C550    1.397   .     A
C549   F659    1.358   1_455 S
C550   C551    1.428   .     A
C550   Cl174   1.771   1_556 S
C551   C552    1.419   .     A
C551   C157    1.424   1_556 S
C552   C559    1.423   .     A
C552   C556    1.417   .     A
C553   C557    1.397   .     A
C554   C555    1.390   .     A
C554   C157    1.415   1_556 S
C554   C147    1.403   1_556 S
C555   C556    1.389   .     A
C556   H561    1.081   .     S
C557   F569    1.360   .     S
C562   C695    1.332   .     S
C562   F704    1.364   .     S
H564   C695    1.088   .     S
N565   H610    1.029   .     S
N565   N611    1.290   .     S
H566   N653    1.029   1_455 S
N567   N653    1.290   1_455 S
N567   H656    1.029   1_455 S
H568   N611    1.029   .     S
F571   C593    1.358   .     S
O573   Cu579   1.960   .     S
O573   C575    1.290   .     A
O574   C575    1.281   .     A
O574   Cu580   1.956   .     S
C575   C606    1.424   .     S
O576   Cu579   1.955   .     S
O576   C578    1.305   .     A
O577   Cu580   1.936   .     S
O577   C578    1.291   .     A
C578   C603    1.473   .     S
Cu579  Cu580   2.681   .     S
Cu579  O583    1.936   .     S
Cu579  N611    2.015   .     S
Cu579  O581    1.956   .     S
Cu580  O584    1.955   .     S
Cu580  O582    1.960   .     S
Cu580  N609    2.015   .     S
O581   C585    1.286   .     A
O582   C585    1.288   .     A
O583   C586    1.290   .     A
O584   C586    1.304   .     A
C585   C607    1.429   .     S
C586   C591    1.469   .     S
C587   C602    1.394   .     A
C587   H634    1.084   .     S
H588   C602    1.083   .     S
H589   C599    1.084   .     S
C591   C602    1.401   .     A
C591   C601    1.410   .     A
C592   C593    1.387   .     A
C592   H604    1.084   .     S
C592   C603    1.400   .     A
C593   C594    1.397   .     A
C594   C595    1.428   .     A
C594   Cl218   1.771   1_556 S
C595   C596    1.419   .     A
C595   C201    1.424   1_556 S
C596   C603    1.423   .     A
C596   C600    1.417   .     A
C597   C601    1.397   .     A
C598   C599    1.390   .     A
C598   C201    1.415   1_556 S
C598   C191    1.403   1_556 S
C599   C600    1.389   .     A
C600   H605    1.081   .     S
C601   F613    1.360   .     S
C606   C739    1.332   .     S
C606   F748    1.364   .     S
H608   C739    1.088   .     S
N609   H654    1.029   .     S
N609   N655    1.290   .     S
H612   N655    1.029   .     S
F615   C637    1.358   .     S
O617   Cu623   1.960   .     S
O617   C619    1.290   .     A
O618   C619    1.281   .     A
O618   Cu624   1.956   .     S
C619   C650    1.424   .     S
O620   Cu623   1.955   .     S
O620   C622    1.305   .     A
O621   Cu624   1.936   .     S
O621   C622    1.291   .     A
C622   C647    1.473   .     S
Cu623  Cu624   2.681   .     S
Cu623  O627    1.936   .     S
Cu623  N655    2.015   .     S
Cu623  O625    1.956   .     S
Cu624  O628    1.955   .     S
Cu624  O626    1.960   .     S
Cu624  N653    2.015   .     S
O625   C629    1.286   .     A
O626   C629    1.288   .     A
O627   C630    1.290   .     A
O628   C630    1.304   .     A
C629   C651    1.429   .     S
C630   C635    1.469   .     S
C631   C646    1.394   .     A
C631   H546    1.084   1_655 S
H632   C646    1.083   .     S
H633   C643    1.084   .     S
C635   C646    1.401   .     A
C635   C645    1.410   .     A
C636   C637    1.387   .     A
C636   H648    1.084   .     S
C636   C647    1.400   .     A
C637   C638    1.397   .     A
C638   C639    1.428   .     A
C638   Cl262   1.771   1_556 S
C639   C640    1.419   .     A
C639   C245    1.424   1_556 S
C640   C647    1.423   .     A
C640   C644    1.417   .     A
C641   C645    1.397   .     A
C642   C643    1.390   .     A
C642   C245    1.415   1_556 S
C642   C235    1.403   1_556 S
C643   C644    1.389   .     A
C644   H649    1.081   .     S
C645   F657    1.360   .     S
C650   C783    1.332   .     S
C650   F792    1.364   .     S
H652   C783    1.088   .     S
N653   H566    1.029   1_655 S
N653   N567    1.290   1_655 S
H656   N567    1.029   1_655 S
F659   C549    1.358   1_655 S
O661   Cu667   1.960   .     S
O661   C663    1.290   .     A
O662   C663    1.281   .     A
O662   Cu668   1.956   .     S
C663   C694    1.424   .     S
O664   Cu667   1.955   .     S
O664   C666    1.305   .     A
O665   Cu668   1.936   .     S
O665   C666    1.291   .     A
C666   C691    1.473   .     S
Cu667  Cu668   2.681   .     S
Cu667  O671    1.936   .     S
Cu667  N699    2.015   .     S
Cu667  O669    1.956   .     S
Cu668  O672    1.955   .     S
Cu668  O670    1.960   .     S
Cu668  N697    2.015   .     S
O669   C673    1.286   .     A
O670   C673    1.288   .     A
O671   C674    1.290   .     A
O672   C674    1.304   .     A
C673   C695    1.429   .     S
C674   C679    1.469   .     S
C675   C690    1.394   .     A
C675   H722    1.084   .     S
H676   C690    1.083   .     S
H677   C687    1.084   .     S
H678   C763    1.084   1_455 S
C679   C690    1.401   .     A
C679   C689    1.410   .     A
C680   C681    1.387   .     A
C680   H692    1.084   .     S
C680   C691    1.400   .     A
C681   C682    1.397   .     A
C681   F791    1.358   1_455 S
C682   C683    1.428   .     A
C682   Cl306   1.771   1_556 S
C683   C684    1.419   .     A
C683   C289    1.424   1_556 S
C684   C691    1.423   .     A
C684   C688    1.417   .     A
C685   C689    1.397   .     A
C686   C687    1.390   .     A
C686   C289    1.415   1_556 S
C686   C279    1.403   1_556 S
C687   C688    1.389   .     A
C688   H693    1.081   .     S
C689   F701    1.360   .     S
C694   C431    1.332   1_565 S
C694   F440    1.364   1_565 S
H696   C431    1.088   1_565 S
N697   H742    1.029   .     S
N697   N743    1.290   .     S
H698   N785    1.029   1_455 S
N699   N785    1.290   1_455 S
N699   H788    1.029   1_455 S
H700   N743    1.029   .     S
F703   C725    1.358   .     S
O705   Cu711   1.960   .     S
O705   C707    1.290   .     A
O706   C707    1.281   .     A
O706   Cu712   1.956   .     S
C707   C738    1.424   .     S
O708   Cu711   1.955   .     S
O708   C710    1.305   .     A
O709   Cu712   1.936   .     S
O709   C710    1.291   .     A
C710   C735    1.473   .     S
Cu711  Cu712   2.681   .     S
Cu711  O715    1.936   .     S
Cu711  N743    2.015   .     S
Cu711  O713    1.956   .     S
Cu712  O716    1.955   .     S
Cu712  O714    1.960   .     S
Cu712  N741    2.015   .     S
O713   C717    1.286   .     A
O714   C717    1.288   .     A
O715   C718    1.290   .     A
O716   C718    1.304   .     A
C717   C739    1.429   .     S
C718   C723    1.469   .     S
C719   C734    1.394   .     A
C719   H766    1.084   .     S
H720   C734    1.083   .     S
H721   C731    1.084   .     S
C723   C734    1.401   .     A
C723   C733    1.410   .     A
C724   C725    1.387   .     A
C724   H736    1.084   .     S
C724   C735    1.400   .     A
C725   C726    1.397   .     A
C726   C727    1.428   .     A
C726   Cl350   1.771   1_556 S
C727   C728    1.419   .     A
C727   C333    1.424   1_556 S
C728   C735    1.423   .     A
C728   C732    1.417   .     A
C729   C733    1.397   .     A
C730   C731    1.390   .     A
C730   C333    1.415   1_556 S
C730   C323    1.403   1_556 S
C731   C732    1.389   .     A
C732   H737    1.081   .     S
C733   F745    1.360   .     S
C738   C475    1.332   1_565 S
C738   F484    1.364   1_565 S
H740   C475    1.088   1_565 S
N741   H786    1.029   .     S
N741   N787    1.290   .     S
H744   N787    1.029   .     S
F747   C769    1.358   .     S
O749   Cu755   1.960   .     S
O749   C751    1.290   .     A
O750   C751    1.281   .     A
O750   Cu756   1.956   .     S
C751   C782    1.424   .     S
O752   Cu755   1.955   .     S
O752   C754    1.305   .     A
O753   Cu756   1.936   .     S
O753   C754    1.291   .     A
C754   C779    1.473   .     S
Cu755  Cu756   2.681   .     S
Cu755  O759    1.936   .     S
Cu755  N787    2.015   .     S
Cu755  O757    1.956   .     S
Cu756  O760    1.955   .     S
Cu756  O758    1.960   .     S
Cu756  N785    2.015   .     S
O757   C761    1.286   .     A
O758   C761    1.288   .     A
O759   C762    1.290   .     A
O760   C762    1.304   .     A
C761   C783    1.429   .     S
C762   C767    1.469   .     S
C763   C778    1.394   .     A
C763   H678    1.084   1_655 S
H764   C778    1.083   .     S
H765   C775    1.084   .     S
C767   C778    1.401   .     A
C767   C777    1.410   .     A
C768   C769    1.387   .     A
C768   H780    1.084   .     S
C768   C779    1.400   .     A
C769   C770    1.397   .     A
C770   C771    1.428   .     A
C770   Cl394   1.771   1_556 S
C771   C772    1.419   .     A
C771   C377    1.424   1_556 S
C772   C779    1.423   .     A
C772   C776    1.417   .     A
C773   C777    1.397   .     A
C774   C775    1.390   .     A
C774   C377    1.415   1_556 S
C774   C367    1.403   1_556 S
C775   C776    1.389   .     A
C776   H781    1.081   .     S
C777   F789    1.360   .     S
C782   C519    1.332   1_565 S
C782   F528    1.364   1_565 S
H784   C519    1.088   1_565 S
N785   H698    1.029   1_655 S
N785   N699    1.290   1_655 S
H788   N699    1.029   1_655 S
F791   C681    1.358   1_655 S
