data_str_m2_o1_o16_pcu_sym.55
_audit_creation_date              2020-01-03
_audit_creation_method            'Materials Studio'
_symmetry_space_group_name_H-M    'P1'
_symmetry_Int_Tables_number       1
_symmetry_cell_setting            triclinic
loop_
_symmetry_equiv_pos_as_xyz
  x,y,z
_cell_length_a                    29.1064
_cell_length_b                    32.2057
_cell_length_c                    26.9969
_cell_angle_alpha                 91.8658
_cell_angle_beta                  74.5117
_cell_angle_gamma                 90.3922
loop_
_atom_site_label
_atom_site_type_symbol
_atom_site_fract_x
_atom_site_fract_y
_atom_site_fract_z
_atom_site_U_iso_or_equiv
_atom_site_adp_type
_atom_site_occupancy
C1     C     0.16654   0.24563   0.25087   0.00000  Uiso   1.00
C2     C     0.12639   0.18066   0.40623   0.00000  Uiso   1.00
C3     C     0.18959   0.30973   0.20561   0.00000  Uiso   1.00
C4     C     0.14127   0.17046   0.34966   0.00000  Uiso   1.00
C5     C     0.18855   0.01989   0.20418   0.00000  Uiso   1.00
C6     C     0.16622   0.04294   0.24928   0.00000  Uiso   1.00
C7     C     0.14270   0.02342   0.29466   0.00000  Uiso   1.00
C8     C     0.14189   0.31350   0.29592   0.00000  Uiso   1.00
C9     C     0.16633   0.29033   0.25132   0.00000  Uiso   1.00
C10    C     0.30782   0.20239   0.25977   0.00000  Uiso   1.00
C11    C     0.02085   0.20032   0.26780   0.00000  Uiso   1.00
C12    C     0.14480   0.18813   0.48930   0.00000  Uiso   1.00
C13    C     0.02883   0.13303   0.23130   0.00000  Uiso   1.00
C14    C     0.31277   0.13231   0.23367   0.00000  Uiso   1.00
C15    C     0.16671   0.08768   0.24915   0.00000  Uiso   1.00
C16    C     0.19178   0.16492   0.15024   0.00000  Uiso   1.00
C17    C     0.26262   0.16326   0.01020   0.00000  Uiso   1.00
C18    C     0.20443   0.16445   0.09325   0.00000  Uiso   1.00
C19    C     0.07744   0.18229   0.43284   0.00000  Uiso   1.00
C20    C     0.06337   0.19533   0.48439   0.00000  Uiso   1.00
C21    C     0.09653   0.19807   0.01331   0.00000  Uiso   1.00
C22    C     0.15972   0.18971   0.43510   0.00000  Uiso   1.00
C23    C     0.17975   0.17964   0.01587   0.00000  Uiso   1.00
C24    C     0.22835   0.17947   0.48790   0.00000  Uiso   1.00
C25    C     0.24149   0.19648   0.43889   0.00000  Uiso   1.00
C26    C     0.20649   0.20376   0.41347   0.00000  Uiso   1.00
C27    C     0.16796   0.16714   0.06728   0.00000  Uiso   1.00
C28    C     0.25224   0.16008   0.06319   0.00000  Uiso   1.00
Cu29   Cu    0.11978   0.16666   0.25000   0.00000  Uiso   1.00
Cu30   Cu    0.21355   0.16667   0.25000   0.00000  Uiso   1.00
H31    H     0.02628   0.20238   0.00260   0.00000  Uiso   1.00
H32    H     0.26811   0.25676   0.27744   0.00000  Uiso   1.00
H33    H     0.01274   0.25302   0.30653   0.00000  Uiso   1.00
H34    H     0.08634   0.11143   0.18607   0.00000  Uiso   1.00
H35    H     0.27967   0.10962   0.18786   0.00000  Uiso   1.00
H36    H     0.30154   0.19594   0.38042   0.00000  Uiso   1.00
H37    H     0.28955   0.24201   0.41333   0.00000  Uiso   1.00
H38    H     0.29925   0.13560   0.44812   0.00000  Uiso   1.00
H39    H     0.10576   0.16446   0.11515   0.00000  Uiso   1.00
H40    H     0.04728   0.14466   0.39604   0.00000  Uiso   1.00
H41    H     0.05161   0.20189   0.08473   0.00000  Uiso   1.00
H42    H     0.29755   0.17207   0.10786   0.00000  Uiso   1.00
H43    H     0.07286   0.24772   0.06037   0.00000  Uiso   1.00
H44    H     0.18631   0.24164   0.36284   0.00000  Uiso   1.00
H45    H     0.24015   0.21785   0.34162   0.00000  Uiso   1.00
H46    H     0.22858   0.30253   0.13438   0.00000  Uiso   1.00
H47    H     0.28068   0.12090   0.10445   0.00000  Uiso   1.00
H48    H     0.18173   0.05832   0.14845   0.00000  Uiso   1.00
H49    H     0.23586   0.05952   0.16079   0.00000  Uiso   1.00
H50    H     0.08348   0.03996   0.35053   0.00000  Uiso   1.00
H51    H     0.13454   0.04047   0.36939   0.00000  Uiso   1.00
H52    H     0.11787   0.26500   0.33742   0.00000  Uiso   1.00
H53    H     0.28697   0.24198   0.21200   0.00000  Uiso   1.00
N54    N     0.04931   0.16666   0.24999   0.00000  Uiso   1.00
N55    N     0.28402   0.16669   0.24999   0.00000  Uiso   1.00
N56    N     0.29035   0.14803   0.08412   0.00000  Uiso   1.00
N57    N     0.20827   0.04012   0.15657   0.00000  Uiso   1.00
N58    N     0.11958   0.04797   0.33965   0.00000  Uiso   1.00
N59    N     0.29443   0.24280   0.24780   0.00000  Uiso   1.00
N60    N     0.28950   0.20981   0.41714   0.00000  Uiso   1.00
N61    N     0.08235   0.21692   0.06388   0.00000  Uiso   1.00
N62    N     0.21695   0.23276   0.37288   0.00000  Uiso   1.00
O63    O     0.12708   0.22678   0.25001   0.00000  Uiso   1.00
O64    O     0.03896   0.23351   0.28999   0.00000  Uiso   1.00
O65    O     0.05586   0.09997   0.20647   0.00000  Uiso   1.00
O66    O     0.29685   0.09835   0.21140   0.00000  Uiso   1.00
O67    O     0.30469   0.14621   0.48100   0.00000  Uiso   1.00
O68    O     0.12497   0.14737   0.08612   0.00000  Uiso   1.00
O69    O     0.04268   0.17407   0.40847   0.00000  Uiso   1.00
O70    O     0.21175   0.28504   0.16304   0.00000  Uiso   1.00
O71    O     0.20627   0.22679   0.25001   0.00000  Uiso   1.00
O72    O     0.10775   0.16665   0.32549   0.00000  Uiso   1.00
O73    O     0.18694   0.16666   0.32549   0.00000  Uiso   1.00
O74    O     0.12706   0.10654   0.24999   0.00000  Uiso   1.00
O75    O     0.20625   0.10655   0.24999   0.00000  Uiso   1.00
O76    O     0.14640   0.16667   0.17451   0.00000  Uiso   1.00
O77    O     0.22559   0.16668   0.17451   0.00000  Uiso   1.00
O78    O     0.11749   0.29559   0.34140   0.00000  Uiso   1.00
C79    C     0.49987   0.24563   0.25087   0.00000  Uiso   1.00
C80    C     0.45972   0.18066   0.40623   0.00000  Uiso   1.00
C81    C     0.52293   0.30973   0.20561   0.00000  Uiso   1.00
C82    C     0.47460   0.17046   0.34966   0.00000  Uiso   1.00
C83    C     0.52188   0.01989   0.20418   0.00000  Uiso   1.00
C84    C     0.49955   0.04294   0.24928   0.00000  Uiso   1.00
C85    C     0.47604   0.02342   0.29466   0.00000  Uiso   1.00
C86    C     0.47523   0.31350   0.29592   0.00000  Uiso   1.00
C87    C     0.49966   0.29033   0.25132   0.00000  Uiso   1.00
C88    C     0.64116   0.20239   0.25977   0.00000  Uiso   1.00
C89    C     0.35418   0.20032   0.26780   0.00000  Uiso   1.00
C90    C     0.47813   0.18813   0.48930   0.00000  Uiso   1.00
C91    C     0.36216   0.13303   0.23130   0.00000  Uiso   1.00
C92    C     0.64610   0.13231   0.23367   0.00000  Uiso   1.00
C93    C     0.50004   0.08768   0.24915   0.00000  Uiso   1.00
C94    C     0.52511   0.16492   0.15024   0.00000  Uiso   1.00
C95    C     0.59595   0.16326   0.01020   0.00000  Uiso   1.00
C96    C     0.53777   0.16445   0.09325   0.00000  Uiso   1.00
C97    C     0.41078   0.18229   0.43284   0.00000  Uiso   1.00
C98    C     0.39670   0.19533   0.48439   0.00000  Uiso   1.00
C99    C     0.42987   0.19807   0.01331   0.00000  Uiso   1.00
C100   C     0.49306   0.18971   0.43510   0.00000  Uiso   1.00
C101   C     0.51308   0.17964   0.01587   0.00000  Uiso   1.00
C102   C     0.56168   0.17947   0.48790   0.00000  Uiso   1.00
C103   C     0.57482   0.19648   0.43889   0.00000  Uiso   1.00
C104   C     0.53982   0.20376   0.41347   0.00000  Uiso   1.00
C105   C     0.50130   0.16714   0.06728   0.00000  Uiso   1.00
C106   C     0.58558   0.16008   0.06319   0.00000  Uiso   1.00
Cu107  Cu    0.45311   0.16666   0.25000   0.00000  Uiso   1.00
Cu108  Cu    0.54689   0.16667   0.25000   0.00000  Uiso   1.00
H109   H     0.35961   0.20238   0.00260   0.00000  Uiso   1.00
H110   H     0.60144   0.25676   0.27744   0.00000  Uiso   1.00
H111   H     0.34608   0.25302   0.30653   0.00000  Uiso   1.00
H112   H     0.41967   0.11143   0.18607   0.00000  Uiso   1.00
H113   H     0.61301   0.10962   0.18786   0.00000  Uiso   1.00
H114   H     0.63487   0.19594   0.38042   0.00000  Uiso   1.00
H115   H     0.62289   0.24201   0.41333   0.00000  Uiso   1.00
H116   H     0.63258   0.13560   0.44812   0.00000  Uiso   1.00
H117   H     0.43909   0.16446   0.11515   0.00000  Uiso   1.00
H118   H     0.38062   0.14466   0.39604   0.00000  Uiso   1.00
H119   H     0.38495   0.20189   0.08473   0.00000  Uiso   1.00
H120   H     0.63088   0.17207   0.10786   0.00000  Uiso   1.00
H121   H     0.40619   0.24772   0.06037   0.00000  Uiso   1.00
H122   H     0.51964   0.24164   0.36284   0.00000  Uiso   1.00
H123   H     0.57348   0.21785   0.34162   0.00000  Uiso   1.00
H124   H     0.56191   0.30253   0.13438   0.00000  Uiso   1.00
H125   H     0.61402   0.12090   0.10445   0.00000  Uiso   1.00
H126   H     0.51506   0.05832   0.14845   0.00000  Uiso   1.00
H127   H     0.56919   0.05952   0.16079   0.00000  Uiso   1.00
H128   H     0.41681   0.03996   0.35053   0.00000  Uiso   1.00
H129   H     0.46787   0.04047   0.36939   0.00000  Uiso   1.00
H130   H     0.45121   0.26500   0.33742   0.00000  Uiso   1.00
H131   H     0.62030   0.24198   0.21200   0.00000  Uiso   1.00
N132   N     0.38265   0.16666   0.24999   0.00000  Uiso   1.00
N133   N     0.61735   0.16669   0.24999   0.00000  Uiso   1.00
N134   N     0.62368   0.14803   0.08412   0.00000  Uiso   1.00
N135   N     0.54160   0.04012   0.15657   0.00000  Uiso   1.00
N136   N     0.45291   0.04797   0.33965   0.00000  Uiso   1.00
N137   N     0.62776   0.24280   0.24780   0.00000  Uiso   1.00
N138   N     0.62283   0.20981   0.41714   0.00000  Uiso   1.00
N139   N     0.41569   0.21692   0.06388   0.00000  Uiso   1.00
N140   N     0.55028   0.23276   0.37288   0.00000  Uiso   1.00
O141   O     0.46042   0.22678   0.25001   0.00000  Uiso   1.00
O142   O     0.37230   0.23351   0.28999   0.00000  Uiso   1.00
O143   O     0.38919   0.09997   0.20647   0.00000  Uiso   1.00
O144   O     0.63019   0.09835   0.21140   0.00000  Uiso   1.00
O145   O     0.63802   0.14621   0.48100   0.00000  Uiso   1.00
O146   O     0.45830   0.14737   0.08612   0.00000  Uiso   1.00
O147   O     0.37602   0.17407   0.40847   0.00000  Uiso   1.00
O148   O     0.54508   0.28504   0.16304   0.00000  Uiso   1.00
O149   O     0.53961   0.22679   0.25001   0.00000  Uiso   1.00
O150   O     0.44108   0.16665   0.32549   0.00000  Uiso   1.00
O151   O     0.52027   0.16666   0.32549   0.00000  Uiso   1.00
O152   O     0.46039   0.10654   0.24999   0.00000  Uiso   1.00
O153   O     0.53958   0.10655   0.24999   0.00000  Uiso   1.00
O154   O     0.47973   0.16667   0.17451   0.00000  Uiso   1.00
O155   O     0.55892   0.16668   0.17451   0.00000  Uiso   1.00
O156   O     0.45082   0.29559   0.34140   0.00000  Uiso   1.00
C157   C     0.83320   0.24563   0.25087   0.00000  Uiso   1.00
C158   C     0.79306   0.18066   0.40623   0.00000  Uiso   1.00
C159   C     0.85626   0.30973   0.20561   0.00000  Uiso   1.00
C160   C     0.80794   0.17046   0.34966   0.00000  Uiso   1.00
C161   C     0.85521   0.01989   0.20418   0.00000  Uiso   1.00
C162   C     0.83288   0.04294   0.24928   0.00000  Uiso   1.00
C163   C     0.80937   0.02342   0.29466   0.00000  Uiso   1.00
C164   C     0.80856   0.31350   0.29592   0.00000  Uiso   1.00
C165   C     0.83299   0.29033   0.25132   0.00000  Uiso   1.00
C166   C     0.97449   0.20239   0.25977   0.00000  Uiso   1.00
C167   C     0.68752   0.20032   0.26780   0.00000  Uiso   1.00
C168   C     0.81147   0.18813   0.48930   0.00000  Uiso   1.00
C169   C     0.69549   0.13303   0.23130   0.00000  Uiso   1.00
C170   C     0.97944   0.13231   0.23367   0.00000  Uiso   1.00
C171   C     0.83337   0.08768   0.24915   0.00000  Uiso   1.00
C172   C     0.85845   0.16492   0.15024   0.00000  Uiso   1.00
C173   C     0.92929   0.16326   0.01020   0.00000  Uiso   1.00
C174   C     0.87110   0.16445   0.09325   0.00000  Uiso   1.00
C175   C     0.74411   0.18229   0.43284   0.00000  Uiso   1.00
C176   C     0.73003   0.19533   0.48439   0.00000  Uiso   1.00
C177   C     0.76320   0.19807   0.01331   0.00000  Uiso   1.00
C178   C     0.82639   0.18971   0.43510   0.00000  Uiso   1.00
C179   C     0.84642   0.17964   0.01587   0.00000  Uiso   1.00
C180   C     0.89501   0.17947   0.48790   0.00000  Uiso   1.00
C181   C     0.90815   0.19648   0.43889   0.00000  Uiso   1.00
C182   C     0.87315   0.20376   0.41347   0.00000  Uiso   1.00
C183   C     0.83463   0.16714   0.06728   0.00000  Uiso   1.00
C184   C     0.91891   0.16008   0.06319   0.00000  Uiso   1.00
Cu185  Cu    0.78645   0.16666   0.25000   0.00000  Uiso   1.00
Cu186  Cu    0.88022   0.16667   0.25000   0.00000  Uiso   1.00
H187   H     0.69294   0.20238   0.00260   0.00000  Uiso   1.00
H188   H     0.93477   0.25676   0.27744   0.00000  Uiso   1.00
H189   H     0.67941   0.25302   0.30653   0.00000  Uiso   1.00
H190   H     0.75300   0.11143   0.18607   0.00000  Uiso   1.00
H191   H     0.94634   0.10962   0.18786   0.00000  Uiso   1.00
H192   H     0.96821   0.19594   0.38042   0.00000  Uiso   1.00
H193   H     0.95622   0.24201   0.41333   0.00000  Uiso   1.00
H194   H     0.96592   0.13560   0.44812   0.00000  Uiso   1.00
H195   H     0.77243   0.16446   0.11515   0.00000  Uiso   1.00
H196   H     0.71395   0.14466   0.39604   0.00000  Uiso   1.00
H197   H     0.71828   0.20189   0.08473   0.00000  Uiso   1.00
H198   H     0.96422   0.17207   0.10786   0.00000  Uiso   1.00
H199   H     0.73953   0.24772   0.06037   0.00000  Uiso   1.00
H200   H     0.85297   0.24164   0.36284   0.00000  Uiso   1.00
H201   H     0.90681   0.21785   0.34162   0.00000  Uiso   1.00
H202   H     0.89524   0.30253   0.13438   0.00000  Uiso   1.00
H203   H     0.94735   0.12090   0.10445   0.00000  Uiso   1.00
H204   H     0.84839   0.05832   0.14845   0.00000  Uiso   1.00
H205   H     0.90253   0.05952   0.16079   0.00000  Uiso   1.00
H206   H     0.75015   0.03996   0.35053   0.00000  Uiso   1.00
H207   H     0.80120   0.04047   0.36939   0.00000  Uiso   1.00
H208   H     0.78454   0.26500   0.33742   0.00000  Uiso   1.00
H209   H     0.95364   0.24198   0.21200   0.00000  Uiso   1.00
N210   N     0.71598   0.16666   0.24999   0.00000  Uiso   1.00
N211   N     0.95069   0.16669   0.24999   0.00000  Uiso   1.00
N212   N     0.95702   0.14803   0.08412   0.00000  Uiso   1.00
N213   N     0.87494   0.04012   0.15657   0.00000  Uiso   1.00
N214   N     0.78625   0.04797   0.33965   0.00000  Uiso   1.00
N215   N     0.96109   0.24280   0.24780   0.00000  Uiso   1.00
N216   N     0.95616   0.20981   0.41714   0.00000  Uiso   1.00
N217   N     0.74902   0.21692   0.06388   0.00000  Uiso   1.00
N218   N     0.88362   0.23276   0.37288   0.00000  Uiso   1.00
O219   O     0.79375   0.22678   0.25001   0.00000  Uiso   1.00
O220   O     0.70563   0.23351   0.28999   0.00000  Uiso   1.00
O221   O     0.72252   0.09997   0.20647   0.00000  Uiso   1.00
O222   O     0.96352   0.09835   0.21140   0.00000  Uiso   1.00
O223   O     0.97135   0.14621   0.48100   0.00000  Uiso   1.00
O224   O     0.79163   0.14737   0.08612   0.00000  Uiso   1.00
O225   O     0.70935   0.17407   0.40847   0.00000  Uiso   1.00
O226   O     0.87841   0.28504   0.16304   0.00000  Uiso   1.00
O227   O     0.87294   0.22679   0.25001   0.00000  Uiso   1.00
O228   O     0.77441   0.16665   0.32549   0.00000  Uiso   1.00
O229   O     0.85360   0.16666   0.32549   0.00000  Uiso   1.00
O230   O     0.79373   0.10654   0.24999   0.00000  Uiso   1.00
O231   O     0.87292   0.10655   0.24999   0.00000  Uiso   1.00
O232   O     0.81306   0.16667   0.17451   0.00000  Uiso   1.00
O233   O     0.89225   0.16668   0.17451   0.00000  Uiso   1.00
O234   O     0.78416   0.29559   0.34140   0.00000  Uiso   1.00
C235   C     0.16654   0.57896   0.25087   0.00000  Uiso   1.00
C236   C     0.12639   0.51399   0.40623   0.00000  Uiso   1.00
C237   C     0.18959   0.64307   0.20561   0.00000  Uiso   1.00
C238   C     0.14127   0.50379   0.34966   0.00000  Uiso   1.00
C239   C     0.18855   0.35322   0.20418   0.00000  Uiso   1.00
C240   C     0.16622   0.37627   0.24928   0.00000  Uiso   1.00
C241   C     0.14270   0.35675   0.29466   0.00000  Uiso   1.00
C242   C     0.14189   0.64683   0.29592   0.00000  Uiso   1.00
C243   C     0.16633   0.62367   0.25132   0.00000  Uiso   1.00
C244   C     0.30782   0.53573   0.25977   0.00000  Uiso   1.00
C245   C     0.02085   0.53365   0.26780   0.00000  Uiso   1.00
C246   C     0.14480   0.52146   0.48930   0.00000  Uiso   1.00
C247   C     0.02883   0.46637   0.23130   0.00000  Uiso   1.00
C248   C     0.31277   0.46564   0.23367   0.00000  Uiso   1.00
C249   C     0.16671   0.42101   0.24915   0.00000  Uiso   1.00
C250   C     0.19178   0.49825   0.15024   0.00000  Uiso   1.00
C251   C     0.26262   0.49659   0.01020   0.00000  Uiso   1.00
C252   C     0.20443   0.49778   0.09325   0.00000  Uiso   1.00
C253   C     0.07744   0.51562   0.43284   0.00000  Uiso   1.00
C254   C     0.06337   0.52867   0.48439   0.00000  Uiso   1.00
C255   C     0.09653   0.53140   0.01331   0.00000  Uiso   1.00
C256   C     0.15972   0.52305   0.43510   0.00000  Uiso   1.00
C257   C     0.17975   0.51297   0.01587   0.00000  Uiso   1.00
C258   C     0.22835   0.51280   0.48790   0.00000  Uiso   1.00
C259   C     0.24149   0.52981   0.43889   0.00000  Uiso   1.00
C260   C     0.20649   0.53710   0.41347   0.00000  Uiso   1.00
C261   C     0.16796   0.50047   0.06728   0.00000  Uiso   1.00
C262   C     0.25224   0.49342   0.06319   0.00000  Uiso   1.00
Cu263  Cu    0.11978   0.49999   0.25000   0.00000  Uiso   1.00
Cu264  Cu    0.21355   0.50001   0.25000   0.00000  Uiso   1.00
H265   H     0.02628   0.53571   0.00260   0.00000  Uiso   1.00
H266   H     0.26811   0.59009   0.27744   0.00000  Uiso   1.00
H267   H     0.01274   0.58635   0.30653   0.00000  Uiso   1.00
H268   H     0.08634   0.44477   0.18607   0.00000  Uiso   1.00
H269   H     0.27967   0.44295   0.18786   0.00000  Uiso   1.00
H270   H     0.30154   0.52928   0.38042   0.00000  Uiso   1.00
H271   H     0.28955   0.57535   0.41333   0.00000  Uiso   1.00
H272   H     0.29925   0.46894   0.44812   0.00000  Uiso   1.00
H273   H     0.10576   0.49780   0.11515   0.00000  Uiso   1.00
H274   H     0.04728   0.47799   0.39604   0.00000  Uiso   1.00
H275   H     0.05161   0.53523   0.08473   0.00000  Uiso   1.00
H276   H     0.29755   0.50540   0.10786   0.00000  Uiso   1.00
H277   H     0.07286   0.58105   0.06037   0.00000  Uiso   1.00
H278   H     0.18631   0.57498   0.36284   0.00000  Uiso   1.00
H279   H     0.24015   0.55118   0.34162   0.00000  Uiso   1.00
H280   H     0.22858   0.63586   0.13438   0.00000  Uiso   1.00
H281   H     0.28068   0.45423   0.10445   0.00000  Uiso   1.00
H282   H     0.18173   0.39166   0.14845   0.00000  Uiso   1.00
H283   H     0.23586   0.39285   0.16079   0.00000  Uiso   1.00
H284   H     0.08348   0.37329   0.35053   0.00000  Uiso   1.00
H285   H     0.13454   0.37380   0.36939   0.00000  Uiso   1.00
H286   H     0.11787   0.59834   0.33742   0.00000  Uiso   1.00
H287   H     0.28697   0.57531   0.21200   0.00000  Uiso   1.00
N288   N     0.04931   0.49999   0.24999   0.00000  Uiso   1.00
N289   N     0.28402   0.50002   0.24999   0.00000  Uiso   1.00
N290   N     0.29035   0.48137   0.08412   0.00000  Uiso   1.00
N291   N     0.20827   0.37345   0.15657   0.00000  Uiso   1.00
N292   N     0.11958   0.38131   0.33965   0.00000  Uiso   1.00
N293   N     0.29443   0.57613   0.24780   0.00000  Uiso   1.00
N294   N     0.28950   0.54315   0.41714   0.00000  Uiso   1.00
N295   N     0.08235   0.55025   0.06388   0.00000  Uiso   1.00
N296   N     0.21695   0.56609   0.37288   0.00000  Uiso   1.00
O297   O     0.12708   0.56011   0.25001   0.00000  Uiso   1.00
O298   O     0.03896   0.56685   0.28999   0.00000  Uiso   1.00
O299   O     0.05586   0.43330   0.20647   0.00000  Uiso   1.00
O300   O     0.29685   0.43168   0.21140   0.00000  Uiso   1.00
O301   O     0.30469   0.47954   0.48100   0.00000  Uiso   1.00
O302   O     0.12497   0.48070   0.08612   0.00000  Uiso   1.00
O303   O     0.04268   0.50740   0.40847   0.00000  Uiso   1.00
O304   O     0.21175   0.61837   0.16304   0.00000  Uiso   1.00
O305   O     0.20627   0.56012   0.25001   0.00000  Uiso   1.00
O306   O     0.10775   0.49998   0.32549   0.00000  Uiso   1.00
O307   O     0.18694   0.49999   0.32549   0.00000  Uiso   1.00
O308   O     0.12706   0.43988   0.24999   0.00000  Uiso   1.00
O309   O     0.20625   0.43989   0.24999   0.00000  Uiso   1.00
O310   O     0.14640   0.50001   0.17451   0.00000  Uiso   1.00
O311   O     0.22559   0.50002   0.17451   0.00000  Uiso   1.00
O312   O     0.11749   0.62893   0.34140   0.00000  Uiso   1.00
C313   C     0.49987   0.57896   0.25087   0.00000  Uiso   1.00
C314   C     0.45972   0.51399   0.40623   0.00000  Uiso   1.00
C315   C     0.52293   0.64307   0.20561   0.00000  Uiso   1.00
C316   C     0.47460   0.50379   0.34966   0.00000  Uiso   1.00
C317   C     0.52188   0.35322   0.20418   0.00000  Uiso   1.00
C318   C     0.49955   0.37627   0.24928   0.00000  Uiso   1.00
C319   C     0.47604   0.35675   0.29466   0.00000  Uiso   1.00
C320   C     0.47523   0.64683   0.29592   0.00000  Uiso   1.00
C321   C     0.49966   0.62367   0.25132   0.00000  Uiso   1.00
C322   C     0.64116   0.53573   0.25977   0.00000  Uiso   1.00
C323   C     0.35418   0.53365   0.26780   0.00000  Uiso   1.00
C324   C     0.47813   0.52146   0.48930   0.00000  Uiso   1.00
C325   C     0.36216   0.46637   0.23130   0.00000  Uiso   1.00
C326   C     0.64610   0.46564   0.23367   0.00000  Uiso   1.00
C327   C     0.50004   0.42101   0.24915   0.00000  Uiso   1.00
C328   C     0.52511   0.49825   0.15024   0.00000  Uiso   1.00
C329   C     0.59595   0.49659   0.01020   0.00000  Uiso   1.00
C330   C     0.53777   0.49778   0.09325   0.00000  Uiso   1.00
C331   C     0.41078   0.51562   0.43284   0.00000  Uiso   1.00
C332   C     0.39670   0.52867   0.48439   0.00000  Uiso   1.00
C333   C     0.42987   0.53140   0.01331   0.00000  Uiso   1.00
C334   C     0.49306   0.52305   0.43510   0.00000  Uiso   1.00
C335   C     0.51308   0.51297   0.01587   0.00000  Uiso   1.00
C336   C     0.56168   0.51280   0.48790   0.00000  Uiso   1.00
C337   C     0.57482   0.52981   0.43889   0.00000  Uiso   1.00
C338   C     0.53982   0.53710   0.41347   0.00000  Uiso   1.00
C339   C     0.50130   0.50047   0.06728   0.00000  Uiso   1.00
C340   C     0.58558   0.49342   0.06319   0.00000  Uiso   1.00
Cu341  Cu    0.45311   0.49999   0.25000   0.00000  Uiso   1.00
Cu342  Cu    0.54689   0.50001   0.25000   0.00000  Uiso   1.00
H343   H     0.35961   0.53571   0.00260   0.00000  Uiso   1.00
H344   H     0.60144   0.59009   0.27744   0.00000  Uiso   1.00
H345   H     0.34608   0.58635   0.30653   0.00000  Uiso   1.00
H346   H     0.41967   0.44477   0.18607   0.00000  Uiso   1.00
H347   H     0.61301   0.44295   0.18786   0.00000  Uiso   1.00
H348   H     0.63487   0.52928   0.38042   0.00000  Uiso   1.00
H349   H     0.62289   0.57535   0.41333   0.00000  Uiso   1.00
H350   H     0.63258   0.46894   0.44812   0.00000  Uiso   1.00
H351   H     0.43909   0.49780   0.11515   0.00000  Uiso   1.00
H352   H     0.38062   0.47799   0.39604   0.00000  Uiso   1.00
H353   H     0.38495   0.53523   0.08473   0.00000  Uiso   1.00
H354   H     0.63088   0.50540   0.10786   0.00000  Uiso   1.00
H355   H     0.40619   0.58105   0.06037   0.00000  Uiso   1.00
H356   H     0.51964   0.57498   0.36284   0.00000  Uiso   1.00
H357   H     0.57348   0.55118   0.34162   0.00000  Uiso   1.00
H358   H     0.56191   0.63586   0.13438   0.00000  Uiso   1.00
H359   H     0.61402   0.45423   0.10445   0.00000  Uiso   1.00
H360   H     0.51506   0.39166   0.14845   0.00000  Uiso   1.00
H361   H     0.56919   0.39285   0.16079   0.00000  Uiso   1.00
H362   H     0.41681   0.37329   0.35053   0.00000  Uiso   1.00
H363   H     0.46787   0.37380   0.36939   0.00000  Uiso   1.00
H364   H     0.45121   0.59834   0.33742   0.00000  Uiso   1.00
H365   H     0.62030   0.57531   0.21200   0.00000  Uiso   1.00
N366   N     0.38265   0.49999   0.24999   0.00000  Uiso   1.00
N367   N     0.61735   0.50002   0.24999   0.00000  Uiso   1.00
N368   N     0.62368   0.48137   0.08412   0.00000  Uiso   1.00
N369   N     0.54160   0.37345   0.15657   0.00000  Uiso   1.00
N370   N     0.45291   0.38131   0.33965   0.00000  Uiso   1.00
N371   N     0.62776   0.57613   0.24780   0.00000  Uiso   1.00
N372   N     0.62283   0.54315   0.41714   0.00000  Uiso   1.00
N373   N     0.41569   0.55025   0.06388   0.00000  Uiso   1.00
N374   N     0.55028   0.56609   0.37288   0.00000  Uiso   1.00
O375   O     0.46042   0.56011   0.25001   0.00000  Uiso   1.00
O376   O     0.37230   0.56685   0.28999   0.00000  Uiso   1.00
O377   O     0.38919   0.43330   0.20647   0.00000  Uiso   1.00
O378   O     0.63019   0.43168   0.21140   0.00000  Uiso   1.00
O379   O     0.63802   0.47954   0.48100   0.00000  Uiso   1.00
O380   O     0.45830   0.48070   0.08612   0.00000  Uiso   1.00
O381   O     0.37602   0.50740   0.40847   0.00000  Uiso   1.00
O382   O     0.54508   0.61837   0.16304   0.00000  Uiso   1.00
O383   O     0.53961   0.56012   0.25001   0.00000  Uiso   1.00
O384   O     0.44108   0.49998   0.32549   0.00000  Uiso   1.00
O385   O     0.52027   0.49999   0.32549   0.00000  Uiso   1.00
O386   O     0.46039   0.43988   0.24999   0.00000  Uiso   1.00
O387   O     0.53958   0.43989   0.24999   0.00000  Uiso   1.00
O388   O     0.47973   0.50001   0.17451   0.00000  Uiso   1.00
O389   O     0.55892   0.50002   0.17451   0.00000  Uiso   1.00
O390   O     0.45082   0.62893   0.34140   0.00000  Uiso   1.00
C391   C     0.83320   0.57896   0.25087   0.00000  Uiso   1.00
C392   C     0.79306   0.51399   0.40623   0.00000  Uiso   1.00
C393   C     0.85626   0.64307   0.20561   0.00000  Uiso   1.00
C394   C     0.80794   0.50379   0.34966   0.00000  Uiso   1.00
C395   C     0.85521   0.35322   0.20418   0.00000  Uiso   1.00
C396   C     0.83288   0.37627   0.24928   0.00000  Uiso   1.00
C397   C     0.80937   0.35675   0.29466   0.00000  Uiso   1.00
C398   C     0.80856   0.64683   0.29592   0.00000  Uiso   1.00
C399   C     0.83299   0.62367   0.25132   0.00000  Uiso   1.00
C400   C     0.97449   0.53573   0.25977   0.00000  Uiso   1.00
C401   C     0.68752   0.53365   0.26780   0.00000  Uiso   1.00
C402   C     0.81147   0.52146   0.48930   0.00000  Uiso   1.00
C403   C     0.69549   0.46637   0.23130   0.00000  Uiso   1.00
C404   C     0.97944   0.46564   0.23367   0.00000  Uiso   1.00
C405   C     0.83337   0.42101   0.24915   0.00000  Uiso   1.00
C406   C     0.85845   0.49825   0.15024   0.00000  Uiso   1.00
C407   C     0.92929   0.49659   0.01020   0.00000  Uiso   1.00
C408   C     0.87110   0.49778   0.09325   0.00000  Uiso   1.00
C409   C     0.74411   0.51562   0.43284   0.00000  Uiso   1.00
C410   C     0.73003   0.52867   0.48439   0.00000  Uiso   1.00
C411   C     0.76320   0.53140   0.01331   0.00000  Uiso   1.00
C412   C     0.82639   0.52305   0.43510   0.00000  Uiso   1.00
C413   C     0.84642   0.51297   0.01587   0.00000  Uiso   1.00
C414   C     0.89501   0.51280   0.48790   0.00000  Uiso   1.00
C415   C     0.90815   0.52981   0.43889   0.00000  Uiso   1.00
C416   C     0.87315   0.53710   0.41347   0.00000  Uiso   1.00
C417   C     0.83463   0.50047   0.06728   0.00000  Uiso   1.00
C418   C     0.91891   0.49342   0.06319   0.00000  Uiso   1.00
Cu419  Cu    0.78645   0.49999   0.25000   0.00000  Uiso   1.00
Cu420  Cu    0.88022   0.50001   0.25000   0.00000  Uiso   1.00
H421   H     0.69294   0.53571   0.00260   0.00000  Uiso   1.00
H422   H     0.93477   0.59009   0.27744   0.00000  Uiso   1.00
H423   H     0.67941   0.58635   0.30653   0.00000  Uiso   1.00
H424   H     0.75300   0.44477   0.18607   0.00000  Uiso   1.00
H425   H     0.94634   0.44295   0.18786   0.00000  Uiso   1.00
H426   H     0.96821   0.52928   0.38042   0.00000  Uiso   1.00
H427   H     0.95622   0.57535   0.41333   0.00000  Uiso   1.00
H428   H     0.96592   0.46894   0.44812   0.00000  Uiso   1.00
H429   H     0.77243   0.49780   0.11515   0.00000  Uiso   1.00
H430   H     0.71395   0.47799   0.39604   0.00000  Uiso   1.00
H431   H     0.71828   0.53523   0.08473   0.00000  Uiso   1.00
H432   H     0.96422   0.50540   0.10786   0.00000  Uiso   1.00
H433   H     0.73953   0.58105   0.06037   0.00000  Uiso   1.00
H434   H     0.85297   0.57498   0.36284   0.00000  Uiso   1.00
H435   H     0.90681   0.55118   0.34162   0.00000  Uiso   1.00
H436   H     0.89524   0.63586   0.13438   0.00000  Uiso   1.00
H437   H     0.94735   0.45423   0.10445   0.00000  Uiso   1.00
H438   H     0.84839   0.39166   0.14845   0.00000  Uiso   1.00
H439   H     0.90253   0.39285   0.16079   0.00000  Uiso   1.00
H440   H     0.75015   0.37329   0.35053   0.00000  Uiso   1.00
H441   H     0.80120   0.37380   0.36939   0.00000  Uiso   1.00
H442   H     0.78454   0.59834   0.33742   0.00000  Uiso   1.00
H443   H     0.95364   0.57531   0.21200   0.00000  Uiso   1.00
N444   N     0.71598   0.49999   0.24999   0.00000  Uiso   1.00
N445   N     0.95069   0.50002   0.24999   0.00000  Uiso   1.00
N446   N     0.95702   0.48137   0.08412   0.00000  Uiso   1.00
N447   N     0.87494   0.37345   0.15657   0.00000  Uiso   1.00
N448   N     0.78625   0.38131   0.33965   0.00000  Uiso   1.00
N449   N     0.96109   0.57613   0.24780   0.00000  Uiso   1.00
N450   N     0.95616   0.54315   0.41714   0.00000  Uiso   1.00
N451   N     0.74902   0.55025   0.06388   0.00000  Uiso   1.00
N452   N     0.88362   0.56609   0.37288   0.00000  Uiso   1.00
O453   O     0.79375   0.56011   0.25001   0.00000  Uiso   1.00
O454   O     0.70563   0.56685   0.28999   0.00000  Uiso   1.00
O455   O     0.72252   0.43330   0.20647   0.00000  Uiso   1.00
O456   O     0.96352   0.43168   0.21140   0.00000  Uiso   1.00
O457   O     0.97135   0.47954   0.48100   0.00000  Uiso   1.00
O458   O     0.79163   0.48070   0.08612   0.00000  Uiso   1.00
O459   O     0.70935   0.50740   0.40847   0.00000  Uiso   1.00
O460   O     0.87841   0.61837   0.16304   0.00000  Uiso   1.00
O461   O     0.87294   0.56012   0.25001   0.00000  Uiso   1.00
O462   O     0.77441   0.49998   0.32549   0.00000  Uiso   1.00
O463   O     0.85360   0.49999   0.32549   0.00000  Uiso   1.00
O464   O     0.79373   0.43988   0.24999   0.00000  Uiso   1.00
O465   O     0.87292   0.43989   0.24999   0.00000  Uiso   1.00
O466   O     0.81306   0.50001   0.17451   0.00000  Uiso   1.00
O467   O     0.89225   0.50002   0.17451   0.00000  Uiso   1.00
O468   O     0.78416   0.62893   0.34140   0.00000  Uiso   1.00
C469   C     0.16654   0.91230   0.25087   0.00000  Uiso   1.00
C470   C     0.12639   0.84733   0.40623   0.00000  Uiso   1.00
C471   C     0.18959   0.97640   0.20561   0.00000  Uiso   1.00
C472   C     0.14127   0.83713   0.34966   0.00000  Uiso   1.00
C473   C     0.18855   0.68656   0.20418   0.00000  Uiso   1.00
C474   C     0.16622   0.70961   0.24928   0.00000  Uiso   1.00
C475   C     0.14270   0.69008   0.29466   0.00000  Uiso   1.00
C476   C     0.14189   0.98016   0.29592   0.00000  Uiso   1.00
C477   C     0.16633   0.95700   0.25132   0.00000  Uiso   1.00
C478   C     0.30782   0.86906   0.25977   0.00000  Uiso   1.00
C479   C     0.02085   0.86698   0.26780   0.00000  Uiso   1.00
C480   C     0.14480   0.85479   0.48930   0.00000  Uiso   1.00
C481   C     0.02883   0.79970   0.23130   0.00000  Uiso   1.00
C482   C     0.31277   0.79898   0.23367   0.00000  Uiso   1.00
C483   C     0.16671   0.75434   0.24915   0.00000  Uiso   1.00
C484   C     0.19178   0.83158   0.15024   0.00000  Uiso   1.00
C485   C     0.26262   0.82992   0.01020   0.00000  Uiso   1.00
C486   C     0.20443   0.83112   0.09325   0.00000  Uiso   1.00
C487   C     0.07744   0.84895   0.43284   0.00000  Uiso   1.00
C488   C     0.06337   0.86200   0.48439   0.00000  Uiso   1.00
C489   C     0.09653   0.86474   0.01331   0.00000  Uiso   1.00
C490   C     0.15972   0.85638   0.43510   0.00000  Uiso   1.00
C491   C     0.17975   0.84630   0.01587   0.00000  Uiso   1.00
C492   C     0.22835   0.84614   0.48790   0.00000  Uiso   1.00
C493   C     0.24149   0.86315   0.43889   0.00000  Uiso   1.00
C494   C     0.20649   0.87043   0.41347   0.00000  Uiso   1.00
C495   C     0.16796   0.83381   0.06728   0.00000  Uiso   1.00
C496   C     0.25224   0.82675   0.06319   0.00000  Uiso   1.00
Cu497  Cu    0.11978   0.83333   0.25000   0.00000  Uiso   1.00
Cu498  Cu    0.21355   0.83334   0.25000   0.00000  Uiso   1.00
H499   H     0.02628   0.86904   0.00260   0.00000  Uiso   1.00
H500   H     0.26811   0.92342   0.27744   0.00000  Uiso   1.00
H501   H     0.01274   0.91969   0.30653   0.00000  Uiso   1.00
H502   H     0.08634   0.77810   0.18607   0.00000  Uiso   1.00
H503   H     0.27967   0.77628   0.18786   0.00000  Uiso   1.00
H504   H     0.30154   0.86261   0.38042   0.00000  Uiso   1.00
H505   H     0.28955   0.90868   0.41333   0.00000  Uiso   1.00
H506   H     0.29925   0.80227   0.44812   0.00000  Uiso   1.00
H507   H     0.10576   0.83113   0.11515   0.00000  Uiso   1.00
H508   H     0.04728   0.81132   0.39604   0.00000  Uiso   1.00
H509   H     0.05161   0.86856   0.08473   0.00000  Uiso   1.00
H510   H     0.29755   0.83873   0.10786   0.00000  Uiso   1.00
H511   H     0.07286   0.91439   0.06037   0.00000  Uiso   1.00
H512   H     0.18631   0.90831   0.36284   0.00000  Uiso   1.00
H513   H     0.24015   0.88451   0.34162   0.00000  Uiso   1.00
H514   H     0.22858   0.96920   0.13438   0.00000  Uiso   1.00
H515   H     0.28068   0.78756   0.10445   0.00000  Uiso   1.00
H516   H     0.18173   0.72499   0.14845   0.00000  Uiso   1.00
H517   H     0.23586   0.72618   0.16079   0.00000  Uiso   1.00
H518   H     0.08348   0.70663   0.35053   0.00000  Uiso   1.00
H519   H     0.13454   0.70714   0.36939   0.00000  Uiso   1.00
H520   H     0.11787   0.93167   0.33742   0.00000  Uiso   1.00
H521   H     0.28697   0.90864   0.21200   0.00000  Uiso   1.00
N522   N     0.04931   0.83332   0.24999   0.00000  Uiso   1.00
N523   N     0.28402   0.83335   0.24999   0.00000  Uiso   1.00
N524   N     0.29035   0.81470   0.08412   0.00000  Uiso   1.00
N525   N     0.20827   0.70678   0.15657   0.00000  Uiso   1.00
N526   N     0.11958   0.71464   0.33965   0.00000  Uiso   1.00
N527   N     0.29443   0.90947   0.24780   0.00000  Uiso   1.00
N528   N     0.28950   0.87648   0.41714   0.00000  Uiso   1.00
N529   N     0.08235   0.88359   0.06388   0.00000  Uiso   1.00
N530   N     0.21695   0.89943   0.37288   0.00000  Uiso   1.00
O531   O     0.12708   0.89345   0.25001   0.00000  Uiso   1.00
O532   O     0.03896   0.90018   0.28999   0.00000  Uiso   1.00
O533   O     0.05586   0.76663   0.20647   0.00000  Uiso   1.00
O534   O     0.29685   0.76501   0.21140   0.00000  Uiso   1.00
O535   O     0.30469   0.81288   0.48100   0.00000  Uiso   1.00
O536   O     0.12497   0.81403   0.08612   0.00000  Uiso   1.00
O537   O     0.04268   0.84074   0.40847   0.00000  Uiso   1.00
O538   O     0.21175   0.95170   0.16304   0.00000  Uiso   1.00
O539   O     0.20627   0.89346   0.25001   0.00000  Uiso   1.00
O540   O     0.10775   0.83332   0.32549   0.00000  Uiso   1.00
O541   O     0.18694   0.83333   0.32549   0.00000  Uiso   1.00
O542   O     0.12706   0.77321   0.24999   0.00000  Uiso   1.00
O543   O     0.20625   0.77322   0.24999   0.00000  Uiso   1.00
O544   O     0.14640   0.83334   0.17451   0.00000  Uiso   1.00
O545   O     0.22559   0.83335   0.17451   0.00000  Uiso   1.00
O546   O     0.11749   0.96226   0.34140   0.00000  Uiso   1.00
C547   C     0.49987   0.91230   0.25087   0.00000  Uiso   1.00
C548   C     0.45972   0.84733   0.40623   0.00000  Uiso   1.00
C549   C     0.52293   0.97640   0.20561   0.00000  Uiso   1.00
C550   C     0.47460   0.83713   0.34966   0.00000  Uiso   1.00
C551   C     0.52188   0.68656   0.20418   0.00000  Uiso   1.00
C552   C     0.49955   0.70961   0.24928   0.00000  Uiso   1.00
C553   C     0.47604   0.69008   0.29466   0.00000  Uiso   1.00
C554   C     0.47523   0.98016   0.29592   0.00000  Uiso   1.00
C555   C     0.49966   0.95700   0.25132   0.00000  Uiso   1.00
C556   C     0.64116   0.86906   0.25977   0.00000  Uiso   1.00
C557   C     0.35418   0.86698   0.26780   0.00000  Uiso   1.00
C558   C     0.47813   0.85479   0.48930   0.00000  Uiso   1.00
C559   C     0.36216   0.79970   0.23130   0.00000  Uiso   1.00
C560   C     0.64610   0.79898   0.23367   0.00000  Uiso   1.00
C561   C     0.50004   0.75434   0.24915   0.00000  Uiso   1.00
C562   C     0.52511   0.83158   0.15024   0.00000  Uiso   1.00
C563   C     0.59595   0.82992   0.01020   0.00000  Uiso   1.00
C564   C     0.53777   0.83112   0.09325   0.00000  Uiso   1.00
C565   C     0.41078   0.84895   0.43284   0.00000  Uiso   1.00
C566   C     0.39670   0.86200   0.48439   0.00000  Uiso   1.00
C567   C     0.42987   0.86474   0.01331   0.00000  Uiso   1.00
C568   C     0.49306   0.85638   0.43510   0.00000  Uiso   1.00
C569   C     0.51308   0.84630   0.01587   0.00000  Uiso   1.00
C570   C     0.56168   0.84614   0.48790   0.00000  Uiso   1.00
C571   C     0.57482   0.86315   0.43889   0.00000  Uiso   1.00
C572   C     0.53982   0.87043   0.41347   0.00000  Uiso   1.00
C573   C     0.50130   0.83381   0.06728   0.00000  Uiso   1.00
C574   C     0.58558   0.82675   0.06319   0.00000  Uiso   1.00
Cu575  Cu    0.45311   0.83333   0.25000   0.00000  Uiso   1.00
Cu576  Cu    0.54689   0.83334   0.25000   0.00000  Uiso   1.00
H577   H     0.35961   0.86904   0.00260   0.00000  Uiso   1.00
H578   H     0.60144   0.92342   0.27744   0.00000  Uiso   1.00
H579   H     0.34608   0.91969   0.30653   0.00000  Uiso   1.00
H580   H     0.41967   0.77810   0.18607   0.00000  Uiso   1.00
H581   H     0.61301   0.77628   0.18786   0.00000  Uiso   1.00
H582   H     0.63487   0.86261   0.38042   0.00000  Uiso   1.00
H583   H     0.62289   0.90868   0.41333   0.00000  Uiso   1.00
H584   H     0.63258   0.80227   0.44812   0.00000  Uiso   1.00
H585   H     0.43909   0.83113   0.11515   0.00000  Uiso   1.00
H586   H     0.38062   0.81132   0.39604   0.00000  Uiso   1.00
H587   H     0.38495   0.86856   0.08473   0.00000  Uiso   1.00
H588   H     0.63088   0.83873   0.10786   0.00000  Uiso   1.00
H589   H     0.40619   0.91439   0.06037   0.00000  Uiso   1.00
H590   H     0.51964   0.90831   0.36284   0.00000  Uiso   1.00
H591   H     0.57348   0.88451   0.34162   0.00000  Uiso   1.00
H592   H     0.56191   0.96920   0.13438   0.00000  Uiso   1.00
H593   H     0.61402   0.78756   0.10445   0.00000  Uiso   1.00
H594   H     0.51506   0.72499   0.14845   0.00000  Uiso   1.00
H595   H     0.56919   0.72618   0.16079   0.00000  Uiso   1.00
H596   H     0.41681   0.70663   0.35053   0.00000  Uiso   1.00
H597   H     0.46787   0.70714   0.36939   0.00000  Uiso   1.00
H598   H     0.45121   0.93167   0.33742   0.00000  Uiso   1.00
H599   H     0.62030   0.90864   0.21200   0.00000  Uiso   1.00
N600   N     0.38265   0.83332   0.24999   0.00000  Uiso   1.00
N601   N     0.61735   0.83335   0.24999   0.00000  Uiso   1.00
N602   N     0.62368   0.81470   0.08412   0.00000  Uiso   1.00
N603   N     0.54160   0.70678   0.15657   0.00000  Uiso   1.00
N604   N     0.45291   0.71464   0.33965   0.00000  Uiso   1.00
N605   N     0.62776   0.90947   0.24780   0.00000  Uiso   1.00
N606   N     0.62283   0.87648   0.41714   0.00000  Uiso   1.00
N607   N     0.41569   0.88359   0.06388   0.00000  Uiso   1.00
N608   N     0.55028   0.89943   0.37288   0.00000  Uiso   1.00
O609   O     0.46042   0.89345   0.25001   0.00000  Uiso   1.00
O610   O     0.37230   0.90018   0.28999   0.00000  Uiso   1.00
O611   O     0.38919   0.76663   0.20647   0.00000  Uiso   1.00
O612   O     0.63019   0.76501   0.21140   0.00000  Uiso   1.00
O613   O     0.63802   0.81288   0.48100   0.00000  Uiso   1.00
O614   O     0.45830   0.81403   0.08612   0.00000  Uiso   1.00
O615   O     0.37602   0.84074   0.40847   0.00000  Uiso   1.00
O616   O     0.54508   0.95170   0.16304   0.00000  Uiso   1.00
O617   O     0.53961   0.89346   0.25001   0.00000  Uiso   1.00
O618   O     0.44108   0.83332   0.32549   0.00000  Uiso   1.00
O619   O     0.52027   0.83333   0.32549   0.00000  Uiso   1.00
O620   O     0.46039   0.77321   0.24999   0.00000  Uiso   1.00
O621   O     0.53958   0.77322   0.24999   0.00000  Uiso   1.00
O622   O     0.47973   0.83334   0.17451   0.00000  Uiso   1.00
O623   O     0.55892   0.83335   0.17451   0.00000  Uiso   1.00
O624   O     0.45082   0.96226   0.34140   0.00000  Uiso   1.00
C625   C     0.83320   0.91230   0.25087   0.00000  Uiso   1.00
C626   C     0.79306   0.84733   0.40623   0.00000  Uiso   1.00
C627   C     0.85626   0.97640   0.20561   0.00000  Uiso   1.00
C628   C     0.80794   0.83713   0.34966   0.00000  Uiso   1.00
C629   C     0.85521   0.68656   0.20418   0.00000  Uiso   1.00
C630   C     0.83288   0.70961   0.24928   0.00000  Uiso   1.00
C631   C     0.80937   0.69008   0.29466   0.00000  Uiso   1.00
C632   C     0.80856   0.98016   0.29592   0.00000  Uiso   1.00
C633   C     0.83299   0.95700   0.25132   0.00000  Uiso   1.00
C634   C     0.97449   0.86906   0.25977   0.00000  Uiso   1.00
C635   C     0.68752   0.86698   0.26780   0.00000  Uiso   1.00
C636   C     0.81147   0.85479   0.48930   0.00000  Uiso   1.00
C637   C     0.69549   0.79970   0.23130   0.00000  Uiso   1.00
C638   C     0.97944   0.79898   0.23367   0.00000  Uiso   1.00
C639   C     0.83337   0.75434   0.24915   0.00000  Uiso   1.00
C640   C     0.85845   0.83158   0.15024   0.00000  Uiso   1.00
C641   C     0.92929   0.82992   0.01020   0.00000  Uiso   1.00
C642   C     0.87110   0.83112   0.09325   0.00000  Uiso   1.00
C643   C     0.74411   0.84895   0.43284   0.00000  Uiso   1.00
C644   C     0.73003   0.86200   0.48439   0.00000  Uiso   1.00
C645   C     0.76320   0.86474   0.01331   0.00000  Uiso   1.00
C646   C     0.82639   0.85638   0.43510   0.00000  Uiso   1.00
C647   C     0.84642   0.84630   0.01587   0.00000  Uiso   1.00
C648   C     0.89501   0.84614   0.48790   0.00000  Uiso   1.00
C649   C     0.90815   0.86315   0.43889   0.00000  Uiso   1.00
C650   C     0.87315   0.87043   0.41347   0.00000  Uiso   1.00
C651   C     0.83463   0.83381   0.06728   0.00000  Uiso   1.00
C652   C     0.91891   0.82675   0.06319   0.00000  Uiso   1.00
Cu653  Cu    0.78645   0.83333   0.25000   0.00000  Uiso   1.00
Cu654  Cu    0.88022   0.83334   0.25000   0.00000  Uiso   1.00
H655   H     0.69294   0.86904   0.00260   0.00000  Uiso   1.00
H656   H     0.93477   0.92342   0.27744   0.00000  Uiso   1.00
H657   H     0.67941   0.91969   0.30653   0.00000  Uiso   1.00
H658   H     0.75300   0.77810   0.18607   0.00000  Uiso   1.00
H659   H     0.94634   0.77628   0.18786   0.00000  Uiso   1.00
H660   H     0.96821   0.86261   0.38042   0.00000  Uiso   1.00
H661   H     0.95622   0.90868   0.41333   0.00000  Uiso   1.00
H662   H     0.96592   0.80227   0.44812   0.00000  Uiso   1.00
H663   H     0.77243   0.83113   0.11515   0.00000  Uiso   1.00
H664   H     0.71395   0.81132   0.39604   0.00000  Uiso   1.00
H665   H     0.71828   0.86856   0.08473   0.00000  Uiso   1.00
H666   H     0.96422   0.83873   0.10786   0.00000  Uiso   1.00
H667   H     0.73953   0.91439   0.06037   0.00000  Uiso   1.00
H668   H     0.85297   0.90831   0.36284   0.00000  Uiso   1.00
H669   H     0.90681   0.88451   0.34162   0.00000  Uiso   1.00
H670   H     0.89524   0.96920   0.13438   0.00000  Uiso   1.00
H671   H     0.94735   0.78756   0.10445   0.00000  Uiso   1.00
H672   H     0.84839   0.72499   0.14845   0.00000  Uiso   1.00
H673   H     0.90253   0.72618   0.16079   0.00000  Uiso   1.00
H674   H     0.75015   0.70663   0.35053   0.00000  Uiso   1.00
H675   H     0.80120   0.70714   0.36939   0.00000  Uiso   1.00
H676   H     0.78454   0.93167   0.33742   0.00000  Uiso   1.00
H677   H     0.95364   0.90864   0.21200   0.00000  Uiso   1.00
N678   N     0.71598   0.83332   0.24999   0.00000  Uiso   1.00
N679   N     0.95069   0.83335   0.24999   0.00000  Uiso   1.00
N680   N     0.95702   0.81470   0.08412   0.00000  Uiso   1.00
N681   N     0.87494   0.70678   0.15657   0.00000  Uiso   1.00
N682   N     0.78625   0.71464   0.33965   0.00000  Uiso   1.00
N683   N     0.96109   0.90947   0.24780   0.00000  Uiso   1.00
N684   N     0.95616   0.87648   0.41714   0.00000  Uiso   1.00
N685   N     0.74902   0.88359   0.06388   0.00000  Uiso   1.00
N686   N     0.88362   0.89943   0.37288   0.00000  Uiso   1.00
O687   O     0.79375   0.89345   0.25001   0.00000  Uiso   1.00
O688   O     0.70563   0.90018   0.28999   0.00000  Uiso   1.00
O689   O     0.72252   0.76663   0.20647   0.00000  Uiso   1.00
O690   O     0.96352   0.76501   0.21140   0.00000  Uiso   1.00
O691   O     0.97135   0.81288   0.48100   0.00000  Uiso   1.00
O692   O     0.79163   0.81403   0.08612   0.00000  Uiso   1.00
O693   O     0.70935   0.84074   0.40847   0.00000  Uiso   1.00
O694   O     0.87841   0.95170   0.16304   0.00000  Uiso   1.00
O695   O     0.87294   0.89346   0.25001   0.00000  Uiso   1.00
O696   O     0.77441   0.83332   0.32549   0.00000  Uiso   1.00
O697   O     0.85360   0.83333   0.32549   0.00000  Uiso   1.00
O698   O     0.79373   0.77321   0.24999   0.00000  Uiso   1.00
O699   O     0.87292   0.77322   0.24999   0.00000  Uiso   1.00
O700   O     0.81306   0.83334   0.17451   0.00000  Uiso   1.00
O701   O     0.89225   0.83335   0.17451   0.00000  Uiso   1.00
O702   O     0.78416   0.96226   0.34140   0.00000  Uiso   1.00
C703   C     0.16654   0.24563   0.75087   0.00000  Uiso   1.00
C704   C     0.12639   0.18066   0.90623   0.00000  Uiso   1.00
C705   C     0.18959   0.30973   0.70561   0.00000  Uiso   1.00
C706   C     0.14127   0.17046   0.84966   0.00000  Uiso   1.00
C707   C     0.18855   0.01989   0.70418   0.00000  Uiso   1.00
C708   C     0.16622   0.04294   0.74928   0.00000  Uiso   1.00
C709   C     0.14270   0.02342   0.79466   0.00000  Uiso   1.00
C710   C     0.14189   0.31350   0.79592   0.00000  Uiso   1.00
C711   C     0.16633   0.29033   0.75132   0.00000  Uiso   1.00
C712   C     0.30782   0.20239   0.75977   0.00000  Uiso   1.00
C713   C     0.02085   0.20032   0.76780   0.00000  Uiso   1.00
C714   C     0.14480   0.18813   0.98930   0.00000  Uiso   1.00
C715   C     0.02883   0.13303   0.73130   0.00000  Uiso   1.00
C716   C     0.31277   0.13231   0.73367   0.00000  Uiso   1.00
C717   C     0.16671   0.08768   0.74915   0.00000  Uiso   1.00
C718   C     0.19178   0.16492   0.65024   0.00000  Uiso   1.00
C719   C     0.26262   0.16326   0.51020   0.00000  Uiso   1.00
C720   C     0.20443   0.16445   0.59325   0.00000  Uiso   1.00
C721   C     0.07744   0.18229   0.93284   0.00000  Uiso   1.00
C722   C     0.06337   0.19533   0.98439   0.00000  Uiso   1.00
C723   C     0.09653   0.19807   0.51331   0.00000  Uiso   1.00
C724   C     0.15972   0.18971   0.93510   0.00000  Uiso   1.00
C725   C     0.17975   0.17964   0.51587   0.00000  Uiso   1.00
C726   C     0.22835   0.17947   0.98790   0.00000  Uiso   1.00
C727   C     0.24149   0.19648   0.93889   0.00000  Uiso   1.00
C728   C     0.20649   0.20376   0.91347   0.00000  Uiso   1.00
C729   C     0.16796   0.16714   0.56728   0.00000  Uiso   1.00
C730   C     0.25224   0.16008   0.56319   0.00000  Uiso   1.00
Cu731  Cu    0.11978   0.16666   0.75000   0.00000  Uiso   1.00
Cu732  Cu    0.21355   0.16667   0.75000   0.00000  Uiso   1.00
H733   H     0.02628   0.20238   0.50260   0.00000  Uiso   1.00
H734   H     0.26811   0.25676   0.77744   0.00000  Uiso   1.00
H735   H     0.01274   0.25302   0.80653   0.00000  Uiso   1.00
H736   H     0.08634   0.11143   0.68607   0.00000  Uiso   1.00
H737   H     0.27967   0.10962   0.68786   0.00000  Uiso   1.00
H738   H     0.30154   0.19594   0.88042   0.00000  Uiso   1.00
H739   H     0.28955   0.24201   0.91333   0.00000  Uiso   1.00
H740   H     0.29925   0.13560   0.94812   0.00000  Uiso   1.00
H741   H     0.10576   0.16446   0.61515   0.00000  Uiso   1.00
H742   H     0.04728   0.14466   0.89604   0.00000  Uiso   1.00
H743   H     0.05161   0.20189   0.58473   0.00000  Uiso   1.00
H744   H     0.29755   0.17207   0.60786   0.00000  Uiso   1.00
H745   H     0.07286   0.24772   0.56037   0.00000  Uiso   1.00
H746   H     0.18631   0.24164   0.86284   0.00000  Uiso   1.00
H747   H     0.24015   0.21785   0.84162   0.00000  Uiso   1.00
H748   H     0.22858   0.30253   0.63438   0.00000  Uiso   1.00
H749   H     0.28068   0.12090   0.60445   0.00000  Uiso   1.00
H750   H     0.18173   0.05832   0.64845   0.00000  Uiso   1.00
H751   H     0.23586   0.05952   0.66079   0.00000  Uiso   1.00
H752   H     0.08348   0.03996   0.85053   0.00000  Uiso   1.00
H753   H     0.13454   0.04047   0.86939   0.00000  Uiso   1.00
H754   H     0.11787   0.26500   0.83742   0.00000  Uiso   1.00
H755   H     0.28697   0.24198   0.71200   0.00000  Uiso   1.00
N756   N     0.04931   0.16666   0.74999   0.00000  Uiso   1.00
N757   N     0.28402   0.16669   0.74999   0.00000  Uiso   1.00
N758   N     0.29035   0.14803   0.58412   0.00000  Uiso   1.00
N759   N     0.20827   0.04012   0.65657   0.00000  Uiso   1.00
N760   N     0.11958   0.04797   0.83965   0.00000  Uiso   1.00
N761   N     0.29443   0.24280   0.74780   0.00000  Uiso   1.00
N762   N     0.28950   0.20981   0.91714   0.00000  Uiso   1.00
N763   N     0.08235   0.21692   0.56388   0.00000  Uiso   1.00
N764   N     0.21695   0.23276   0.87288   0.00000  Uiso   1.00
O765   O     0.12708   0.22678   0.75001   0.00000  Uiso   1.00
O766   O     0.03896   0.23351   0.78999   0.00000  Uiso   1.00
O767   O     0.05586   0.09997   0.70647   0.00000  Uiso   1.00
O768   O     0.29685   0.09835   0.71140   0.00000  Uiso   1.00
O769   O     0.30469   0.14621   0.98100   0.00000  Uiso   1.00
O770   O     0.12497   0.14737   0.58612   0.00000  Uiso   1.00
O771   O     0.04268   0.17407   0.90847   0.00000  Uiso   1.00
O772   O     0.21175   0.28504   0.66304   0.00000  Uiso   1.00
O773   O     0.20627   0.22679   0.75001   0.00000  Uiso   1.00
O774   O     0.10775   0.16665   0.82549   0.00000  Uiso   1.00
O775   O     0.18694   0.16666   0.82549   0.00000  Uiso   1.00
O776   O     0.12706   0.10654   0.74999   0.00000  Uiso   1.00
O777   O     0.20625   0.10655   0.74999   0.00000  Uiso   1.00
O778   O     0.14640   0.16667   0.67451   0.00000  Uiso   1.00
O779   O     0.22559   0.16668   0.67451   0.00000  Uiso   1.00
O780   O     0.11749   0.29559   0.84140   0.00000  Uiso   1.00
C781   C     0.49987   0.24563   0.75087   0.00000  Uiso   1.00
C782   C     0.45972   0.18066   0.90623   0.00000  Uiso   1.00
C783   C     0.52293   0.30973   0.70561   0.00000  Uiso   1.00
C784   C     0.47460   0.17046   0.84966   0.00000  Uiso   1.00
C785   C     0.52188   0.01989   0.70418   0.00000  Uiso   1.00
C786   C     0.49955   0.04294   0.74928   0.00000  Uiso   1.00
C787   C     0.47604   0.02342   0.79466   0.00000  Uiso   1.00
C788   C     0.47523   0.31350   0.79592   0.00000  Uiso   1.00
C789   C     0.49966   0.29033   0.75132   0.00000  Uiso   1.00
C790   C     0.64116   0.20239   0.75977   0.00000  Uiso   1.00
C791   C     0.35418   0.20032   0.76780   0.00000  Uiso   1.00
C792   C     0.47813   0.18813   0.98930   0.00000  Uiso   1.00
C793   C     0.36216   0.13303   0.73130   0.00000  Uiso   1.00
C794   C     0.64610   0.13231   0.73367   0.00000  Uiso   1.00
C795   C     0.50004   0.08768   0.74915   0.00000  Uiso   1.00
C796   C     0.52511   0.16492   0.65024   0.00000  Uiso   1.00
C797   C     0.59595   0.16326   0.51020   0.00000  Uiso   1.00
C798   C     0.53777   0.16445   0.59325   0.00000  Uiso   1.00
C799   C     0.41078   0.18229   0.93284   0.00000  Uiso   1.00
C800   C     0.39670   0.19533   0.98439   0.00000  Uiso   1.00
C801   C     0.42987   0.19807   0.51331   0.00000  Uiso   1.00
C802   C     0.49306   0.18971   0.93510   0.00000  Uiso   1.00
C803   C     0.51308   0.17964   0.51587   0.00000  Uiso   1.00
C804   C     0.56168   0.17947   0.98790   0.00000  Uiso   1.00
C805   C     0.57482   0.19648   0.93889   0.00000  Uiso   1.00
C806   C     0.53982   0.20376   0.91347   0.00000  Uiso   1.00
C807   C     0.50130   0.16714   0.56728   0.00000  Uiso   1.00
C808   C     0.58558   0.16008   0.56319   0.00000  Uiso   1.00
Cu809  Cu    0.45311   0.16666   0.75000   0.00000  Uiso   1.00
Cu810  Cu    0.54689   0.16667   0.75000   0.00000  Uiso   1.00
H811   H     0.35961   0.20238   0.50260   0.00000  Uiso   1.00
H812   H     0.60144   0.25676   0.77744   0.00000  Uiso   1.00
H813   H     0.34608   0.25302   0.80653   0.00000  Uiso   1.00
H814   H     0.41967   0.11143   0.68607   0.00000  Uiso   1.00
H815   H     0.61301   0.10962   0.68786   0.00000  Uiso   1.00
H816   H     0.63487   0.19594   0.88042   0.00000  Uiso   1.00
H817   H     0.62289   0.24201   0.91333   0.00000  Uiso   1.00
H818   H     0.63258   0.13560   0.94812   0.00000  Uiso   1.00
H819   H     0.43909   0.16446   0.61515   0.00000  Uiso   1.00
H820   H     0.38062   0.14466   0.89604   0.00000  Uiso   1.00
H821   H     0.38495   0.20189   0.58473   0.00000  Uiso   1.00
H822   H     0.63088   0.17207   0.60786   0.00000  Uiso   1.00
H823   H     0.40619   0.24772   0.56037   0.00000  Uiso   1.00
H824   H     0.51964   0.24164   0.86284   0.00000  Uiso   1.00
H825   H     0.57348   0.21785   0.84162   0.00000  Uiso   1.00
H826   H     0.56191   0.30253   0.63438   0.00000  Uiso   1.00
H827   H     0.61402   0.12090   0.60445   0.00000  Uiso   1.00
H828   H     0.51506   0.05832   0.64845   0.00000  Uiso   1.00
H829   H     0.56919   0.05952   0.66079   0.00000  Uiso   1.00
H830   H     0.41681   0.03996   0.85053   0.00000  Uiso   1.00
H831   H     0.46787   0.04047   0.86939   0.00000  Uiso   1.00
H832   H     0.45121   0.26500   0.83742   0.00000  Uiso   1.00
H833   H     0.62030   0.24198   0.71200   0.00000  Uiso   1.00
N834   N     0.38265   0.16666   0.74999   0.00000  Uiso   1.00
N835   N     0.61735   0.16669   0.74999   0.00000  Uiso   1.00
N836   N     0.62368   0.14803   0.58412   0.00000  Uiso   1.00
N837   N     0.54160   0.04012   0.65657   0.00000  Uiso   1.00
N838   N     0.45291   0.04797   0.83965   0.00000  Uiso   1.00
N839   N     0.62776   0.24280   0.74780   0.00000  Uiso   1.00
N840   N     0.62283   0.20981   0.91714   0.00000  Uiso   1.00
N841   N     0.41569   0.21692   0.56388   0.00000  Uiso   1.00
N842   N     0.55028   0.23276   0.87288   0.00000  Uiso   1.00
O843   O     0.46042   0.22678   0.75001   0.00000  Uiso   1.00
O844   O     0.37230   0.23351   0.78999   0.00000  Uiso   1.00
O845   O     0.38919   0.09997   0.70647   0.00000  Uiso   1.00
O846   O     0.63019   0.09835   0.71140   0.00000  Uiso   1.00
O847   O     0.63802   0.14621   0.98100   0.00000  Uiso   1.00
O848   O     0.45830   0.14737   0.58612   0.00000  Uiso   1.00
O849   O     0.37602   0.17407   0.90847   0.00000  Uiso   1.00
O850   O     0.54508   0.28504   0.66304   0.00000  Uiso   1.00
O851   O     0.53961   0.22679   0.75001   0.00000  Uiso   1.00
O852   O     0.44108   0.16665   0.82549   0.00000  Uiso   1.00
O853   O     0.52027   0.16666   0.82549   0.00000  Uiso   1.00
O854   O     0.46039   0.10654   0.74999   0.00000  Uiso   1.00
O855   O     0.53958   0.10655   0.74999   0.00000  Uiso   1.00
O856   O     0.47973   0.16667   0.67451   0.00000  Uiso   1.00
O857   O     0.55892   0.16668   0.67451   0.00000  Uiso   1.00
O858   O     0.45082   0.29559   0.84140   0.00000  Uiso   1.00
C859   C     0.83320   0.24563   0.75087   0.00000  Uiso   1.00
C860   C     0.79306   0.18066   0.90623   0.00000  Uiso   1.00
C861   C     0.85626   0.30973   0.70561   0.00000  Uiso   1.00
C862   C     0.80794   0.17046   0.84966   0.00000  Uiso   1.00
C863   C     0.85521   0.01989   0.70418   0.00000  Uiso   1.00
C864   C     0.83288   0.04294   0.74928   0.00000  Uiso   1.00
C865   C     0.80937   0.02342   0.79466   0.00000  Uiso   1.00
C866   C     0.80856   0.31350   0.79592   0.00000  Uiso   1.00
C867   C     0.83299   0.29033   0.75132   0.00000  Uiso   1.00
C868   C     0.97449   0.20239   0.75977   0.00000  Uiso   1.00
C869   C     0.68752   0.20032   0.76780   0.00000  Uiso   1.00
C870   C     0.81147   0.18813   0.98930   0.00000  Uiso   1.00
C871   C     0.69549   0.13303   0.73130   0.00000  Uiso   1.00
C872   C     0.97944   0.13231   0.73367   0.00000  Uiso   1.00
C873   C     0.83337   0.08768   0.74915   0.00000  Uiso   1.00
C874   C     0.85845   0.16492   0.65024   0.00000  Uiso   1.00
C875   C     0.92929   0.16326   0.51020   0.00000  Uiso   1.00
C876   C     0.87110   0.16445   0.59325   0.00000  Uiso   1.00
C877   C     0.74411   0.18229   0.93284   0.00000  Uiso   1.00
C878   C     0.73003   0.19533   0.98439   0.00000  Uiso   1.00
C879   C     0.76320   0.19807   0.51331   0.00000  Uiso   1.00
C880   C     0.82639   0.18971   0.93510   0.00000  Uiso   1.00
C881   C     0.84642   0.17964   0.51587   0.00000  Uiso   1.00
C882   C     0.89501   0.17947   0.98790   0.00000  Uiso   1.00
C883   C     0.90815   0.19648   0.93889   0.00000  Uiso   1.00
C884   C     0.87315   0.20376   0.91347   0.00000  Uiso   1.00
C885   C     0.83463   0.16714   0.56728   0.00000  Uiso   1.00
C886   C     0.91891   0.16008   0.56319   0.00000  Uiso   1.00
Cu887  Cu    0.78645   0.16666   0.75000   0.00000  Uiso   1.00
Cu888  Cu    0.88022   0.16667   0.75000   0.00000  Uiso   1.00
H889   H     0.69294   0.20238   0.50260   0.00000  Uiso   1.00
H890   H     0.93477   0.25676   0.77744   0.00000  Uiso   1.00
H891   H     0.67941   0.25302   0.80653   0.00000  Uiso   1.00
H892   H     0.75300   0.11143   0.68607   0.00000  Uiso   1.00
H893   H     0.94634   0.10962   0.68786   0.00000  Uiso   1.00
H894   H     0.96821   0.19594   0.88042   0.00000  Uiso   1.00
H895   H     0.95622   0.24201   0.91333   0.00000  Uiso   1.00
H896   H     0.96592   0.13560   0.94812   0.00000  Uiso   1.00
H897   H     0.77243   0.16446   0.61515   0.00000  Uiso   1.00
H898   H     0.71395   0.14466   0.89604   0.00000  Uiso   1.00
H899   H     0.71828   0.20189   0.58473   0.00000  Uiso   1.00
H900   H     0.96422   0.17207   0.60786   0.00000  Uiso   1.00
H901   H     0.73953   0.24772   0.56037   0.00000  Uiso   1.00
H902   H     0.85297   0.24164   0.86284   0.00000  Uiso   1.00
H903   H     0.90681   0.21785   0.84162   0.00000  Uiso   1.00
H904   H     0.89524   0.30253   0.63438   0.00000  Uiso   1.00
H905   H     0.94735   0.12090   0.60445   0.00000  Uiso   1.00
H906   H     0.84839   0.05832   0.64845   0.00000  Uiso   1.00
H907   H     0.90253   0.05952   0.66079   0.00000  Uiso   1.00
H908   H     0.75015   0.03996   0.85053   0.00000  Uiso   1.00
H909   H     0.80120   0.04047   0.86939   0.00000  Uiso   1.00
H910   H     0.78454   0.26500   0.83742   0.00000  Uiso   1.00
H911   H     0.95364   0.24198   0.71200   0.00000  Uiso   1.00
N912   N     0.71598   0.16666   0.74999   0.00000  Uiso   1.00
N913   N     0.95069   0.16669   0.74999   0.00000  Uiso   1.00
N914   N     0.95702   0.14803   0.58412   0.00000  Uiso   1.00
N915   N     0.87494   0.04012   0.65657   0.00000  Uiso   1.00
N916   N     0.78625   0.04797   0.83965   0.00000  Uiso   1.00
N917   N     0.96109   0.24280   0.74780   0.00000  Uiso   1.00
N918   N     0.95616   0.20981   0.91714   0.00000  Uiso   1.00
N919   N     0.74902   0.21692   0.56388   0.00000  Uiso   1.00
N920   N     0.88362   0.23276   0.87288   0.00000  Uiso   1.00
O921   O     0.79375   0.22678   0.75001   0.00000  Uiso   1.00
O922   O     0.70563   0.23351   0.78999   0.00000  Uiso   1.00
O923   O     0.72252   0.09997   0.70647   0.00000  Uiso   1.00
O924   O     0.96352   0.09835   0.71140   0.00000  Uiso   1.00
O925   O     0.97135   0.14621   0.98100   0.00000  Uiso   1.00
O926   O     0.79163   0.14737   0.58612   0.00000  Uiso   1.00
O927   O     0.70935   0.17407   0.90847   0.00000  Uiso   1.00
O928   O     0.87841   0.28504   0.66304   0.00000  Uiso   1.00
O929   O     0.87294   0.22679   0.75001   0.00000  Uiso   1.00
O930   O     0.77441   0.16665   0.82549   0.00000  Uiso   1.00
O931   O     0.85360   0.16666   0.82549   0.00000  Uiso   1.00
O932   O     0.79373   0.10654   0.74999   0.00000  Uiso   1.00
O933   O     0.87292   0.10655   0.74999   0.00000  Uiso   1.00
O934   O     0.81306   0.16667   0.67451   0.00000  Uiso   1.00
O935   O     0.89225   0.16668   0.67451   0.00000  Uiso   1.00
O936   O     0.78416   0.29559   0.84140   0.00000  Uiso   1.00
C937   C     0.16654   0.57896   0.75087   0.00000  Uiso   1.00
C938   C     0.12639   0.51399   0.90623   0.00000  Uiso   1.00
C939   C     0.18959   0.64307   0.70561   0.00000  Uiso   1.00
C940   C     0.14127   0.50379   0.84966   0.00000  Uiso   1.00
C941   C     0.18855   0.35322   0.70418   0.00000  Uiso   1.00
C942   C     0.16622   0.37627   0.74928   0.00000  Uiso   1.00
C943   C     0.14270   0.35675   0.79466   0.00000  Uiso   1.00
C944   C     0.14189   0.64683   0.79592   0.00000  Uiso   1.00
C945   C     0.16633   0.62367   0.75132   0.00000  Uiso   1.00
C946   C     0.30782   0.53573   0.75977   0.00000  Uiso   1.00
C947   C     0.02085   0.53365   0.76780   0.00000  Uiso   1.00
C948   C     0.14480   0.52146   0.98930   0.00000  Uiso   1.00
C949   C     0.02883   0.46637   0.73130   0.00000  Uiso   1.00
C950   C     0.31277   0.46564   0.73367   0.00000  Uiso   1.00
C951   C     0.16671   0.42101   0.74915   0.00000  Uiso   1.00
C952   C     0.19178   0.49825   0.65024   0.00000  Uiso   1.00
C953   C     0.26262   0.49659   0.51020   0.00000  Uiso   1.00
C954   C     0.20443   0.49778   0.59325   0.00000  Uiso   1.00
C955   C     0.07744   0.51562   0.93284   0.00000  Uiso   1.00
C956   C     0.06337   0.52867   0.98439   0.00000  Uiso   1.00
C957   C     0.09653   0.53140   0.51331   0.00000  Uiso   1.00
C958   C     0.15972   0.52305   0.93510   0.00000  Uiso   1.00
C959   C     0.17975   0.51297   0.51587   0.00000  Uiso   1.00
C960   C     0.22835   0.51280   0.98790   0.00000  Uiso   1.00
C961   C     0.24149   0.52981   0.93889   0.00000  Uiso   1.00
C962   C     0.20649   0.53710   0.91347   0.00000  Uiso   1.00
C963   C     0.16796   0.50047   0.56728   0.00000  Uiso   1.00
C964   C     0.25224   0.49342   0.56319   0.00000  Uiso   1.00
Cu965  Cu    0.11978   0.49999   0.75000   0.00000  Uiso   1.00
Cu966  Cu    0.21355   0.50001   0.75000   0.00000  Uiso   1.00
H967   H     0.02628   0.53571   0.50260   0.00000  Uiso   1.00
H968   H     0.26811   0.59009   0.77744   0.00000  Uiso   1.00
H969   H     0.01274   0.58635   0.80653   0.00000  Uiso   1.00
H970   H     0.08634   0.44477   0.68607   0.00000  Uiso   1.00
H971   H     0.27967   0.44295   0.68786   0.00000  Uiso   1.00
H972   H     0.30154   0.52928   0.88042   0.00000  Uiso   1.00
H973   H     0.28955   0.57535   0.91333   0.00000  Uiso   1.00
H974   H     0.29925   0.46894   0.94812   0.00000  Uiso   1.00
H975   H     0.10576   0.49780   0.61515   0.00000  Uiso   1.00
H976   H     0.04728   0.47799   0.89604   0.00000  Uiso   1.00
H977   H     0.05161   0.53523   0.58473   0.00000  Uiso   1.00
H978   H     0.29755   0.50540   0.60786   0.00000  Uiso   1.00
H979   H     0.07286   0.58105   0.56037   0.00000  Uiso   1.00
H980   H     0.18631   0.57498   0.86284   0.00000  Uiso   1.00
H981   H     0.24015   0.55118   0.84162   0.00000  Uiso   1.00
H982   H     0.22858   0.63586   0.63438   0.00000  Uiso   1.00
H983   H     0.28068   0.45423   0.60445   0.00000  Uiso   1.00
H984   H     0.18173   0.39166   0.64845   0.00000  Uiso   1.00
H985   H     0.23586   0.39285   0.66079   0.00000  Uiso   1.00
H986   H     0.08348   0.37329   0.85053   0.00000  Uiso   1.00
H987   H     0.13454   0.37380   0.86939   0.00000  Uiso   1.00
H988   H     0.11787   0.59834   0.83742   0.00000  Uiso   1.00
H989   H     0.28697   0.57531   0.71200   0.00000  Uiso   1.00
N990   N     0.04931   0.49999   0.74999   0.00000  Uiso   1.00
N991   N     0.28402   0.50002   0.74999   0.00000  Uiso   1.00
N992   N     0.29035   0.48137   0.58412   0.00000  Uiso   1.00
N993   N     0.20827   0.37345   0.65657   0.00000  Uiso   1.00
N994   N     0.11958   0.38131   0.83965   0.00000  Uiso   1.00
N995   N     0.29443   0.57613   0.74780   0.00000  Uiso   1.00
N996   N     0.28950   0.54315   0.91714   0.00000  Uiso   1.00
N997   N     0.08235   0.55025   0.56388   0.00000  Uiso   1.00
N998   N     0.21695   0.56609   0.87288   0.00000  Uiso   1.00
O999   O     0.12708   0.56011   0.75001   0.00000  Uiso   1.00
O1000  O     0.03896   0.56685   0.78999   0.00000  Uiso   1.00
O1001  O     0.05586   0.43330   0.70647   0.00000  Uiso   1.00
O1002  O     0.29685   0.43168   0.71140   0.00000  Uiso   1.00
O1003  O     0.30469   0.47954   0.98100   0.00000  Uiso   1.00
O1004  O     0.12497   0.48070   0.58612   0.00000  Uiso   1.00
O1005  O     0.04268   0.50740   0.90847   0.00000  Uiso   1.00
O1006  O     0.21175   0.61837   0.66304   0.00000  Uiso   1.00
O1007  O     0.20627   0.56012   0.75001   0.00000  Uiso   1.00
O1008  O     0.10775   0.49998   0.82549   0.00000  Uiso   1.00
O1009  O     0.18694   0.49999   0.82549   0.00000  Uiso   1.00
O1010  O     0.12706   0.43988   0.74999   0.00000  Uiso   1.00
O1011  O     0.20625   0.43989   0.74999   0.00000  Uiso   1.00
O1012  O     0.14640   0.50001   0.67451   0.00000  Uiso   1.00
O1013  O     0.22559   0.50002   0.67451   0.00000  Uiso   1.00
O1014  O     0.11749   0.62893   0.84140   0.00000  Uiso   1.00
C1015  C     0.49987   0.57896   0.75087   0.00000  Uiso   1.00
C1016  C     0.45972   0.51399   0.90623   0.00000  Uiso   1.00
C1017  C     0.52293   0.64307   0.70561   0.00000  Uiso   1.00
C1018  C     0.47460   0.50379   0.84966   0.00000  Uiso   1.00
C1019  C     0.52188   0.35322   0.70418   0.00000  Uiso   1.00
C1020  C     0.49955   0.37627   0.74928   0.00000  Uiso   1.00
C1021  C     0.47604   0.35675   0.79466   0.00000  Uiso   1.00
C1022  C     0.47523   0.64683   0.79592   0.00000  Uiso   1.00
C1023  C     0.49966   0.62367   0.75132   0.00000  Uiso   1.00
C1024  C     0.64116   0.53573   0.75977   0.00000  Uiso   1.00
C1025  C     0.35418   0.53365   0.76780   0.00000  Uiso   1.00
C1026  C     0.47813   0.52146   0.98930   0.00000  Uiso   1.00
C1027  C     0.36216   0.46637   0.73130   0.00000  Uiso   1.00
C1028  C     0.64610   0.46564   0.73367   0.00000  Uiso   1.00
C1029  C     0.50004   0.42101   0.74915   0.00000  Uiso   1.00
C1030  C     0.52511   0.49825   0.65024   0.00000  Uiso   1.00
C1031  C     0.59595   0.49659   0.51020   0.00000  Uiso   1.00
C1032  C     0.53777   0.49778   0.59325   0.00000  Uiso   1.00
C1033  C     0.41078   0.51562   0.93284   0.00000  Uiso   1.00
C1034  C     0.39670   0.52867   0.98439   0.00000  Uiso   1.00
C1035  C     0.42987   0.53140   0.51331   0.00000  Uiso   1.00
C1036  C     0.49306   0.52305   0.93510   0.00000  Uiso   1.00
C1037  C     0.51308   0.51297   0.51587   0.00000  Uiso   1.00
C1038  C     0.56168   0.51280   0.98790   0.00000  Uiso   1.00
C1039  C     0.57482   0.52981   0.93889   0.00000  Uiso   1.00
C1040  C     0.53982   0.53710   0.91347   0.00000  Uiso   1.00
C1041  C     0.50130   0.50047   0.56728   0.00000  Uiso   1.00
C1042  C     0.58558   0.49342   0.56319   0.00000  Uiso   1.00
Cu1043 Cu    0.45311   0.49999   0.75000   0.00000  Uiso   1.00
Cu1044 Cu    0.54689   0.50001   0.75000   0.00000  Uiso   1.00
H1045  H     0.35961   0.53571   0.50260   0.00000  Uiso   1.00
H1046  H     0.60144   0.59009   0.77744   0.00000  Uiso   1.00
H1047  H     0.34608   0.58635   0.80653   0.00000  Uiso   1.00
H1048  H     0.41967   0.44477   0.68607   0.00000  Uiso   1.00
H1049  H     0.61301   0.44295   0.68786   0.00000  Uiso   1.00
H1050  H     0.63487   0.52928   0.88042   0.00000  Uiso   1.00
H1051  H     0.62289   0.57535   0.91333   0.00000  Uiso   1.00
H1052  H     0.63258   0.46894   0.94812   0.00000  Uiso   1.00
H1053  H     0.43909   0.49780   0.61515   0.00000  Uiso   1.00
H1054  H     0.38062   0.47799   0.89604   0.00000  Uiso   1.00
H1055  H     0.38495   0.53523   0.58473   0.00000  Uiso   1.00
H1056  H     0.63088   0.50540   0.60786   0.00000  Uiso   1.00
H1057  H     0.40619   0.58105   0.56037   0.00000  Uiso   1.00
H1058  H     0.51964   0.57498   0.86284   0.00000  Uiso   1.00
H1059  H     0.57348   0.55118   0.84162   0.00000  Uiso   1.00
H1060  H     0.56191   0.63586   0.63438   0.00000  Uiso   1.00
H1061  H     0.61402   0.45423   0.60445   0.00000  Uiso   1.00
H1062  H     0.51506   0.39166   0.64845   0.00000  Uiso   1.00
H1063  H     0.56919   0.39285   0.66079   0.00000  Uiso   1.00
H1064  H     0.41681   0.37329   0.85053   0.00000  Uiso   1.00
H1065  H     0.46787   0.37380   0.86939   0.00000  Uiso   1.00
H1066  H     0.45121   0.59834   0.83742   0.00000  Uiso   1.00
H1067  H     0.62030   0.57531   0.71200   0.00000  Uiso   1.00
N1068  N     0.38265   0.49999   0.74999   0.00000  Uiso   1.00
N1069  N     0.61735   0.50002   0.74999   0.00000  Uiso   1.00
N1070  N     0.62368   0.48137   0.58412   0.00000  Uiso   1.00
N1071  N     0.54160   0.37345   0.65657   0.00000  Uiso   1.00
N1072  N     0.45291   0.38131   0.83965   0.00000  Uiso   1.00
N1073  N     0.62776   0.57613   0.74780   0.00000  Uiso   1.00
N1074  N     0.62283   0.54315   0.91714   0.00000  Uiso   1.00
N1075  N     0.41569   0.55025   0.56388   0.00000  Uiso   1.00
N1076  N     0.55028   0.56609   0.87288   0.00000  Uiso   1.00
O1077  O     0.46042   0.56011   0.75001   0.00000  Uiso   1.00
O1078  O     0.37230   0.56685   0.78999   0.00000  Uiso   1.00
O1079  O     0.38919   0.43330   0.70647   0.00000  Uiso   1.00
O1080  O     0.63019   0.43168   0.71140   0.00000  Uiso   1.00
O1081  O     0.63802   0.47954   0.98100   0.00000  Uiso   1.00
O1082  O     0.45830   0.48070   0.58612   0.00000  Uiso   1.00
O1083  O     0.37602   0.50740   0.90847   0.00000  Uiso   1.00
O1084  O     0.54508   0.61837   0.66304   0.00000  Uiso   1.00
O1085  O     0.53961   0.56012   0.75001   0.00000  Uiso   1.00
O1086  O     0.44108   0.49998   0.82549   0.00000  Uiso   1.00
O1087  O     0.52027   0.49999   0.82549   0.00000  Uiso   1.00
O1088  O     0.46039   0.43988   0.74999   0.00000  Uiso   1.00
O1089  O     0.53958   0.43989   0.74999   0.00000  Uiso   1.00
O1090  O     0.47973   0.50001   0.67451   0.00000  Uiso   1.00
O1091  O     0.55892   0.50002   0.67451   0.00000  Uiso   1.00
O1092  O     0.45082   0.62893   0.84140   0.00000  Uiso   1.00
C1093  C     0.83320   0.57896   0.75087   0.00000  Uiso   1.00
C1094  C     0.79306   0.51399   0.90623   0.00000  Uiso   1.00
C1095  C     0.85626   0.64307   0.70561   0.00000  Uiso   1.00
C1096  C     0.80794   0.50379   0.84966   0.00000  Uiso   1.00
C1097  C     0.85521   0.35322   0.70418   0.00000  Uiso   1.00
C1098  C     0.83288   0.37627   0.74928   0.00000  Uiso   1.00
C1099  C     0.80937   0.35675   0.79466   0.00000  Uiso   1.00
C1100  C     0.80856   0.64683   0.79592   0.00000  Uiso   1.00
C1101  C     0.83299   0.62367   0.75132   0.00000  Uiso   1.00
C1102  C     0.97449   0.53573   0.75977   0.00000  Uiso   1.00
C1103  C     0.68752   0.53365   0.76780   0.00000  Uiso   1.00
C1104  C     0.81147   0.52146   0.98930   0.00000  Uiso   1.00
C1105  C     0.69549   0.46637   0.73130   0.00000  Uiso   1.00
C1106  C     0.97944   0.46564   0.73367   0.00000  Uiso   1.00
C1107  C     0.83337   0.42101   0.74915   0.00000  Uiso   1.00
C1108  C     0.85845   0.49825   0.65024   0.00000  Uiso   1.00
C1109  C     0.92929   0.49659   0.51020   0.00000  Uiso   1.00
C1110  C     0.87110   0.49778   0.59325   0.00000  Uiso   1.00
C1111  C     0.74411   0.51562   0.93284   0.00000  Uiso   1.00
C1112  C     0.73003   0.52867   0.98439   0.00000  Uiso   1.00
C1113  C     0.76320   0.53140   0.51331   0.00000  Uiso   1.00
C1114  C     0.82639   0.52305   0.93510   0.00000  Uiso   1.00
C1115  C     0.84642   0.51297   0.51587   0.00000  Uiso   1.00
C1116  C     0.89501   0.51280   0.98790   0.00000  Uiso   1.00
C1117  C     0.90815   0.52981   0.93889   0.00000  Uiso   1.00
C1118  C     0.87315   0.53710   0.91347   0.00000  Uiso   1.00
C1119  C     0.83463   0.50047   0.56728   0.00000  Uiso   1.00
C1120  C     0.91891   0.49342   0.56319   0.00000  Uiso   1.00
Cu1121 Cu    0.78645   0.49999   0.75000   0.00000  Uiso   1.00
Cu1122 Cu    0.88022   0.50001   0.75000   0.00000  Uiso   1.00
H1123  H     0.69294   0.53571   0.50260   0.00000  Uiso   1.00
H1124  H     0.93477   0.59009   0.77744   0.00000  Uiso   1.00
H1125  H     0.67941   0.58635   0.80653   0.00000  Uiso   1.00
H1126  H     0.75300   0.44477   0.68607   0.00000  Uiso   1.00
H1127  H     0.94634   0.44295   0.68786   0.00000  Uiso   1.00
H1128  H     0.96821   0.52928   0.88042   0.00000  Uiso   1.00
H1129  H     0.95622   0.57535   0.91333   0.00000  Uiso   1.00
H1130  H     0.96592   0.46894   0.94812   0.00000  Uiso   1.00
H1131  H     0.77243   0.49780   0.61515   0.00000  Uiso   1.00
H1132  H     0.71395   0.47799   0.89604   0.00000  Uiso   1.00
H1133  H     0.71828   0.53523   0.58473   0.00000  Uiso   1.00
H1134  H     0.96422   0.50540   0.60786   0.00000  Uiso   1.00
H1135  H     0.73953   0.58105   0.56037   0.00000  Uiso   1.00
H1136  H     0.85297   0.57498   0.86284   0.00000  Uiso   1.00
H1137  H     0.90681   0.55118   0.84162   0.00000  Uiso   1.00
H1138  H     0.89524   0.63586   0.63438   0.00000  Uiso   1.00
H1139  H     0.94735   0.45423   0.60445   0.00000  Uiso   1.00
H1140  H     0.84839   0.39166   0.64845   0.00000  Uiso   1.00
H1141  H     0.90253   0.39285   0.66079   0.00000  Uiso   1.00
H1142  H     0.75015   0.37329   0.85053   0.00000  Uiso   1.00
H1143  H     0.80120   0.37380   0.86939   0.00000  Uiso   1.00
H1144  H     0.78454   0.59834   0.83742   0.00000  Uiso   1.00
H1145  H     0.95364   0.57531   0.71200   0.00000  Uiso   1.00
N1146  N     0.71598   0.49999   0.74999   0.00000  Uiso   1.00
N1147  N     0.95069   0.50002   0.74999   0.00000  Uiso   1.00
N1148  N     0.95702   0.48137   0.58412   0.00000  Uiso   1.00
N1149  N     0.87494   0.37345   0.65657   0.00000  Uiso   1.00
N1150  N     0.78625   0.38131   0.83965   0.00000  Uiso   1.00
N1151  N     0.96109   0.57613   0.74780   0.00000  Uiso   1.00
N1152  N     0.95616   0.54315   0.91714   0.00000  Uiso   1.00
N1153  N     0.74902   0.55025   0.56388   0.00000  Uiso   1.00
N1154  N     0.88362   0.56609   0.87288   0.00000  Uiso   1.00
O1155  O     0.79375   0.56011   0.75001   0.00000  Uiso   1.00
O1156  O     0.70563   0.56685   0.78999   0.00000  Uiso   1.00
O1157  O     0.72252   0.43330   0.70647   0.00000  Uiso   1.00
O1158  O     0.96352   0.43168   0.71140   0.00000  Uiso   1.00
O1159  O     0.97135   0.47954   0.98100   0.00000  Uiso   1.00
O1160  O     0.79163   0.48070   0.58612   0.00000  Uiso   1.00
O1161  O     0.70935   0.50740   0.90847   0.00000  Uiso   1.00
O1162  O     0.87841   0.61837   0.66304   0.00000  Uiso   1.00
O1163  O     0.87294   0.56012   0.75001   0.00000  Uiso   1.00
O1164  O     0.77441   0.49998   0.82549   0.00000  Uiso   1.00
O1165  O     0.85360   0.49999   0.82549   0.00000  Uiso   1.00
O1166  O     0.79373   0.43988   0.74999   0.00000  Uiso   1.00
O1167  O     0.87292   0.43989   0.74999   0.00000  Uiso   1.00
O1168  O     0.81306   0.50001   0.67451   0.00000  Uiso   1.00
O1169  O     0.89225   0.50002   0.67451   0.00000  Uiso   1.00
O1170  O     0.78416   0.62893   0.84140   0.00000  Uiso   1.00
C1171  C     0.16654   0.91230   0.75087   0.00000  Uiso   1.00
C1172  C     0.12639   0.84733   0.90623   0.00000  Uiso   1.00
C1173  C     0.18959   0.97640   0.70561   0.00000  Uiso   1.00
C1174  C     0.14127   0.83713   0.84966   0.00000  Uiso   1.00
C1175  C     0.18855   0.68656   0.70418   0.00000  Uiso   1.00
C1176  C     0.16622   0.70961   0.74928   0.00000  Uiso   1.00
C1177  C     0.14270   0.69008   0.79466   0.00000  Uiso   1.00
C1178  C     0.14189   0.98016   0.79592   0.00000  Uiso   1.00
C1179  C     0.16633   0.95700   0.75132   0.00000  Uiso   1.00
C1180  C     0.30782   0.86906   0.75977   0.00000  Uiso   1.00
C1181  C     0.02085   0.86698   0.76780   0.00000  Uiso   1.00
C1182  C     0.14480   0.85479   0.98930   0.00000  Uiso   1.00
C1183  C     0.02883   0.79970   0.73130   0.00000  Uiso   1.00
C1184  C     0.31277   0.79898   0.73367   0.00000  Uiso   1.00
C1185  C     0.16671   0.75434   0.74915   0.00000  Uiso   1.00
C1186  C     0.19178   0.83158   0.65024   0.00000  Uiso   1.00
C1187  C     0.26262   0.82992   0.51020   0.00000  Uiso   1.00
C1188  C     0.20443   0.83112   0.59325   0.00000  Uiso   1.00
C1189  C     0.07744   0.84895   0.93284   0.00000  Uiso   1.00
C1190  C     0.06337   0.86200   0.98439   0.00000  Uiso   1.00
C1191  C     0.09653   0.86474   0.51331   0.00000  Uiso   1.00
C1192  C     0.15972   0.85638   0.93510   0.00000  Uiso   1.00
C1193  C     0.17975   0.84630   0.51587   0.00000  Uiso   1.00
C1194  C     0.22835   0.84614   0.98790   0.00000  Uiso   1.00
C1195  C     0.24149   0.86315   0.93889   0.00000  Uiso   1.00
C1196  C     0.20649   0.87043   0.91347   0.00000  Uiso   1.00
C1197  C     0.16796   0.83381   0.56728   0.00000  Uiso   1.00
C1198  C     0.25224   0.82675   0.56319   0.00000  Uiso   1.00
Cu1199 Cu    0.11978   0.83333   0.75000   0.00000  Uiso   1.00
Cu1200 Cu    0.21355   0.83334   0.75000   0.00000  Uiso   1.00
H1201  H     0.02628   0.86904   0.50260   0.00000  Uiso   1.00
H1202  H     0.26811   0.92342   0.77744   0.00000  Uiso   1.00
H1203  H     0.01274   0.91969   0.80653   0.00000  Uiso   1.00
H1204  H     0.08634   0.77810   0.68607   0.00000  Uiso   1.00
H1205  H     0.27967   0.77628   0.68786   0.00000  Uiso   1.00
H1206  H     0.30154   0.86261   0.88042   0.00000  Uiso   1.00
H1207  H     0.28955   0.90868   0.91333   0.00000  Uiso   1.00
H1208  H     0.29925   0.80227   0.94812   0.00000  Uiso   1.00
H1209  H     0.10576   0.83113   0.61515   0.00000  Uiso   1.00
H1210  H     0.04728   0.81132   0.89604   0.00000  Uiso   1.00
H1211  H     0.05161   0.86856   0.58473   0.00000  Uiso   1.00
H1212  H     0.29755   0.83873   0.60786   0.00000  Uiso   1.00
H1213  H     0.07286   0.91439   0.56037   0.00000  Uiso   1.00
H1214  H     0.18631   0.90831   0.86284   0.00000  Uiso   1.00
H1215  H     0.24015   0.88451   0.84162   0.00000  Uiso   1.00
H1216  H     0.22858   0.96920   0.63438   0.00000  Uiso   1.00
H1217  H     0.28068   0.78756   0.60445   0.00000  Uiso   1.00
H1218  H     0.18173   0.72499   0.64845   0.00000  Uiso   1.00
H1219  H     0.23586   0.72618   0.66079   0.00000  Uiso   1.00
H1220  H     0.08348   0.70663   0.85053   0.00000  Uiso   1.00
H1221  H     0.13454   0.70714   0.86939   0.00000  Uiso   1.00
H1222  H     0.11787   0.93167   0.83742   0.00000  Uiso   1.00
H1223  H     0.28697   0.90864   0.71200   0.00000  Uiso   1.00
N1224  N     0.04931   0.83332   0.74999   0.00000  Uiso   1.00
N1225  N     0.28402   0.83335   0.74999   0.00000  Uiso   1.00
N1226  N     0.29035   0.81470   0.58412   0.00000  Uiso   1.00
N1227  N     0.20827   0.70678   0.65657   0.00000  Uiso   1.00
N1228  N     0.11958   0.71464   0.83965   0.00000  Uiso   1.00
N1229  N     0.29443   0.90947   0.74780   0.00000  Uiso   1.00
N1230  N     0.28950   0.87648   0.91714   0.00000  Uiso   1.00
N1231  N     0.08235   0.88359   0.56388   0.00000  Uiso   1.00
N1232  N     0.21695   0.89943   0.87288   0.00000  Uiso   1.00
O1233  O     0.12708   0.89345   0.75001   0.00000  Uiso   1.00
O1234  O     0.03896   0.90018   0.78999   0.00000  Uiso   1.00
O1235  O     0.05586   0.76663   0.70647   0.00000  Uiso   1.00
O1236  O     0.29685   0.76501   0.71140   0.00000  Uiso   1.00
O1237  O     0.30469   0.81288   0.98100   0.00000  Uiso   1.00
O1238  O     0.12497   0.81403   0.58612   0.00000  Uiso   1.00
O1239  O     0.04268   0.84074   0.90847   0.00000  Uiso   1.00
O1240  O     0.21175   0.95170   0.66304   0.00000  Uiso   1.00
O1241  O     0.20627   0.89346   0.75001   0.00000  Uiso   1.00
O1242  O     0.10775   0.83332   0.82549   0.00000  Uiso   1.00
O1243  O     0.18694   0.83333   0.82549   0.00000  Uiso   1.00
O1244  O     0.12706   0.77321   0.74999   0.00000  Uiso   1.00
O1245  O     0.20625   0.77322   0.74999   0.00000  Uiso   1.00
O1246  O     0.14640   0.83334   0.67451   0.00000  Uiso   1.00
O1247  O     0.22559   0.83335   0.67451   0.00000  Uiso   1.00
O1248  O     0.11749   0.96226   0.84140   0.00000  Uiso   1.00
C1249  C     0.49987   0.91230   0.75087   0.00000  Uiso   1.00
C1250  C     0.45972   0.84733   0.90623   0.00000  Uiso   1.00
C1251  C     0.52293   0.97640   0.70561   0.00000  Uiso   1.00
C1252  C     0.47460   0.83713   0.84966   0.00000  Uiso   1.00
C1253  C     0.52188   0.68656   0.70418   0.00000  Uiso   1.00
C1254  C     0.49955   0.70961   0.74928   0.00000  Uiso   1.00
C1255  C     0.47604   0.69008   0.79466   0.00000  Uiso   1.00
C1256  C     0.47523   0.98016   0.79592   0.00000  Uiso   1.00
C1257  C     0.49966   0.95700   0.75132   0.00000  Uiso   1.00
C1258  C     0.64116   0.86906   0.75977   0.00000  Uiso   1.00
C1259  C     0.35418   0.86698   0.76780   0.00000  Uiso   1.00
C1260  C     0.47813   0.85479   0.98930   0.00000  Uiso   1.00
C1261  C     0.36216   0.79970   0.73130   0.00000  Uiso   1.00
C1262  C     0.64610   0.79898   0.73367   0.00000  Uiso   1.00
C1263  C     0.50004   0.75434   0.74915   0.00000  Uiso   1.00
C1264  C     0.52511   0.83158   0.65024   0.00000  Uiso   1.00
C1265  C     0.59595   0.82992   0.51020   0.00000  Uiso   1.00
C1266  C     0.53777   0.83112   0.59325   0.00000  Uiso   1.00
C1267  C     0.41078   0.84895   0.93284   0.00000  Uiso   1.00
C1268  C     0.39670   0.86200   0.98439   0.00000  Uiso   1.00
C1269  C     0.42987   0.86474   0.51331   0.00000  Uiso   1.00
C1270  C     0.49306   0.85638   0.93510   0.00000  Uiso   1.00
C1271  C     0.51308   0.84630   0.51587   0.00000  Uiso   1.00
C1272  C     0.56168   0.84614   0.98790   0.00000  Uiso   1.00
C1273  C     0.57482   0.86315   0.93889   0.00000  Uiso   1.00
C1274  C     0.53982   0.87043   0.91347   0.00000  Uiso   1.00
C1275  C     0.50130   0.83381   0.56728   0.00000  Uiso   1.00
C1276  C     0.58558   0.82675   0.56319   0.00000  Uiso   1.00
Cu1277 Cu    0.45311   0.83333   0.75000   0.00000  Uiso   1.00
Cu1278 Cu    0.54689   0.83334   0.75000   0.00000  Uiso   1.00
H1279  H     0.35961   0.86904   0.50260   0.00000  Uiso   1.00
H1280  H     0.60144   0.92342   0.77744   0.00000  Uiso   1.00
H1281  H     0.34608   0.91969   0.80653   0.00000  Uiso   1.00
H1282  H     0.41967   0.77810   0.68607   0.00000  Uiso   1.00
H1283  H     0.61301   0.77628   0.68786   0.00000  Uiso   1.00
H1284  H     0.63487   0.86261   0.88042   0.00000  Uiso   1.00
H1285  H     0.62289   0.90868   0.91333   0.00000  Uiso   1.00
H1286  H     0.63258   0.80227   0.94812   0.00000  Uiso   1.00
H1287  H     0.43909   0.83113   0.61515   0.00000  Uiso   1.00
H1288  H     0.38062   0.81132   0.89604   0.00000  Uiso   1.00
H1289  H     0.38495   0.86856   0.58473   0.00000  Uiso   1.00
H1290  H     0.63088   0.83873   0.60786   0.00000  Uiso   1.00
H1291  H     0.40619   0.91439   0.56037   0.00000  Uiso   1.00
H1292  H     0.51964   0.90831   0.86284   0.00000  Uiso   1.00
H1293  H     0.57348   0.88451   0.84162   0.00000  Uiso   1.00
H1294  H     0.56191   0.96920   0.63438   0.00000  Uiso   1.00
H1295  H     0.61402   0.78756   0.60445   0.00000  Uiso   1.00
H1296  H     0.51506   0.72499   0.64845   0.00000  Uiso   1.00
H1297  H     0.56919   0.72618   0.66079   0.00000  Uiso   1.00
H1298  H     0.41681   0.70663   0.85053   0.00000  Uiso   1.00
H1299  H     0.46787   0.70714   0.86939   0.00000  Uiso   1.00
H1300  H     0.45121   0.93167   0.83742   0.00000  Uiso   1.00
H1301  H     0.62030   0.90864   0.71200   0.00000  Uiso   1.00
N1302  N     0.38265   0.83332   0.74999   0.00000  Uiso   1.00
N1303  N     0.61735   0.83335   0.74999   0.00000  Uiso   1.00
N1304  N     0.62368   0.81470   0.58412   0.00000  Uiso   1.00
N1305  N     0.54160   0.70678   0.65657   0.00000  Uiso   1.00
N1306  N     0.45291   0.71464   0.83965   0.00000  Uiso   1.00
N1307  N     0.62776   0.90947   0.74780   0.00000  Uiso   1.00
N1308  N     0.62283   0.87648   0.91714   0.00000  Uiso   1.00
N1309  N     0.41569   0.88359   0.56388   0.00000  Uiso   1.00
N1310  N     0.55028   0.89943   0.87288   0.00000  Uiso   1.00
O1311  O     0.46042   0.89345   0.75001   0.00000  Uiso   1.00
O1312  O     0.37230   0.90018   0.78999   0.00000  Uiso   1.00
O1313  O     0.38919   0.76663   0.70647   0.00000  Uiso   1.00
O1314  O     0.63019   0.76501   0.71140   0.00000  Uiso   1.00
O1315  O     0.63802   0.81288   0.98100   0.00000  Uiso   1.00
O1316  O     0.45830   0.81403   0.58612   0.00000  Uiso   1.00
O1317  O     0.37602   0.84074   0.90847   0.00000  Uiso   1.00
O1318  O     0.54508   0.95170   0.66304   0.00000  Uiso   1.00
O1319  O     0.53961   0.89346   0.75001   0.00000  Uiso   1.00
O1320  O     0.44108   0.83332   0.82549   0.00000  Uiso   1.00
O1321  O     0.52027   0.83333   0.82549   0.00000  Uiso   1.00
O1322  O     0.46039   0.77321   0.74999   0.00000  Uiso   1.00
O1323  O     0.53958   0.77322   0.74999   0.00000  Uiso   1.00
O1324  O     0.47973   0.83334   0.67451   0.00000  Uiso   1.00
O1325  O     0.55892   0.83335   0.67451   0.00000  Uiso   1.00
O1326  O     0.45082   0.96226   0.84140   0.00000  Uiso   1.00
C1327  C     0.83320   0.91230   0.75087   0.00000  Uiso   1.00
C1328  C     0.79306   0.84733   0.90623   0.00000  Uiso   1.00
C1329  C     0.85626   0.97640   0.70561   0.00000  Uiso   1.00
C1330  C     0.80794   0.83713   0.84966   0.00000  Uiso   1.00
C1331  C     0.85521   0.68656   0.70418   0.00000  Uiso   1.00
C1332  C     0.83288   0.70961   0.74928   0.00000  Uiso   1.00
C1333  C     0.80937   0.69008   0.79466   0.00000  Uiso   1.00
C1334  C     0.80856   0.98016   0.79592   0.00000  Uiso   1.00
C1335  C     0.83299   0.95700   0.75132   0.00000  Uiso   1.00
C1336  C     0.97449   0.86906   0.75977   0.00000  Uiso   1.00
C1337  C     0.68752   0.86698   0.76780   0.00000  Uiso   1.00
C1338  C     0.81147   0.85479   0.98930   0.00000  Uiso   1.00
C1339  C     0.69549   0.79970   0.73130   0.00000  Uiso   1.00
C1340  C     0.97944   0.79898   0.73367   0.00000  Uiso   1.00
C1341  C     0.83337   0.75434   0.74915   0.00000  Uiso   1.00
C1342  C     0.85845   0.83158   0.65024   0.00000  Uiso   1.00
C1343  C     0.92929   0.82992   0.51020   0.00000  Uiso   1.00
C1344  C     0.87110   0.83112   0.59325   0.00000  Uiso   1.00
C1345  C     0.74411   0.84895   0.93284   0.00000  Uiso   1.00
C1346  C     0.73003   0.86200   0.98439   0.00000  Uiso   1.00
C1347  C     0.76320   0.86474   0.51331   0.00000  Uiso   1.00
C1348  C     0.82639   0.85638   0.93510   0.00000  Uiso   1.00
C1349  C     0.84642   0.84630   0.51587   0.00000  Uiso   1.00
C1350  C     0.89501   0.84614   0.98790   0.00000  Uiso   1.00
C1351  C     0.90815   0.86315   0.93889   0.00000  Uiso   1.00
C1352  C     0.87315   0.87043   0.91347   0.00000  Uiso   1.00
C1353  C     0.83463   0.83381   0.56728   0.00000  Uiso   1.00
C1354  C     0.91891   0.82675   0.56319   0.00000  Uiso   1.00
Cu1355 Cu    0.78645   0.83333   0.75000   0.00000  Uiso   1.00
Cu1356 Cu    0.88022   0.83334   0.75000   0.00000  Uiso   1.00
H1357  H     0.69294   0.86904   0.50260   0.00000  Uiso   1.00
H1358  H     0.93477   0.92342   0.77744   0.00000  Uiso   1.00
H1359  H     0.67941   0.91969   0.80653   0.00000  Uiso   1.00
H1360  H     0.75300   0.77810   0.68607   0.00000  Uiso   1.00
H1361  H     0.94634   0.77628   0.68786   0.00000  Uiso   1.00
H1362  H     0.96821   0.86261   0.88042   0.00000  Uiso   1.00
H1363  H     0.95622   0.90868   0.91333   0.00000  Uiso   1.00
H1364  H     0.96592   0.80227   0.94812   0.00000  Uiso   1.00
H1365  H     0.77243   0.83113   0.61515   0.00000  Uiso   1.00
H1366  H     0.71395   0.81132   0.89604   0.00000  Uiso   1.00
H1367  H     0.71828   0.86856   0.58473   0.00000  Uiso   1.00
H1368  H     0.96422   0.83873   0.60786   0.00000  Uiso   1.00
H1369  H     0.73953   0.91439   0.56037   0.00000  Uiso   1.00
H1370  H     0.85297   0.90831   0.86284   0.00000  Uiso   1.00
H1371  H     0.90681   0.88451   0.84162   0.00000  Uiso   1.00
H1372  H     0.89524   0.96920   0.63438   0.00000  Uiso   1.00
H1373  H     0.94735   0.78756   0.60445   0.00000  Uiso   1.00
H1374  H     0.84839   0.72499   0.64845   0.00000  Uiso   1.00
H1375  H     0.90253   0.72618   0.66079   0.00000  Uiso   1.00
H1376  H     0.75015   0.70663   0.85053   0.00000  Uiso   1.00
H1377  H     0.80120   0.70714   0.86939   0.00000  Uiso   1.00
H1378  H     0.78454   0.93167   0.83742   0.00000  Uiso   1.00
H1379  H     0.95364   0.90864   0.71200   0.00000  Uiso   1.00
N1380  N     0.71598   0.83332   0.74999   0.00000  Uiso   1.00
N1381  N     0.95069   0.83335   0.74999   0.00000  Uiso   1.00
N1382  N     0.95702   0.81470   0.58412   0.00000  Uiso   1.00
N1383  N     0.87494   0.70678   0.65657   0.00000  Uiso   1.00
N1384  N     0.78625   0.71464   0.83965   0.00000  Uiso   1.00
N1385  N     0.96109   0.90947   0.74780   0.00000  Uiso   1.00
N1386  N     0.95616   0.87648   0.91714   0.00000  Uiso   1.00
N1387  N     0.74902   0.88359   0.56388   0.00000  Uiso   1.00
N1388  N     0.88362   0.89943   0.87288   0.00000  Uiso   1.00
O1389  O     0.79375   0.89345   0.75001   0.00000  Uiso   1.00
O1390  O     0.70563   0.90018   0.78999   0.00000  Uiso   1.00
O1391  O     0.72252   0.76663   0.70647   0.00000  Uiso   1.00
O1392  O     0.96352   0.76501   0.71140   0.00000  Uiso   1.00
O1393  O     0.97135   0.81288   0.98100   0.00000  Uiso   1.00
O1394  O     0.79163   0.81403   0.58612   0.00000  Uiso   1.00
O1395  O     0.70935   0.84074   0.90847   0.00000  Uiso   1.00
O1396  O     0.87841   0.95170   0.66304   0.00000  Uiso   1.00
O1397  O     0.87294   0.89346   0.75001   0.00000  Uiso   1.00
O1398  O     0.77441   0.83332   0.82549   0.00000  Uiso   1.00
O1399  O     0.85360   0.83333   0.82549   0.00000  Uiso   1.00
O1400  O     0.79373   0.77321   0.74999   0.00000  Uiso   1.00
O1401  O     0.87292   0.77322   0.74999   0.00000  Uiso   1.00
O1402  O     0.81306   0.83334   0.67451   0.00000  Uiso   1.00
O1403  O     0.89225   0.83335   0.67451   0.00000  Uiso   1.00
O1404  O     0.78416   0.96226   0.84140   0.00000  Uiso   1.00
loop_
_geom_bond_atom_site_label_1
_geom_bond_atom_site_label_2
_geom_bond_distance
_geom_bond_site_symmetry_2
_ccdc_geom_bond_type
C1     O71     1.304   .     A
C1     O63     1.301   .     A
C1     C9      1.439   .     S
C2     C22     1.421   .     A
C2     C4      1.498   .     S
C2     C19     1.414   .     A
C3     O70     1.386   .     S
C3     C9      1.403   .     A
C3     C239    1.403   .     S
C4     O73     1.320   .     A
C4     O72     1.314   .     A
C5     C6      1.407   .     A
C5     N57     1.436   .     S
C5     C471    1.403   1_545 S
C6     C15     1.441   .     S
C6     C7      1.401   .     A
C7     N58     1.436   .     S
C7     C476    1.394   1_545 S
C8     C9      1.416   .     A
C8     O78     1.385   .     S
C8     C241    1.394   .     S
C10    N55     1.392   .     A
C10    N59     1.432   .     S
C10    C89     1.425   .     S
C11    O64     1.378   .     S
C11    N54     1.363   .     A
C11    C166    1.425   1_455 S
C12    C22     1.413   .     A
C12    C723    1.415   .     S
C12    C725    1.425   .     S
C13    O65     1.373   .     S
C13    N54     1.378   .     A
C13    C170    1.422   1_455 S
C14    N55     1.380   .     A
C14    O66     1.368   .     S
C14    C91     1.422   .     S
C15    O75     1.303   .     A
C15    O74     1.302   .     A
C16    O77     1.320   .     A
C16    O76     1.309   .     A
C16    C18     1.483   .     S
C17    C28     1.388   .     A
C17    C726    1.407   1_554 S
C17    O769    1.374   1_554 S
C18    C28     1.417   .     A
C18    C27     1.424   .     A
C19    C20     1.393   .     A
C19    O69     1.366   .     S
C20    C723    1.395   .     S
C20    H733    1.082   .     S
C21    N61     1.432   .     S
C21    C714    1.415   1_554 S
C21    C722    1.395   1_554 S
C22    C26     1.408   .     A
C23    C27     1.409   .     A
C23    C714    1.425   1_554 S
C23    C726    1.414   1_554 S
C24    C25     1.404   .     A
C24    C725    1.414   .     S
C24    C719    1.407   .     S
C25    N60     1.432   .     S
C25    C26     1.397   .     A
C26    N62     1.432   .     S
C27    O68     1.379   .     S
C28    N56     1.433   .     S
Cu29   O63     1.946   .     S
Cu29   O76     1.977   .     S
Cu29   N54     2.051   .     S
Cu29   O72     1.974   .     S
Cu29   O74     1.949   .     S
Cu29   Cu30    2.729   .     S
Cu30   O71     1.949   .     S
Cu30   O77     1.974   .     S
Cu30   O73     1.977   .     S
Cu30   N55     2.051   .     S
Cu30   O75     1.946   .     S
H31    C722    1.082   1_554 S
H32    N59     1.041   .     S
H33    O64     0.991   .     S
H34    O65     0.987   .     S
H35    O66     0.986   .     S
H36    N60     1.045   .     S
H37    N60     1.045   .     S
H38    O67     0.992   .     S
H39    O68     0.986   .     S
H40    O69     0.992   .     S
H41    N61     1.046   .     S
H42    N56     1.044   .     S
H43    N61     1.046   .     S
H44    N62     1.043   .     S
H45    N62     1.036   .     S
H46    O70     0.989   .     S
H47    N56     1.044   .     S
H48    N57     1.046   .     S
H49    N57     1.042   .     S
H50    N58     1.046   .     S
H51    N58     1.046   .     S
H52    O78     0.987   .     S
H53    N59     1.045   .     S
O67    C719    1.374   .     S
C79    O149    1.304   .     A
C79    O141    1.301   .     A
C79    C87     1.439   .     S
C80    C100    1.421   .     A
C80    C82     1.498   .     S
C80    C97     1.414   .     A
C81    O148    1.386   .     S
C81    C87     1.403   .     A
C81    C317    1.403   .     S
C82    O151    1.320   .     A
C82    O150    1.314   .     A
C83    C84     1.407   .     A
C83    N135    1.436   .     S
C83    C549    1.403   1_545 S
C84    C93     1.441   .     S
C84    C85     1.401   .     A
C85    N136    1.436   .     S
C85    C554    1.394   1_545 S
C86    C87     1.416   .     A
C86    O156    1.385   .     S
C86    C319    1.394   .     S
C88    N133    1.392   .     A
C88    N137    1.432   .     S
C88    C167    1.425   .     S
C89    O142    1.378   .     S
C89    N132    1.363   .     A
C90    C100    1.413   .     A
C90    C801    1.415   .     S
C90    C803    1.425   .     S
C91    O143    1.373   .     S
C91    N132    1.378   .     A
C92    N133    1.380   .     A
C92    O144    1.368   .     S
C92    C169    1.422   .     S
C93    O153    1.303   .     A
C93    O152    1.302   .     A
C94    O155    1.320   .     A
C94    O154    1.309   .     A
C94    C96     1.483   .     S
C95    C106    1.388   .     A
C95    C804    1.407   1_554 S
C95    O847    1.374   1_554 S
C96    C106    1.417   .     A
C96    C105    1.424   .     A
C97    C98     1.393   .     A
C97    O147    1.366   .     S
C98    C801    1.395   .     S
C98    H811    1.082   .     S
C99    N139    1.432   .     S
C99    C792    1.415   1_554 S
C99    C800    1.395   1_554 S
C100   C104    1.408   .     A
C101   C105    1.409   .     A
C101   C792    1.425   1_554 S
C101   C804    1.414   1_554 S
C102   C103    1.404   .     A
C102   C803    1.414   .     S
C102   C797    1.407   .     S
C103   N138    1.432   .     S
C103   C104    1.397   .     A
C104   N140    1.432   .     S
C105   O146    1.379   .     S
C106   N134    1.433   .     S
Cu107  O141    1.946   .     S
Cu107  O154    1.977   .     S
Cu107  N132    2.051   .     S
Cu107  O150    1.974   .     S
Cu107  O152    1.949   .     S
Cu107  Cu108   2.729   .     S
Cu108  O149    1.949   .     S
Cu108  O155    1.974   .     S
Cu108  O151    1.977   .     S
Cu108  N133    2.051   .     S
Cu108  O153    1.946   .     S
H109   C800    1.082   1_554 S
H110   N137    1.041   .     S
H111   O142    0.991   .     S
H112   O143    0.987   .     S
H113   O144    0.986   .     S
H114   N138    1.045   .     S
H115   N138    1.045   .     S
H116   O145    0.992   .     S
H117   O146    0.986   .     S
H118   O147    0.992   .     S
H119   N139    1.046   .     S
H120   N134    1.044   .     S
H121   N139    1.046   .     S
H122   N140    1.043   .     S
H123   N140    1.036   .     S
H124   O148    0.989   .     S
H125   N134    1.044   .     S
H126   N135    1.046   .     S
H127   N135    1.042   .     S
H128   N136    1.046   .     S
H129   N136    1.046   .     S
H130   O156    0.987   .     S
H131   N137    1.045   .     S
O145   C797    1.374   .     S
C157   O227    1.304   .     A
C157   O219    1.301   .     A
C157   C165    1.439   .     S
C158   C178    1.421   .     A
C158   C160    1.498   .     S
C158   C175    1.414   .     A
C159   O226    1.386   .     S
C159   C165    1.403   .     A
C159   C395    1.403   .     S
C160   O229    1.320   .     A
C160   O228    1.314   .     A
C161   C162    1.407   .     A
C161   N213    1.436   .     S
C161   C627    1.403   1_545 S
C162   C171    1.441   .     S
C162   C163    1.401   .     A
C163   N214    1.436   .     S
C163   C632    1.394   1_545 S
C164   C165    1.416   .     A
C164   O234    1.385   .     S
C164   C397    1.394   .     S
C166   N211    1.392   .     A
C166   N215    1.432   .     S
C166   C11     1.425   1_655 S
C167   O220    1.378   .     S
C167   N210    1.363   .     A
C168   C178    1.413   .     A
C168   C879    1.415   .     S
C168   C881    1.425   .     S
C169   O221    1.373   .     S
C169   N210    1.378   .     A
C170   N211    1.380   .     A
C170   O222    1.368   .     S
C170   C13     1.422   1_655 S
C171   O231    1.303   .     A
C171   O230    1.302   .     A
C172   O233    1.320   .     A
C172   O232    1.309   .     A
C172   C174    1.483   .     S
C173   C184    1.388   .     A
C173   C882    1.407   1_554 S
C173   O925    1.374   1_554 S
C174   C184    1.417   .     A
C174   C183    1.424   .     A
C175   C176    1.393   .     A
C175   O225    1.366   .     S
C176   C879    1.395   .     S
C176   H889    1.082   .     S
C177   N217    1.432   .     S
C177   C870    1.415   1_554 S
C177   C878    1.395   1_554 S
C178   C182    1.408   .     A
C179   C183    1.409   .     A
C179   C870    1.425   1_554 S
C179   C882    1.414   1_554 S
C180   C181    1.404   .     A
C180   C881    1.414   .     S
C180   C875    1.407   .     S
C181   N216    1.432   .     S
C181   C182    1.397   .     A
C182   N218    1.432   .     S
C183   O224    1.379   .     S
C184   N212    1.433   .     S
Cu185  O219    1.946   .     S
Cu185  O232    1.977   .     S
Cu185  N210    2.051   .     S
Cu185  O228    1.974   .     S
Cu185  O230    1.949   .     S
Cu185  Cu186   2.729   .     S
Cu186  O227    1.949   .     S
Cu186  O233    1.974   .     S
Cu186  O229    1.977   .     S
Cu186  N211    2.051   .     S
Cu186  O231    1.946   .     S
H187   C878    1.082   1_554 S
H188   N215    1.041   .     S
H189   O220    0.991   .     S
H190   O221    0.987   .     S
H191   O222    0.986   .     S
H192   N216    1.045   .     S
H193   N216    1.045   .     S
H194   O223    0.992   .     S
H195   O224    0.986   .     S
H196   O225    0.992   .     S
H197   N217    1.046   .     S
H198   N212    1.044   .     S
H199   N217    1.046   .     S
H200   N218    1.043   .     S
H201   N218    1.036   .     S
H202   O226    0.989   .     S
H203   N212    1.044   .     S
H204   N213    1.046   .     S
H205   N213    1.042   .     S
H206   N214    1.046   .     S
H207   N214    1.046   .     S
H208   O234    0.987   .     S
H209   N215    1.045   .     S
O223   C875    1.374   .     S
C235   O305    1.304   .     A
C235   O297    1.301   .     A
C235   C243    1.439   .     S
C236   C256    1.421   .     A
C236   C238    1.498   .     S
C236   C253    1.414   .     A
C237   O304    1.386   .     S
C237   C243    1.403   .     A
C237   C473    1.403   .     S
C238   O307    1.320   .     A
C238   O306    1.314   .     A
C239   C240    1.407   .     A
C239   N291    1.436   .     S
C240   C249    1.441   .     S
C240   C241    1.401   .     A
C241   N292    1.436   .     S
C242   C243    1.416   .     A
C242   O312    1.385   .     S
C242   C475    1.394   .     S
C244   N289    1.392   .     A
C244   N293    1.432   .     S
C244   C323    1.425   .     S
C245   O298    1.378   .     S
C245   N288    1.363   .     A
C245   C400    1.425   1_455 S
C246   C256    1.413   .     A
C246   C957    1.415   .     S
C246   C959    1.425   .     S
C247   O299    1.373   .     S
C247   N288    1.378   .     A
C247   C404    1.422   1_455 S
C248   N289    1.380   .     A
C248   O300    1.368   .     S
C248   C325    1.422   .     S
C249   O309    1.303   .     A
C249   O308    1.302   .     A
C250   O311    1.320   .     A
C250   O310    1.309   .     A
C250   C252    1.483   .     S
C251   C262    1.388   .     A
C251   C960    1.407   1_554 S
C251   O1003   1.374   1_554 S
C252   C262    1.417   .     A
C252   C261    1.424   .     A
C253   C254    1.393   .     A
C253   O303    1.366   .     S
C254   C957    1.395   .     S
C254   H967    1.082   .     S
C255   N295    1.432   .     S
C255   C948    1.415   1_554 S
C255   C956    1.395   1_554 S
C256   C260    1.408   .     A
C257   C261    1.409   .     A
C257   C948    1.425   1_554 S
C257   C960    1.414   1_554 S
C258   C259    1.404   .     A
C258   C959    1.414   .     S
C258   C953    1.407   .     S
C259   N294    1.432   .     S
C259   C260    1.397   .     A
C260   N296    1.432   .     S
C261   O302    1.379   .     S
C262   N290    1.433   .     S
Cu263  O297    1.946   .     S
Cu263  O310    1.977   .     S
Cu263  N288    2.051   .     S
Cu263  O306    1.974   .     S
Cu263  O308    1.949   .     S
Cu263  Cu264   2.729   .     S
Cu264  O305    1.949   .     S
Cu264  O311    1.974   .     S
Cu264  O307    1.977   .     S
Cu264  N289    2.051   .     S
Cu264  O309    1.946   .     S
H265   C956    1.082   1_554 S
H266   N293    1.041   .     S
H267   O298    0.991   .     S
H268   O299    0.987   .     S
H269   O300    0.986   .     S
H270   N294    1.045   .     S
H271   N294    1.045   .     S
H272   O301    0.992   .     S
H273   O302    0.986   .     S
H274   O303    0.992   .     S
H275   N295    1.046   .     S
H276   N290    1.044   .     S
H277   N295    1.046   .     S
H278   N296    1.043   .     S
H279   N296    1.036   .     S
H280   O304    0.989   .     S
H281   N290    1.044   .     S
H282   N291    1.046   .     S
H283   N291    1.042   .     S
H284   N292    1.046   .     S
H285   N292    1.046   .     S
H286   O312    0.987   .     S
H287   N293    1.045   .     S
O301   C953    1.374   .     S
C313   O383    1.304   .     A
C313   O375    1.301   .     A
C313   C321    1.439   .     S
C314   C334    1.421   .     A
C314   C316    1.498   .     S
C314   C331    1.414   .     A
C315   O382    1.386   .     S
C315   C321    1.403   .     A
C315   C551    1.403   .     S
C316   O385    1.320   .     A
C316   O384    1.314   .     A
C317   C318    1.407   .     A
C317   N369    1.436   .     S
C318   C327    1.441   .     S
C318   C319    1.401   .     A
C319   N370    1.436   .     S
C320   C321    1.416   .     A
C320   O390    1.385   .     S
C320   C553    1.394   .     S
C322   N367    1.392   .     A
C322   N371    1.432   .     S
C322   C401    1.425   .     S
C323   O376    1.378   .     S
C323   N366    1.363   .     A
C324   C334    1.413   .     A
C324   C1035   1.415   .     S
C324   C1037   1.425   .     S
C325   O377    1.373   .     S
C325   N366    1.378   .     A
C326   N367    1.380   .     A
C326   O378    1.368   .     S
C326   C403    1.422   .     S
C327   O387    1.303   .     A
C327   O386    1.302   .     A
C328   O389    1.320   .     A
C328   O388    1.309   .     A
C328   C330    1.483   .     S
C329   C340    1.388   .     A
C329   C1038   1.407   1_554 S
C329   O1081   1.374   1_554 S
C330   C340    1.417   .     A
C330   C339    1.424   .     A
C331   C332    1.393   .     A
C331   O381    1.366   .     S
C332   C1035   1.395   .     S
C332   H1045   1.082   .     S
C333   N373    1.432   .     S
C333   C1026   1.415   1_554 S
C333   C1034   1.395   1_554 S
C334   C338    1.408   .     A
C335   C339    1.409   .     A
C335   C1026   1.425   1_554 S
C335   C1038   1.414   1_554 S
C336   C337    1.404   .     A
C336   C1037   1.414   .     S
C336   C1031   1.407   .     S
C337   N372    1.432   .     S
C337   C338    1.397   .     A
C338   N374    1.432   .     S
C339   O380    1.379   .     S
C340   N368    1.433   .     S
Cu341  O375    1.946   .     S
Cu341  O388    1.977   .     S
Cu341  N366    2.051   .     S
Cu341  O384    1.974   .     S
Cu341  O386    1.949   .     S
Cu341  Cu342   2.729   .     S
Cu342  O383    1.949   .     S
Cu342  O389    1.974   .     S
Cu342  O385    1.977   .     S
Cu342  N367    2.051   .     S
Cu342  O387    1.946   .     S
H343   C1034   1.082   1_554 S
H344   N371    1.041   .     S
H345   O376    0.991   .     S
H346   O377    0.987   .     S
H347   O378    0.986   .     S
H348   N372    1.045   .     S
H349   N372    1.045   .     S
H350   O379    0.992   .     S
H351   O380    0.986   .     S
H352   O381    0.992   .     S
H353   N373    1.046   .     S
H354   N368    1.044   .     S
H355   N373    1.046   .     S
H356   N374    1.043   .     S
H357   N374    1.036   .     S
H358   O382    0.989   .     S
H359   N368    1.044   .     S
H360   N369    1.046   .     S
H361   N369    1.042   .     S
H362   N370    1.046   .     S
H363   N370    1.046   .     S
H364   O390    0.987   .     S
H365   N371    1.045   .     S
O379   C1031   1.374   .     S
C391   O461    1.304   .     A
C391   O453    1.301   .     A
C391   C399    1.439   .     S
C392   C412    1.421   .     A
C392   C394    1.498   .     S
C392   C409    1.414   .     A
C393   O460    1.386   .     S
C393   C399    1.403   .     A
C393   C629    1.403   .     S
C394   O463    1.320   .     A
C394   O462    1.314   .     A
C395   C396    1.407   .     A
C395   N447    1.436   .     S
C396   C405    1.441   .     S
C396   C397    1.401   .     A
C397   N448    1.436   .     S
C398   C399    1.416   .     A
C398   O468    1.385   .     S
C398   C631    1.394   .     S
C400   N445    1.392   .     A
C400   N449    1.432   .     S
C400   C245    1.425   1_655 S
C401   O454    1.378   .     S
C401   N444    1.363   .     A
C402   C412    1.413   .     A
C402   C1113   1.415   .     S
C402   C1115   1.425   .     S
C403   O455    1.373   .     S
C403   N444    1.378   .     A
C404   N445    1.380   .     A
C404   O456    1.368   .     S
C404   C247    1.422   1_655 S
C405   O465    1.303   .     A
C405   O464    1.302   .     A
C406   O467    1.320   .     A
C406   O466    1.309   .     A
C406   C408    1.483   .     S
C407   C418    1.388   .     A
C407   C1116   1.407   1_554 S
C407   O1159   1.374   1_554 S
C408   C418    1.417   .     A
C408   C417    1.424   .     A
C409   C410    1.393   .     A
C409   O459    1.366   .     S
C410   C1113   1.395   .     S
C410   H1123   1.082   .     S
C411   N451    1.432   .     S
C411   C1104   1.415   1_554 S
C411   C1112   1.395   1_554 S
C412   C416    1.408   .     A
C413   C417    1.409   .     A
C413   C1104   1.425   1_554 S
C413   C1116   1.414   1_554 S
C414   C415    1.404   .     A
C414   C1115   1.414   .     S
C414   C1109   1.407   .     S
C415   N450    1.432   .     S
C415   C416    1.397   .     A
C416   N452    1.432   .     S
C417   O458    1.379   .     S
C418   N446    1.433   .     S
Cu419  O453    1.946   .     S
Cu419  O466    1.977   .     S
Cu419  N444    2.051   .     S
Cu419  O462    1.974   .     S
Cu419  O464    1.949   .     S
Cu419  Cu420   2.729   .     S
Cu420  O461    1.949   .     S
Cu420  O467    1.974   .     S
Cu420  O463    1.977   .     S
Cu420  N445    2.051   .     S
Cu420  O465    1.946   .     S
H421   C1112   1.082   1_554 S
H422   N449    1.041   .     S
H423   O454    0.991   .     S
H424   O455    0.987   .     S
H425   O456    0.986   .     S
H426   N450    1.045   .     S
H427   N450    1.045   .     S
H428   O457    0.992   .     S
H429   O458    0.986   .     S
H430   O459    0.992   .     S
H431   N451    1.046   .     S
H432   N446    1.044   .     S
H433   N451    1.046   .     S
H434   N452    1.043   .     S
H435   N452    1.036   .     S
H436   O460    0.989   .     S
H437   N446    1.044   .     S
H438   N447    1.046   .     S
H439   N447    1.042   .     S
H440   N448    1.046   .     S
H441   N448    1.046   .     S
H442   O468    0.987   .     S
H443   N449    1.045   .     S
O457   C1109   1.374   .     S
C469   O539    1.304   .     A
C469   O531    1.301   .     A
C469   C477    1.439   .     S
C470   C490    1.421   .     A
C470   C472    1.498   .     S
C470   C487    1.414   .     A
C471   O538    1.386   .     S
C471   C477    1.403   .     A
C471   C5      1.403   1_565 S
C472   O541    1.320   .     A
C472   O540    1.314   .     A
C473   C474    1.407   .     A
C473   N525    1.436   .     S
C474   C483    1.441   .     S
C474   C475    1.401   .     A
C475   N526    1.436   .     S
C476   C477    1.416   .     A
C476   O546    1.385   .     S
C476   C7      1.394   1_565 S
C478   N523    1.392   .     A
C478   N527    1.432   .     S
C478   C557    1.425   .     S
C479   O532    1.378   .     S
C479   N522    1.363   .     A
C479   C634    1.425   1_455 S
C480   C490    1.413   .     A
C480   C1191   1.415   .     S
C480   C1193   1.425   .     S
C481   O533    1.373   .     S
C481   N522    1.378   .     A
C481   C638    1.422   1_455 S
C482   N523    1.380   .     A
C482   O534    1.368   .     S
C482   C559    1.422   .     S
C483   O543    1.303   .     A
C483   O542    1.302   .     A
C484   O545    1.320   .     A
C484   O544    1.309   .     A
C484   C486    1.483   .     S
C485   C496    1.388   .     A
C485   C1194   1.407   1_554 S
C485   O1237   1.374   1_554 S
C486   C496    1.417   .     A
C486   C495    1.424   .     A
C487   C488    1.393   .     A
C487   O537    1.366   .     S
C488   C1191   1.395   .     S
C488   H1201   1.082   .     S
C489   N529    1.432   .     S
C489   C1182   1.415   1_554 S
C489   C1190   1.395   1_554 S
C490   C494    1.408   .     A
C491   C495    1.409   .     A
C491   C1182   1.425   1_554 S
C491   C1194   1.414   1_554 S
C492   C493    1.404   .     A
C492   C1193   1.414   .     S
C492   C1187   1.407   .     S
C493   N528    1.432   .     S
C493   C494    1.397   .     A
C494   N530    1.432   .     S
C495   O536    1.379   .     S
C496   N524    1.433   .     S
Cu497  O531    1.946   .     S
Cu497  O544    1.977   .     S
Cu497  N522    2.051   .     S
Cu497  O540    1.974   .     S
Cu497  O542    1.949   .     S
Cu497  Cu498   2.729   .     S
Cu498  O539    1.949   .     S
Cu498  O545    1.974   .     S
Cu498  O541    1.977   .     S
Cu498  N523    2.051   .     S
Cu498  O543    1.946   .     S
H499   C1190   1.082   1_554 S
H500   N527    1.041   .     S
H501   O532    0.991   .     S
H502   O533    0.987   .     S
H503   O534    0.986   .     S
H504   N528    1.045   .     S
H505   N528    1.045   .     S
H506   O535    0.992   .     S
H507   O536    0.986   .     S
H508   O537    0.992   .     S
H509   N529    1.046   .     S
H510   N524    1.044   .     S
H511   N529    1.046   .     S
H512   N530    1.043   .     S
H513   N530    1.036   .     S
H514   O538    0.989   .     S
H515   N524    1.044   .     S
H516   N525    1.046   .     S
H517   N525    1.042   .     S
H518   N526    1.046   .     S
H519   N526    1.046   .     S
H520   O546    0.987   .     S
H521   N527    1.045   .     S
O535   C1187   1.374   .     S
C547   O617    1.304   .     A
C547   O609    1.301   .     A
C547   C555    1.439   .     S
C548   C568    1.421   .     A
C548   C550    1.498   .     S
C548   C565    1.414   .     A
C549   O616    1.386   .     S
C549   C555    1.403   .     A
C549   C83     1.403   1_565 S
C550   O619    1.320   .     A
C550   O618    1.314   .     A
C551   C552    1.407   .     A
C551   N603    1.436   .     S
C552   C561    1.441   .     S
C552   C553    1.401   .     A
C553   N604    1.436   .     S
C554   C555    1.416   .     A
C554   O624    1.385   .     S
C554   C85     1.394   1_565 S
C556   N601    1.392   .     A
C556   N605    1.432   .     S
C556   C635    1.425   .     S
C557   O610    1.378   .     S
C557   N600    1.363   .     A
C558   C568    1.413   .     A
C558   C1269   1.415   .     S
C558   C1271   1.425   .     S
C559   O611    1.373   .     S
C559   N600    1.378   .     A
C560   N601    1.380   .     A
C560   O612    1.368   .     S
C560   C637    1.422   .     S
C561   O621    1.303   .     A
C561   O620    1.302   .     A
C562   O623    1.320   .     A
C562   O622    1.309   .     A
C562   C564    1.483   .     S
C563   C574    1.388   .     A
C563   C1272   1.407   1_554 S
C563   O1315   1.374   1_554 S
C564   C574    1.417   .     A
C564   C573    1.424   .     A
C565   C566    1.393   .     A
C565   O615    1.366   .     S
C566   C1269   1.395   .     S
C566   H1279   1.082   .     S
C567   N607    1.432   .     S
C567   C1260   1.415   1_554 S
C567   C1268   1.395   1_554 S
C568   C572    1.408   .     A
C569   C573    1.409   .     A
C569   C1260   1.425   1_554 S
C569   C1272   1.414   1_554 S
C570   C571    1.404   .     A
C570   C1271   1.414   .     S
C570   C1265   1.407   .     S
C571   N606    1.432   .     S
C571   C572    1.397   .     A
C572   N608    1.432   .     S
C573   O614    1.379   .     S
C574   N602    1.433   .     S
Cu575  O609    1.946   .     S
Cu575  O622    1.977   .     S
Cu575  N600    2.051   .     S
Cu575  O618    1.974   .     S
Cu575  O620    1.949   .     S
Cu575  Cu576   2.729   .     S
Cu576  O617    1.949   .     S
Cu576  O623    1.974   .     S
Cu576  O619    1.977   .     S
Cu576  N601    2.051   .     S
Cu576  O621    1.946   .     S
H577   C1268   1.082   1_554 S
H578   N605    1.041   .     S
H579   O610    0.991   .     S
H580   O611    0.987   .     S
H581   O612    0.986   .     S
H582   N606    1.045   .     S
H583   N606    1.045   .     S
H584   O613    0.992   .     S
H585   O614    0.986   .     S
H586   O615    0.992   .     S
H587   N607    1.046   .     S
H588   N602    1.044   .     S
H589   N607    1.046   .     S
H590   N608    1.043   .     S
H591   N608    1.036   .     S
H592   O616    0.989   .     S
H593   N602    1.044   .     S
H594   N603    1.046   .     S
H595   N603    1.042   .     S
H596   N604    1.046   .     S
H597   N604    1.046   .     S
H598   O624    0.987   .     S
H599   N605    1.045   .     S
O613   C1265   1.374   .     S
C625   O695    1.304   .     A
C625   O687    1.301   .     A
C625   C633    1.439   .     S
C626   C646    1.421   .     A
C626   C628    1.498   .     S
C626   C643    1.414   .     A
C627   O694    1.386   .     S
C627   C633    1.403   .     A
C627   C161    1.403   1_565 S
C628   O697    1.320   .     A
C628   O696    1.314   .     A
C629   C630    1.407   .     A
C629   N681    1.436   .     S
C630   C639    1.441   .     S
C630   C631    1.401   .     A
C631   N682    1.436   .     S
C632   C633    1.416   .     A
C632   O702    1.385   .     S
C632   C163    1.394   1_565 S
C634   N679    1.392   .     A
C634   N683    1.432   .     S
C634   C479    1.425   1_655 S
C635   O688    1.378   .     S
C635   N678    1.363   .     A
C636   C646    1.413   .     A
C636   C1347   1.415   .     S
C636   C1349   1.425   .     S
C637   O689    1.373   .     S
C637   N678    1.378   .     A
C638   N679    1.380   .     A
C638   O690    1.368   .     S
C638   C481    1.422   1_655 S
C639   O699    1.303   .     A
C639   O698    1.302   .     A
C640   O701    1.320   .     A
C640   O700    1.309   .     A
C640   C642    1.483   .     S
C641   C652    1.388   .     A
C641   C1350   1.407   1_554 S
C641   O1393   1.374   1_554 S
C642   C652    1.417   .     A
C642   C651    1.424   .     A
C643   C644    1.393   .     A
C643   O693    1.366   .     S
C644   C1347   1.395   .     S
C644   H1357   1.082   .     S
C645   N685    1.432   .     S
C645   C1338   1.415   1_554 S
C645   C1346   1.395   1_554 S
C646   C650    1.408   .     A
C647   C651    1.409   .     A
C647   C1338   1.425   1_554 S
C647   C1350   1.414   1_554 S
C648   C649    1.404   .     A
C648   C1349   1.414   .     S
C648   C1343   1.407   .     S
C649   N684    1.432   .     S
C649   C650    1.397   .     A
C650   N686    1.432   .     S
C651   O692    1.379   .     S
C652   N680    1.433   .     S
Cu653  O687    1.946   .     S
Cu653  O700    1.977   .     S
Cu653  N678    2.051   .     S
Cu653  O696    1.974   .     S
Cu653  O698    1.949   .     S
Cu653  Cu654   2.729   .     S
Cu654  O695    1.949   .     S
Cu654  O701    1.974   .     S
Cu654  O697    1.977   .     S
Cu654  N679    2.051   .     S
Cu654  O699    1.946   .     S
H655   C1346   1.082   1_554 S
H656   N683    1.041   .     S
H657   O688    0.991   .     S
H658   O689    0.987   .     S
H659   O690    0.986   .     S
H660   N684    1.045   .     S
H661   N684    1.045   .     S
H662   O691    0.992   .     S
H663   O692    0.986   .     S
H664   O693    0.992   .     S
H665   N685    1.046   .     S
H666   N680    1.044   .     S
H667   N685    1.046   .     S
H668   N686    1.043   .     S
H669   N686    1.036   .     S
H670   O694    0.989   .     S
H671   N680    1.044   .     S
H672   N681    1.046   .     S
H673   N681    1.042   .     S
H674   N682    1.046   .     S
H675   N682    1.046   .     S
H676   O702    0.987   .     S
H677   N683    1.045   .     S
O691   C1343   1.374   .     S
C703   O773    1.304   .     A
C703   O765    1.301   .     A
C703   C711    1.439   .     S
C704   C724    1.421   .     A
C704   C706    1.498   .     S
C704   C721    1.414   .     A
C705   O772    1.386   .     S
C705   C711    1.403   .     A
C705   C941    1.403   .     S
C706   O775    1.320   .     A
C706   O774    1.314   .     A
C707   C708    1.407   .     A
C707   N759    1.436   .     S
C707   C1173   1.403   1_545 S
C708   C717    1.441   .     S
C708   C709    1.401   .     A
C709   N760    1.436   .     S
C709   C1178   1.394   1_545 S
C710   C711    1.416   .     A
C710   O780    1.385   .     S
C710   C943    1.394   .     S
C712   N757    1.392   .     A
C712   N761    1.432   .     S
C712   C791    1.425   .     S
C713   O766    1.378   .     S
C713   N756    1.363   .     A
C713   C868    1.425   1_455 S
C714   C724    1.413   .     A
C714   C21     1.415   1_556 S
C714   C23     1.425   1_556 S
C715   O767    1.373   .     S
C715   N756    1.378   .     A
C715   C872    1.422   1_455 S
C716   N757    1.380   .     A
C716   O768    1.368   .     S
C716   C793    1.422   .     S
C717   O777    1.303   .     A
C717   O776    1.302   .     A
C718   O779    1.320   .     A
C718   O778    1.309   .     A
C718   C720    1.483   .     S
C719   C730    1.388   .     A
C720   C730    1.417   .     A
C720   C729    1.424   .     A
C721   C722    1.393   .     A
C721   O771    1.366   .     S
C722   C21     1.395   1_556 S
C722   H31     1.082   1_556 S
C723   N763    1.432   .     S
C724   C728    1.408   .     A
C725   C729    1.409   .     A
C726   C727    1.404   .     A
C726   C23     1.414   1_556 S
C726   C17     1.407   1_556 S
C727   N762    1.432   .     S
C727   C728    1.397   .     A
C728   N764    1.432   .     S
C729   O770    1.379   .     S
C730   N758    1.433   .     S
Cu731  O765    1.946   .     S
Cu731  O778    1.977   .     S
Cu731  N756    2.051   .     S
Cu731  O774    1.974   .     S
Cu731  O776    1.949   .     S
Cu731  Cu732   2.729   .     S
Cu732  O773    1.949   .     S
Cu732  O779    1.974   .     S
Cu732  O775    1.977   .     S
Cu732  N757    2.051   .     S
Cu732  O777    1.946   .     S
H734   N761    1.041   .     S
H735   O766    0.991   .     S
H736   O767    0.987   .     S
H737   O768    0.986   .     S
H738   N762    1.045   .     S
H739   N762    1.045   .     S
H740   O769    0.992   .     S
H741   O770    0.986   .     S
H742   O771    0.992   .     S
H743   N763    1.046   .     S
H744   N758    1.044   .     S
H745   N763    1.046   .     S
H746   N764    1.043   .     S
H747   N764    1.036   .     S
H748   O772    0.989   .     S
H749   N758    1.044   .     S
H750   N759    1.046   .     S
H751   N759    1.042   .     S
H752   N760    1.046   .     S
H753   N760    1.046   .     S
H754   O780    0.987   .     S
H755   N761    1.045   .     S
O769   C17     1.374   1_556 S
C781   O851    1.304   .     A
C781   O843    1.301   .     A
C781   C789    1.439   .     S
C782   C802    1.421   .     A
C782   C784    1.498   .     S
C782   C799    1.414   .     A
C783   O850    1.386   .     S
C783   C789    1.403   .     A
C783   C1019   1.403   .     S
C784   O853    1.320   .     A
C784   O852    1.314   .     A
C785   C786    1.407   .     A
C785   N837    1.436   .     S
C785   C1251   1.403   1_545 S
C786   C795    1.441   .     S
C786   C787    1.401   .     A
C787   N838    1.436   .     S
C787   C1256   1.394   1_545 S
C788   C789    1.416   .     A
C788   O858    1.385   .     S
C788   C1021   1.394   .     S
C790   N835    1.392   .     A
C790   N839    1.432   .     S
C790   C869    1.425   .     S
C791   O844    1.378   .     S
C791   N834    1.363   .     A
C792   C802    1.413   .     A
C792   C99     1.415   1_556 S
C792   C101    1.425   1_556 S
C793   O845    1.373   .     S
C793   N834    1.378   .     A
C794   N835    1.380   .     A
C794   O846    1.368   .     S
C794   C871    1.422   .     S
C795   O855    1.303   .     A
C795   O854    1.302   .     A
C796   O857    1.320   .     A
C796   O856    1.309   .     A
C796   C798    1.483   .     S
C797   C808    1.388   .     A
C798   C808    1.417   .     A
C798   C807    1.424   .     A
C799   C800    1.393   .     A
C799   O849    1.366   .     S
C800   C99     1.395   1_556 S
C800   H109    1.082   1_556 S
C801   N841    1.432   .     S
C802   C806    1.408   .     A
C803   C807    1.409   .     A
C804   C805    1.404   .     A
C804   C101    1.414   1_556 S
C804   C95     1.407   1_556 S
C805   N840    1.432   .     S
C805   C806    1.397   .     A
C806   N842    1.432   .     S
C807   O848    1.379   .     S
C808   N836    1.433   .     S
Cu809  O843    1.946   .     S
Cu809  O856    1.977   .     S
Cu809  N834    2.051   .     S
Cu809  O852    1.974   .     S
Cu809  O854    1.949   .     S
Cu809  Cu810   2.729   .     S
Cu810  O851    1.949   .     S
Cu810  O857    1.974   .     S
Cu810  O853    1.977   .     S
Cu810  N835    2.051   .     S
Cu810  O855    1.946   .     S
H812   N839    1.041   .     S
H813   O844    0.991   .     S
H814   O845    0.987   .     S
H815   O846    0.986   .     S
H816   N840    1.045   .     S
H817   N840    1.045   .     S
H818   O847    0.992   .     S
H819   O848    0.986   .     S
H820   O849    0.992   .     S
H821   N841    1.046   .     S
H822   N836    1.044   .     S
H823   N841    1.046   .     S
H824   N842    1.043   .     S
H825   N842    1.036   .     S
H826   O850    0.989   .     S
H827   N836    1.044   .     S
H828   N837    1.046   .     S
H829   N837    1.042   .     S
H830   N838    1.046   .     S
H831   N838    1.046   .     S
H832   O858    0.987   .     S
H833   N839    1.045   .     S
O847   C95     1.374   1_556 S
C859   O929    1.304   .     A
C859   O921    1.301   .     A
C859   C867    1.439   .     S
C860   C880    1.421   .     A
C860   C862    1.498   .     S
C860   C877    1.414   .     A
C861   O928    1.386   .     S
C861   C867    1.403   .     A
C861   C1097   1.403   .     S
C862   O931    1.320   .     A
C862   O930    1.314   .     A
C863   C864    1.407   .     A
C863   N915    1.436   .     S
C863   C1329   1.403   1_545 S
C864   C873    1.441   .     S
C864   C865    1.401   .     A
C865   N916    1.436   .     S
C865   C1334   1.394   1_545 S
C866   C867    1.416   .     A
C866   O936    1.385   .     S
C866   C1099   1.394   .     S
C868   N913    1.392   .     A
C868   N917    1.432   .     S
C868   C713    1.425   1_655 S
C869   O922    1.378   .     S
C869   N912    1.363   .     A
C870   C880    1.413   .     A
C870   C177    1.415   1_556 S
C870   C179    1.425   1_556 S
C871   O923    1.373   .     S
C871   N912    1.378   .     A
C872   N913    1.380   .     A
C872   O924    1.368   .     S
C872   C715    1.422   1_655 S
C873   O933    1.303   .     A
C873   O932    1.302   .     A
C874   O935    1.320   .     A
C874   O934    1.309   .     A
C874   C876    1.483   .     S
C875   C886    1.388   .     A
C876   C886    1.417   .     A
C876   C885    1.424   .     A
C877   C878    1.393   .     A
C877   O927    1.366   .     S
C878   C177    1.395   1_556 S
C878   H187    1.082   1_556 S
C879   N919    1.432   .     S
C880   C884    1.408   .     A
C881   C885    1.409   .     A
C882   C883    1.404   .     A
C882   C179    1.414   1_556 S
C882   C173    1.407   1_556 S
C883   N918    1.432   .     S
C883   C884    1.397   .     A
C884   N920    1.432   .     S
C885   O926    1.379   .     S
C886   N914    1.433   .     S
Cu887  O921    1.946   .     S
Cu887  O934    1.977   .     S
Cu887  N912    2.051   .     S
Cu887  O930    1.974   .     S
Cu887  O932    1.949   .     S
Cu887  Cu888   2.729   .     S
Cu888  O929    1.949   .     S
Cu888  O935    1.974   .     S
Cu888  O931    1.977   .     S
Cu888  N913    2.051   .     S
Cu888  O933    1.946   .     S
H890   N917    1.041   .     S
H891   O922    0.991   .     S
H892   O923    0.987   .     S
H893   O924    0.986   .     S
H894   N918    1.045   .     S
H895   N918    1.045   .     S
H896   O925    0.992   .     S
H897   O926    0.986   .     S
H898   O927    0.992   .     S
H899   N919    1.046   .     S
H900   N914    1.044   .     S
H901   N919    1.046   .     S
H902   N920    1.043   .     S
H903   N920    1.036   .     S
H904   O928    0.989   .     S
H905   N914    1.044   .     S
H906   N915    1.046   .     S
H907   N915    1.042   .     S
H908   N916    1.046   .     S
H909   N916    1.046   .     S
H910   O936    0.987   .     S
H911   N917    1.045   .     S
O925   C173    1.374   1_556 S
C937   O1007   1.304   .     A
C937   O999    1.301   .     A
C937   C945    1.439   .     S
C938   C958    1.421   .     A
C938   C940    1.498   .     S
C938   C955    1.414   .     A
C939   O1006   1.386   .     S
C939   C945    1.403   .     A
C939   C1175   1.403   .     S
C940   O1009   1.320   .     A
C940   O1008   1.314   .     A
C941   C942    1.407   .     A
C941   N993    1.436   .     S
C942   C951    1.441   .     S
C942   C943    1.401   .     A
C943   N994    1.436   .     S
C944   C945    1.416   .     A
C944   O1014   1.385   .     S
C944   C1177   1.394   .     S
C946   N991    1.392   .     A
C946   N995    1.432   .     S
C946   C1025   1.425   .     S
C947   O1000   1.378   .     S
C947   N990    1.363   .     A
C947   C1102   1.425   1_455 S
C948   C958    1.413   .     A
C948   C255    1.415   1_556 S
C948   C257    1.425   1_556 S
C949   O1001   1.373   .     S
C949   N990    1.378   .     A
C949   C1106   1.422   1_455 S
C950   N991    1.380   .     A
C950   O1002   1.368   .     S
C950   C1027   1.422   .     S
C951   O1011   1.303   .     A
C951   O1010   1.302   .     A
C952   O1013   1.320   .     A
C952   O1012   1.309   .     A
C952   C954    1.483   .     S
C953   C964    1.388   .     A
C954   C964    1.417   .     A
C954   C963    1.424   .     A
C955   C956    1.393   .     A
C955   O1005   1.366   .     S
C956   C255    1.395   1_556 S
C956   H265    1.082   1_556 S
C957   N997    1.432   .     S
C958   C962    1.408   .     A
C959   C963    1.409   .     A
C960   C961    1.404   .     A
C960   C257    1.414   1_556 S
C960   C251    1.407   1_556 S
C961   N996    1.432   .     S
C961   C962    1.397   .     A
C962   N998    1.432   .     S
C963   O1004   1.379   .     S
C964   N992    1.433   .     S
Cu965  O999    1.946   .     S
Cu965  O1012   1.977   .     S
Cu965  N990    2.051   .     S
Cu965  O1008   1.974   .     S
Cu965  O1010   1.949   .     S
Cu965  Cu966   2.729   .     S
Cu966  O1007   1.949   .     S
Cu966  O1013   1.974   .     S
Cu966  O1009   1.977   .     S
Cu966  N991    2.051   .     S
Cu966  O1011   1.946   .     S
H968   N995    1.041   .     S
H969   O1000   0.991   .     S
H970   O1001   0.987   .     S
H971   O1002   0.986   .     S
H972   N996    1.045   .     S
H973   N996    1.045   .     S
H974   O1003   0.992   .     S
H975   O1004   0.986   .     S
H976   O1005   0.992   .     S
H977   N997    1.046   .     S
H978   N992    1.044   .     S
H979   N997    1.046   .     S
H980   N998    1.043   .     S
H981   N998    1.036   .     S
H982   O1006   0.989   .     S
H983   N992    1.044   .     S
H984   N993    1.046   .     S
H985   N993    1.042   .     S
H986   N994    1.046   .     S
H987   N994    1.046   .     S
H988   O1014   0.987   .     S
H989   N995    1.045   .     S
O1003  C251    1.374   1_556 S
C1015  O1085   1.304   .     A
C1015  O1077   1.301   .     A
C1015  C1023   1.439   .     S
C1016  C1036   1.421   .     A
C1016  C1018   1.498   .     S
C1016  C1033   1.414   .     A
C1017  O1084   1.386   .     S
C1017  C1023   1.403   .     A
C1017  C1253   1.403   .     S
C1018  O1087   1.320   .     A
C1018  O1086   1.314   .     A
C1019  C1020   1.407   .     A
C1019  N1071   1.436   .     S
C1020  C1029   1.441   .     S
C1020  C1021   1.401   .     A
C1021  N1072   1.436   .     S
C1022  C1023   1.416   .     A
C1022  O1092   1.385   .     S
C1022  C1255   1.394   .     S
C1024  N1069   1.392   .     A
C1024  N1073   1.432   .     S
C1024  C1103   1.425   .     S
C1025  O1078   1.378   .     S
C1025  N1068   1.363   .     A
C1026  C1036   1.413   .     A
C1026  C333    1.415   1_556 S
C1026  C335    1.425   1_556 S
C1027  O1079   1.373   .     S
C1027  N1068   1.378   .     A
C1028  N1069   1.380   .     A
C1028  O1080   1.368   .     S
C1028  C1105   1.422   .     S
C1029  O1089   1.303   .     A
C1029  O1088   1.302   .     A
C1030  O1091   1.320   .     A
C1030  O1090   1.309   .     A
C1030  C1032   1.483   .     S
C1031  C1042   1.388   .     A
C1032  C1042   1.417   .     A
C1032  C1041   1.424   .     A
C1033  C1034   1.393   .     A
C1033  O1083   1.366   .     S
C1034  C333    1.395   1_556 S
C1034  H343    1.082   1_556 S
C1035  N1075   1.432   .     S
C1036  C1040   1.408   .     A
C1037  C1041   1.409   .     A
C1038  C1039   1.404   .     A
C1038  C335    1.414   1_556 S
C1038  C329    1.407   1_556 S
C1039  N1074   1.432   .     S
C1039  C1040   1.397   .     A
C1040  N1076   1.432   .     S
C1041  O1082   1.379   .     S
C1042  N1070   1.433   .     S
Cu1043 O1077   1.946   .     S
Cu1043 O1090   1.977   .     S
Cu1043 N1068   2.051   .     S
Cu1043 O1086   1.974   .     S
Cu1043 O1088   1.949   .     S
Cu1043 Cu1044  2.729   .     S
Cu1044 O1085   1.949   .     S
Cu1044 O1091   1.974   .     S
Cu1044 O1087   1.977   .     S
Cu1044 N1069   2.051   .     S
Cu1044 O1089   1.946   .     S
H1046  N1073   1.041   .     S
H1047  O1078   0.991   .     S
H1048  O1079   0.987   .     S
H1049  O1080   0.986   .     S
H1050  N1074   1.045   .     S
H1051  N1074   1.045   .     S
H1052  O1081   0.992   .     S
H1053  O1082   0.986   .     S
H1054  O1083   0.992   .     S
H1055  N1075   1.046   .     S
H1056  N1070   1.044   .     S
H1057  N1075   1.046   .     S
H1058  N1076   1.043   .     S
H1059  N1076   1.036   .     S
H1060  O1084   0.989   .     S
H1061  N1070   1.044   .     S
H1062  N1071   1.046   .     S
H1063  N1071   1.042   .     S
H1064  N1072   1.046   .     S
H1065  N1072   1.046   .     S
H1066  O1092   0.987   .     S
H1067  N1073   1.045   .     S
O1081  C329    1.374   1_556 S
C1093  O1163   1.304   .     A
C1093  O1155   1.301   .     A
C1093  C1101   1.439   .     S
C1094  C1114   1.421   .     A
C1094  C1096   1.498   .     S
C1094  C1111   1.414   .     A
C1095  O1162   1.386   .     S
C1095  C1101   1.403   .     A
C1095  C1331   1.403   .     S
C1096  O1165   1.320   .     A
C1096  O1164   1.314   .     A
C1097  C1098   1.407   .     A
C1097  N1149   1.436   .     S
C1098  C1107   1.441   .     S
C1098  C1099   1.401   .     A
C1099  N1150   1.436   .     S
C1100  C1101   1.416   .     A
C1100  O1170   1.385   .     S
C1100  C1333   1.394   .     S
C1102  N1147   1.392   .     A
C1102  N1151   1.432   .     S
C1102  C947    1.425   1_655 S
C1103  O1156   1.378   .     S
C1103  N1146   1.363   .     A
C1104  C1114   1.413   .     A
C1104  C411    1.415   1_556 S
C1104  C413    1.425   1_556 S
C1105  O1157   1.373   .     S
C1105  N1146   1.378   .     A
C1106  N1147   1.380   .     A
C1106  O1158   1.368   .     S
C1106  C949    1.422   1_655 S
C1107  O1167   1.303   .     A
C1107  O1166   1.302   .     A
C1108  O1169   1.320   .     A
C1108  O1168   1.309   .     A
C1108  C1110   1.483   .     S
C1109  C1120   1.388   .     A
C1110  C1120   1.417   .     A
C1110  C1119   1.424   .     A
C1111  C1112   1.393   .     A
C1111  O1161   1.366   .     S
C1112  C411    1.395   1_556 S
C1112  H421    1.082   1_556 S
C1113  N1153   1.432   .     S
C1114  C1118   1.408   .     A
C1115  C1119   1.409   .     A
C1116  C1117   1.404   .     A
C1116  C413    1.414   1_556 S
C1116  C407    1.407   1_556 S
C1117  N1152   1.432   .     S
C1117  C1118   1.397   .     A
C1118  N1154   1.432   .     S
C1119  O1160   1.379   .     S
C1120  N1148   1.433   .     S
Cu1121 O1155   1.946   .     S
Cu1121 O1168   1.977   .     S
Cu1121 N1146   2.051   .     S
Cu1121 O1164   1.974   .     S
Cu1121 O1166   1.949   .     S
Cu1121 Cu1122  2.729   .     S
Cu1122 O1163   1.949   .     S
Cu1122 O1169   1.974   .     S
Cu1122 O1165   1.977   .     S
Cu1122 N1147   2.051   .     S
Cu1122 O1167   1.946   .     S
H1124  N1151   1.041   .     S
H1125  O1156   0.991   .     S
H1126  O1157   0.987   .     S
H1127  O1158   0.986   .     S
H1128  N1152   1.045   .     S
H1129  N1152   1.045   .     S
H1130  O1159   0.992   .     S
H1131  O1160   0.986   .     S
H1132  O1161   0.992   .     S
H1133  N1153   1.046   .     S
H1134  N1148   1.044   .     S
H1135  N1153   1.046   .     S
H1136  N1154   1.043   .     S
H1137  N1154   1.036   .     S
H1138  O1162   0.989   .     S
H1139  N1148   1.044   .     S
H1140  N1149   1.046   .     S
H1141  N1149   1.042   .     S
H1142  N1150   1.046   .     S
H1143  N1150   1.046   .     S
H1144  O1170   0.987   .     S
H1145  N1151   1.045   .     S
O1159  C407    1.374   1_556 S
C1171  O1241   1.304   .     A
C1171  O1233   1.301   .     A
C1171  C1179   1.439   .     S
C1172  C1192   1.421   .     A
C1172  C1174   1.498   .     S
C1172  C1189   1.414   .     A
C1173  O1240   1.386   .     S
C1173  C1179   1.403   .     A
C1173  C707    1.403   1_565 S
C1174  O1243   1.320   .     A
C1174  O1242   1.314   .     A
C1175  C1176   1.407   .     A
C1175  N1227   1.436   .     S
C1176  C1185   1.441   .     S
C1176  C1177   1.401   .     A
C1177  N1228   1.436   .     S
C1178  C1179   1.416   .     A
C1178  O1248   1.385   .     S
C1178  C709    1.394   1_565 S
C1180  N1225   1.392   .     A
C1180  N1229   1.432   .     S
C1180  C1259   1.425   .     S
C1181  O1234   1.378   .     S
C1181  N1224   1.363   .     A
C1181  C1336   1.425   1_455 S
C1182  C1192   1.413   .     A
C1182  C489    1.415   1_556 S
C1182  C491    1.425   1_556 S
C1183  O1235   1.373   .     S
C1183  N1224   1.378   .     A
C1183  C1340   1.422   1_455 S
C1184  N1225   1.380   .     A
C1184  O1236   1.368   .     S
C1184  C1261   1.422   .     S
C1185  O1245   1.303   .     A
C1185  O1244   1.302   .     A
C1186  O1247   1.320   .     A
C1186  O1246   1.309   .     A
C1186  C1188   1.483   .     S
C1187  C1198   1.388   .     A
C1188  C1198   1.417   .     A
C1188  C1197   1.424   .     A
C1189  C1190   1.393   .     A
C1189  O1239   1.366   .     S
C1190  C489    1.395   1_556 S
C1190  H499    1.082   1_556 S
C1191  N1231   1.432   .     S
C1192  C1196   1.408   .     A
C1193  C1197   1.409   .     A
C1194  C1195   1.404   .     A
C1194  C491    1.414   1_556 S
C1194  C485    1.407   1_556 S
C1195  N1230   1.432   .     S
C1195  C1196   1.397   .     A
C1196  N1232   1.432   .     S
C1197  O1238   1.379   .     S
C1198  N1226   1.433   .     S
Cu1199 O1233   1.946   .     S
Cu1199 O1246   1.977   .     S
Cu1199 N1224   2.051   .     S
Cu1199 O1242   1.974   .     S
Cu1199 O1244   1.949   .     S
Cu1199 Cu1200  2.729   .     S
Cu1200 O1241   1.949   .     S
Cu1200 O1247   1.974   .     S
Cu1200 O1243   1.977   .     S
Cu1200 N1225   2.051   .     S
Cu1200 O1245   1.946   .     S
H1202  N1229   1.041   .     S
H1203  O1234   0.991   .     S
H1204  O1235   0.987   .     S
H1205  O1236   0.986   .     S
H1206  N1230   1.045   .     S
H1207  N1230   1.045   .     S
H1208  O1237   0.992   .     S
H1209  O1238   0.986   .     S
H1210  O1239   0.992   .     S
H1211  N1231   1.046   .     S
H1212  N1226   1.044   .     S
H1213  N1231   1.046   .     S
H1214  N1232   1.043   .     S
H1215  N1232   1.036   .     S
H1216  O1240   0.989   .     S
H1217  N1226   1.044   .     S
H1218  N1227   1.046   .     S
H1219  N1227   1.042   .     S
H1220  N1228   1.046   .     S
H1221  N1228   1.046   .     S
H1222  O1248   0.987   .     S
H1223  N1229   1.045   .     S
O1237  C485    1.374   1_556 S
C1249  O1319   1.304   .     A
C1249  O1311   1.301   .     A
C1249  C1257   1.439   .     S
C1250  C1270   1.421   .     A
C1250  C1252   1.498   .     S
C1250  C1267   1.414   .     A
C1251  O1318   1.386   .     S
C1251  C1257   1.403   .     A
C1251  C785    1.403   1_565 S
C1252  O1321   1.320   .     A
C1252  O1320   1.314   .     A
C1253  C1254   1.407   .     A
C1253  N1305   1.436   .     S
C1254  C1263   1.441   .     S
C1254  C1255   1.401   .     A
C1255  N1306   1.436   .     S
C1256  C1257   1.416   .     A
C1256  O1326   1.385   .     S
C1256  C787    1.394   1_565 S
C1258  N1303   1.392   .     A
C1258  N1307   1.432   .     S
C1258  C1337   1.425   .     S
C1259  O1312   1.378   .     S
C1259  N1302   1.363   .     A
C1260  C1270   1.413   .     A
C1260  C567    1.415   1_556 S
C1260  C569    1.425   1_556 S
C1261  O1313   1.373   .     S
C1261  N1302   1.378   .     A
C1262  N1303   1.380   .     A
C1262  O1314   1.368   .     S
C1262  C1339   1.422   .     S
C1263  O1323   1.303   .     A
C1263  O1322   1.302   .     A
C1264  O1325   1.320   .     A
C1264  O1324   1.309   .     A
C1264  C1266   1.483   .     S
C1265  C1276   1.388   .     A
C1266  C1276   1.417   .     A
C1266  C1275   1.424   .     A
C1267  C1268   1.393   .     A
C1267  O1317   1.366   .     S
C1268  C567    1.395   1_556 S
C1268  H577    1.082   1_556 S
C1269  N1309   1.432   .     S
C1270  C1274   1.408   .     A
C1271  C1275   1.409   .     A
C1272  C1273   1.404   .     A
C1272  C569    1.414   1_556 S
C1272  C563    1.407   1_556 S
C1273  N1308   1.432   .     S
C1273  C1274   1.397   .     A
C1274  N1310   1.432   .     S
C1275  O1316   1.379   .     S
C1276  N1304   1.433   .     S
Cu1277 O1311   1.946   .     S
Cu1277 O1324   1.977   .     S
Cu1277 N1302   2.051   .     S
Cu1277 O1320   1.974   .     S
Cu1277 O1322   1.949   .     S
Cu1277 Cu1278  2.729   .     S
Cu1278 O1319   1.949   .     S
Cu1278 O1325   1.974   .     S
Cu1278 O1321   1.977   .     S
Cu1278 N1303   2.051   .     S
Cu1278 O1323   1.946   .     S
H1280  N1307   1.041   .     S
H1281  O1312   0.991   .     S
H1282  O1313   0.987   .     S
H1283  O1314   0.986   .     S
H1284  N1308   1.045   .     S
H1285  N1308   1.045   .     S
H1286  O1315   0.992   .     S
H1287  O1316   0.986   .     S
H1288  O1317   0.992   .     S
H1289  N1309   1.046   .     S
H1290  N1304   1.044   .     S
H1291  N1309   1.046   .     S
H1292  N1310   1.043   .     S
H1293  N1310   1.036   .     S
H1294  O1318   0.989   .     S
H1295  N1304   1.044   .     S
H1296  N1305   1.046   .     S
H1297  N1305   1.042   .     S
H1298  N1306   1.046   .     S
H1299  N1306   1.046   .     S
H1300  O1326   0.987   .     S
H1301  N1307   1.045   .     S
O1315  C563    1.374   1_556 S
C1327  O1397   1.304   .     A
C1327  O1389   1.301   .     A
C1327  C1335   1.439   .     S
C1328  C1348   1.421   .     A
C1328  C1330   1.498   .     S
C1328  C1345   1.414   .     A
C1329  O1396   1.386   .     S
C1329  C1335   1.403   .     A
C1329  C863    1.403   1_565 S
C1330  O1399   1.320   .     A
C1330  O1398   1.314   .     A
C1331  C1332   1.407   .     A
C1331  N1383   1.436   .     S
C1332  C1341   1.441   .     S
C1332  C1333   1.401   .     A
C1333  N1384   1.436   .     S
C1334  C1335   1.416   .     A
C1334  O1404   1.385   .     S
C1334  C865    1.394   1_565 S
C1336  N1381   1.392   .     A
C1336  N1385   1.432   .     S
C1336  C1181   1.425   1_655 S
C1337  O1390   1.378   .     S
C1337  N1380   1.363   .     A
C1338  C1348   1.413   .     A
C1338  C645    1.415   1_556 S
C1338  C647    1.425   1_556 S
C1339  O1391   1.373   .     S
C1339  N1380   1.378   .     A
C1340  N1381   1.380   .     A
C1340  O1392   1.368   .     S
C1340  C1183   1.422   1_655 S
C1341  O1401   1.303   .     A
C1341  O1400   1.302   .     A
C1342  O1403   1.320   .     A
C1342  O1402   1.309   .     A
C1342  C1344   1.483   .     S
C1343  C1354   1.388   .     A
C1344  C1354   1.417   .     A
C1344  C1353   1.424   .     A
C1345  C1346   1.393   .     A
C1345  O1395   1.366   .     S
C1346  C645    1.395   1_556 S
C1346  H655    1.082   1_556 S
C1347  N1387   1.432   .     S
C1348  C1352   1.408   .     A
C1349  C1353   1.409   .     A
C1350  C1351   1.404   .     A
C1350  C647    1.414   1_556 S
C1350  C641    1.407   1_556 S
C1351  N1386   1.432   .     S
C1351  C1352   1.397   .     A
C1352  N1388   1.432   .     S
C1353  O1394   1.379   .     S
C1354  N1382   1.433   .     S
Cu1355 O1389   1.946   .     S
Cu1355 O1402   1.977   .     S
Cu1355 N1380   2.051   .     S
Cu1355 O1398   1.974   .     S
Cu1355 O1400   1.949   .     S
Cu1355 Cu1356  2.729   .     S
Cu1356 O1397   1.949   .     S
Cu1356 O1403   1.974   .     S
Cu1356 O1399   1.977   .     S
Cu1356 N1381   2.051   .     S
Cu1356 O1401   1.946   .     S
H1358  N1385   1.041   .     S
H1359  O1390   0.991   .     S
H1360  O1391   0.987   .     S
H1361  O1392   0.986   .     S
H1362  N1386   1.045   .     S
H1363  N1386   1.045   .     S
H1364  O1393   0.992   .     S
H1365  O1394   0.986   .     S
H1366  O1395   0.992   .     S
H1367  N1387   1.046   .     S
H1368  N1382   1.044   .     S
H1369  N1387   1.046   .     S
H1370  N1388   1.043   .     S
H1371  N1388   1.036   .     S
H1372  O1396   0.989   .     S
H1373  N1382   1.044   .     S
H1374  N1383   1.046   .     S
H1375  N1383   1.042   .     S
H1376  N1384   1.046   .     S
H1377  N1384   1.046   .     S
H1378  O1404   0.987   .     S
H1379  N1385   1.045   .     S
O1393  C641    1.374   1_556 S
