data_str_m2_o1_o10_pcu_sym.43
_audit_creation_date              2020-01-03
_audit_creation_method            'Materials Studio'
_symmetry_space_group_name_H-M    'P1'
_symmetry_Int_Tables_number       1
_symmetry_cell_setting            triclinic
loop_
_symmetry_equiv_pos_as_xyz
  x,y,z
_cell_length_a                    26.1335
_cell_length_b                    32.4633
_cell_length_c                    28.9465
_cell_angle_alpha                 91.7476
_cell_angle_beta                  97.5080
_cell_angle_gamma                 93.8838
loop_
_atom_site_label
_atom_site_type_symbol
_atom_site_fract_x
_atom_site_fract_y
_atom_site_fract_z
_atom_site_U_iso_or_equiv
_atom_site_adp_type
_atom_site_occupancy
C1     C     0.17111   0.08771   0.16636   0.00000  Uiso   1.00
C2     C     0.18840   0.02297   0.20764   0.00000  Uiso   1.00
C3     C     0.15690   0.29058   0.16816   0.00000  Uiso   1.00
C4     C     0.17643   0.04275   0.16517   0.00000  Uiso   1.00
C5     C     0.12956   0.14307   0.01942   0.00000  Uiso   1.00
C6     C     0.20377   0.19026   0.31391   0.00000  Uiso   1.00
C7     C     0.13003   0.14293   0.30335   0.00000  Uiso   1.00
C8     C     0.20330   0.19041   0.02998   0.00000  Uiso   1.00
C9     C     0.16876   0.03568   0.07697   0.00000  Uiso   1.00
C10    C     0.16457   0.29765   0.25636   0.00000  Uiso   1.00
C11    C     0.11182   0.28793   0.08429   0.00000  Uiso   1.00
C12    C     0.16222   0.24562   0.16698   0.00000  Uiso   1.00
C13    C     0.22151   0.04541   0.24904   0.00000  Uiso   1.00
C14    C     0.08554   0.11847   0.03775   0.00000  Uiso   1.00
C15    C     0.24779   0.21486   0.29558   0.00000  Uiso   1.00
C16    C     0.09001   0.11640   0.27335   0.00000  Uiso   1.00
C17    C     0.24333   0.21693   0.05999   0.00000  Uiso   1.00
C18    C     0.06805   0.16562   0.15480   0.00000  Uiso   1.00
C19    C     0.26528   0.16771   0.17853   0.00000  Uiso   1.00
C20    C     0.01261   0.16195   0.14884   0.00000  Uiso   1.00
C21    C     0.32073   0.17138   0.18449   0.00000  Uiso   1.00
C22    C     0.16071   0.01896   0.12318   0.00000  Uiso   1.00
C23    C     0.17262   0.31437   0.21016   0.00000  Uiso   1.00
C24    C     0.14494   0.31036   0.12570   0.00000  Uiso   1.00
Cu25   Cu    0.16667   0.16667   0.21355   0.00000  Uiso   1.00
Cu26   Cu    0.16667   0.16666   0.11978   0.00000  Uiso   1.00
H27    H     0.32579   0.15015   0.11539   0.00000  Uiso   1.00
H28    H     0.25343   0.02631   0.26247   0.00000  Uiso   1.00
H29    H     0.05231   0.13793   0.03847   0.00000  Uiso   1.00
H30    H     0.07166   0.09031   0.01595   0.00000  Uiso   1.00
H31    H     0.09647   0.10619   0.07207   0.00000  Uiso   1.00
H32    H     0.28103   0.19540   0.29486   0.00000  Uiso   1.00
H33    H     0.23686   0.22714   0.26126   0.00000  Uiso   1.00
H34    H     0.26167   0.24302   0.31738   0.00000  Uiso   1.00
H35    H     0.01417   0.10536   0.24965   0.00000  Uiso   1.00
H36    H     0.31917   0.22797   0.08368   0.00000  Uiso   1.00
H37    H     0.00755   0.18318   0.21794   0.00000  Uiso   1.00
H38    H     0.14218   0.04090   0.00894   0.00000  Uiso   1.00
H39    H     0.19115   0.29243   0.32439   0.00000  Uiso   1.00
H40    H     0.09173   0.25887   0.09392   0.00000  Uiso   1.00
H41    H     0.07991   0.30702   0.07086   0.00000  Uiso   1.00
H42    H     0.13556   0.28122   0.05624   0.00000  Uiso   1.00
H43    H     0.24160   0.07446   0.23942   0.00000  Uiso   1.00
H44    H     0.19777   0.05212   0.27710   0.00000  Uiso   1.00
N45    N     0.16668   0.16668   0.28403   0.00000  Uiso   1.00
N46    N     0.16665   0.16666   0.04931   0.00000  Uiso   1.00
O47    O     0.16666   0.10655   0.20625   0.00000  Uiso   1.00
O48    O     0.13084   0.02897   0.03824   0.00000  Uiso   1.00
O49    O     0.12342   0.27880   0.26065   0.00000  Uiso   1.00
O50    O     0.20250   0.30437   0.29509   0.00000  Uiso   1.00
O51    O     0.10014   0.08267   0.25863   0.00000  Uiso   1.00
O52    O     0.03883   0.12717   0.26816   0.00000  Uiso   1.00
O53    O     0.23320   0.25066   0.07471   0.00000  Uiso   1.00
O54    O     0.29451   0.20616   0.06517   0.00000  Uiso   1.00
O55    O     0.16667   0.22678   0.12709   0.00000  Uiso   1.00
O56    O     0.16666   0.10654   0.12706   0.00000  Uiso   1.00
O57    O     0.16667   0.22679   0.20628   0.00000  Uiso   1.00
O58    O     0.09161   0.16667   0.19712   0.00000  Uiso   1.00
O59    O     0.24172   0.16666   0.13621   0.00000  Uiso   1.00
O60    O     0.09161   0.16666   0.11793   0.00000  Uiso   1.00
O61    O     0.24172   0.16667   0.21540   0.00000  Uiso   1.00
O62    O     0.20992   0.05453   0.07268   0.00000  Uiso   1.00
C63    C     0.50445   0.08771   0.16636   0.00000  Uiso   1.00
C64    C     0.52173   0.02297   0.20764   0.00000  Uiso   1.00
C65    C     0.49024   0.29058   0.16816   0.00000  Uiso   1.00
C66    C     0.50976   0.04275   0.16517   0.00000  Uiso   1.00
C67    C     0.46289   0.14307   0.01942   0.00000  Uiso   1.00
C68    C     0.53711   0.19026   0.31391   0.00000  Uiso   1.00
C69    C     0.46336   0.14293   0.30335   0.00000  Uiso   1.00
C70    C     0.53664   0.19041   0.02998   0.00000  Uiso   1.00
C71    C     0.50209   0.03568   0.07697   0.00000  Uiso   1.00
C72    C     0.49791   0.29765   0.25636   0.00000  Uiso   1.00
C73    C     0.44516   0.28793   0.08429   0.00000  Uiso   1.00
C74    C     0.49555   0.24562   0.16698   0.00000  Uiso   1.00
C75    C     0.55485   0.04541   0.24904   0.00000  Uiso   1.00
C76    C     0.41888   0.11847   0.03775   0.00000  Uiso   1.00
C77    C     0.58112   0.21486   0.29558   0.00000  Uiso   1.00
C78    C     0.42334   0.11640   0.27335   0.00000  Uiso   1.00
C79    C     0.57666   0.21693   0.05999   0.00000  Uiso   1.00
C80    C     0.40138   0.16562   0.15480   0.00000  Uiso   1.00
C81    C     0.59862   0.16771   0.17853   0.00000  Uiso   1.00
C82    C     0.34594   0.16195   0.14884   0.00000  Uiso   1.00
C83    C     0.65406   0.17138   0.18449   0.00000  Uiso   1.00
C84    C     0.49404   0.01896   0.12318   0.00000  Uiso   1.00
C85    C     0.50596   0.31437   0.21016   0.00000  Uiso   1.00
C86    C     0.47827   0.31036   0.12570   0.00000  Uiso   1.00
Cu87   Cu    0.50000   0.16667   0.21355   0.00000  Uiso   1.00
Cu88   Cu    0.50000   0.16666   0.11978   0.00000  Uiso   1.00
H89    H     0.65912   0.15015   0.11539   0.00000  Uiso   1.00
H90    H     0.58676   0.02631   0.26247   0.00000  Uiso   1.00
H91    H     0.38564   0.13793   0.03847   0.00000  Uiso   1.00
H92    H     0.40500   0.09031   0.01595   0.00000  Uiso   1.00
H93    H     0.42981   0.10619   0.07207   0.00000  Uiso   1.00
H94    H     0.61436   0.19540   0.29486   0.00000  Uiso   1.00
H95    H     0.57019   0.22714   0.26126   0.00000  Uiso   1.00
H96    H     0.59500   0.24302   0.31738   0.00000  Uiso   1.00
H97    H     0.34750   0.10536   0.24965   0.00000  Uiso   1.00
H98    H     0.65250   0.22797   0.08368   0.00000  Uiso   1.00
H99    H     0.34088   0.18318   0.21794   0.00000  Uiso   1.00
H100   H     0.47552   0.04090   0.00894   0.00000  Uiso   1.00
H101   H     0.52448   0.29243   0.32439   0.00000  Uiso   1.00
H102   H     0.42507   0.25887   0.09392   0.00000  Uiso   1.00
H103   H     0.41324   0.30702   0.07086   0.00000  Uiso   1.00
H104   H     0.46890   0.28122   0.05624   0.00000  Uiso   1.00
H105   H     0.57493   0.07446   0.23942   0.00000  Uiso   1.00
H106   H     0.53110   0.05212   0.27710   0.00000  Uiso   1.00
N107   N     0.50001   0.16668   0.28403   0.00000  Uiso   1.00
N108   N     0.49999   0.16666   0.04931   0.00000  Uiso   1.00
O109   O     0.50000   0.10655   0.20625   0.00000  Uiso   1.00
O110   O     0.46417   0.02897   0.03824   0.00000  Uiso   1.00
O111   O     0.45675   0.27880   0.26065   0.00000  Uiso   1.00
O112   O     0.53583   0.30437   0.29509   0.00000  Uiso   1.00
O113   O     0.43347   0.08267   0.25863   0.00000  Uiso   1.00
O114   O     0.37216   0.12717   0.26816   0.00000  Uiso   1.00
O115   O     0.56653   0.25066   0.07471   0.00000  Uiso   1.00
O116   O     0.62784   0.20616   0.06517   0.00000  Uiso   1.00
O117   O     0.50000   0.22678   0.12709   0.00000  Uiso   1.00
O118   O     0.50000   0.10654   0.12706   0.00000  Uiso   1.00
O119   O     0.50000   0.22679   0.20628   0.00000  Uiso   1.00
O120   O     0.42495   0.16667   0.19712   0.00000  Uiso   1.00
O121   O     0.57505   0.16666   0.13621   0.00000  Uiso   1.00
O122   O     0.42494   0.16666   0.11793   0.00000  Uiso   1.00
O123   O     0.57506   0.16667   0.21540   0.00000  Uiso   1.00
O124   O     0.54325   0.05453   0.07268   0.00000  Uiso   1.00
C125   C     0.83778   0.08771   0.16636   0.00000  Uiso   1.00
C126   C     0.85506   0.02297   0.20764   0.00000  Uiso   1.00
C127   C     0.82357   0.29058   0.16816   0.00000  Uiso   1.00
C128   C     0.84310   0.04275   0.16517   0.00000  Uiso   1.00
C129   C     0.79623   0.14307   0.01942   0.00000  Uiso   1.00
C130   C     0.87044   0.19026   0.31391   0.00000  Uiso   1.00
C131   C     0.79670   0.14293   0.30335   0.00000  Uiso   1.00
C132   C     0.86997   0.19041   0.02998   0.00000  Uiso   1.00
C133   C     0.83543   0.03568   0.07697   0.00000  Uiso   1.00
C134   C     0.83124   0.29765   0.25636   0.00000  Uiso   1.00
C135   C     0.77849   0.28793   0.08429   0.00000  Uiso   1.00
C136   C     0.82889   0.24562   0.16698   0.00000  Uiso   1.00
C137   C     0.88818   0.04541   0.24904   0.00000  Uiso   1.00
C138   C     0.75221   0.11847   0.03775   0.00000  Uiso   1.00
C139   C     0.91446   0.21486   0.29558   0.00000  Uiso   1.00
C140   C     0.75667   0.11640   0.27335   0.00000  Uiso   1.00
C141   C     0.90999   0.21693   0.05999   0.00000  Uiso   1.00
C142   C     0.73472   0.16562   0.15480   0.00000  Uiso   1.00
C143   C     0.93195   0.16771   0.17853   0.00000  Uiso   1.00
C144   C     0.67927   0.16195   0.14884   0.00000  Uiso   1.00
C145   C     0.98740   0.17138   0.18449   0.00000  Uiso   1.00
C146   C     0.82738   0.01896   0.12318   0.00000  Uiso   1.00
C147   C     0.83929   0.31437   0.21016   0.00000  Uiso   1.00
C148   C     0.81161   0.31036   0.12570   0.00000  Uiso   1.00
Cu149  Cu    0.83333   0.16667   0.21355   0.00000  Uiso   1.00
Cu150  Cu    0.83333   0.16666   0.11978   0.00000  Uiso   1.00
H151   H     0.99245   0.15015   0.11539   0.00000  Uiso   1.00
H152   H     0.92009   0.02631   0.26247   0.00000  Uiso   1.00
H153   H     0.71898   0.13793   0.03847   0.00000  Uiso   1.00
H154   H     0.73833   0.09031   0.01595   0.00000  Uiso   1.00
H155   H     0.76314   0.10619   0.07207   0.00000  Uiso   1.00
H156   H     0.94769   0.19540   0.29486   0.00000  Uiso   1.00
H157   H     0.90353   0.22714   0.26126   0.00000  Uiso   1.00
H158   H     0.92833   0.24302   0.31738   0.00000  Uiso   1.00
H159   H     0.68083   0.10536   0.24965   0.00000  Uiso   1.00
H160   H     0.98583   0.22797   0.08368   0.00000  Uiso   1.00
H161   H     0.67421   0.18318   0.21794   0.00000  Uiso   1.00
H162   H     0.80885   0.04090   0.00894   0.00000  Uiso   1.00
H163   H     0.85782   0.29243   0.32439   0.00000  Uiso   1.00
H164   H     0.75840   0.25887   0.09392   0.00000  Uiso   1.00
H165   H     0.74657   0.30702   0.07086   0.00000  Uiso   1.00
H166   H     0.80223   0.28122   0.05624   0.00000  Uiso   1.00
H167   H     0.90827   0.07446   0.23942   0.00000  Uiso   1.00
H168   H     0.86444   0.05212   0.27710   0.00000  Uiso   1.00
N169   N     0.83335   0.16668   0.28403   0.00000  Uiso   1.00
N170   N     0.83332   0.16666   0.04931   0.00000  Uiso   1.00
O171   O     0.83333   0.10655   0.20625   0.00000  Uiso   1.00
O172   O     0.79750   0.02897   0.03824   0.00000  Uiso   1.00
O173   O     0.79009   0.27880   0.26065   0.00000  Uiso   1.00
O174   O     0.86916   0.30437   0.29509   0.00000  Uiso   1.00
O175   O     0.76681   0.08267   0.25863   0.00000  Uiso   1.00
O176   O     0.70549   0.12717   0.26816   0.00000  Uiso   1.00
O177   O     0.89986   0.25066   0.07471   0.00000  Uiso   1.00
O178   O     0.96118   0.20616   0.06517   0.00000  Uiso   1.00
O179   O     0.83334   0.22678   0.12709   0.00000  Uiso   1.00
O180   O     0.83333   0.10654   0.12706   0.00000  Uiso   1.00
O181   O     0.83334   0.22679   0.20628   0.00000  Uiso   1.00
O182   O     0.75828   0.16667   0.19712   0.00000  Uiso   1.00
O183   O     0.90839   0.16666   0.13621   0.00000  Uiso   1.00
O184   O     0.75828   0.16666   0.11793   0.00000  Uiso   1.00
O185   O     0.90839   0.16667   0.21540   0.00000  Uiso   1.00
O186   O     0.87658   0.05453   0.07268   0.00000  Uiso   1.00
C187   C     0.17111   0.42105   0.16636   0.00000  Uiso   1.00
C188   C     0.18840   0.35630   0.20764   0.00000  Uiso   1.00
C189   C     0.15690   0.62392   0.16816   0.00000  Uiso   1.00
C190   C     0.17643   0.37608   0.16517   0.00000  Uiso   1.00
C191   C     0.12956   0.47640   0.01942   0.00000  Uiso   1.00
C192   C     0.20377   0.52360   0.31391   0.00000  Uiso   1.00
C193   C     0.13003   0.47626   0.30335   0.00000  Uiso   1.00
C194   C     0.20330   0.52374   0.02998   0.00000  Uiso   1.00
C195   C     0.16876   0.36902   0.07697   0.00000  Uiso   1.00
C196   C     0.16457   0.63098   0.25636   0.00000  Uiso   1.00
C197   C     0.11182   0.62126   0.08429   0.00000  Uiso   1.00
C198   C     0.16222   0.57895   0.16698   0.00000  Uiso   1.00
C199   C     0.22151   0.37874   0.24904   0.00000  Uiso   1.00
C200   C     0.08554   0.45180   0.03775   0.00000  Uiso   1.00
C201   C     0.24779   0.54820   0.29558   0.00000  Uiso   1.00
C202   C     0.09001   0.44973   0.27335   0.00000  Uiso   1.00
C203   C     0.24333   0.55026   0.05999   0.00000  Uiso   1.00
C204   C     0.06805   0.49896   0.15480   0.00000  Uiso   1.00
C205   C     0.26528   0.50104   0.17853   0.00000  Uiso   1.00
C206   C     0.01261   0.49528   0.14884   0.00000  Uiso   1.00
C207   C     0.32073   0.50472   0.18449   0.00000  Uiso   1.00
C208   C     0.16071   0.35230   0.12318   0.00000  Uiso   1.00
C209   C     0.17262   0.64770   0.21016   0.00000  Uiso   1.00
C210   C     0.14494   0.64370   0.12570   0.00000  Uiso   1.00
Cu211  Cu    0.16667   0.50001   0.21355   0.00000  Uiso   1.00
Cu212  Cu    0.16667   0.49999   0.11978   0.00000  Uiso   1.00
H213   H     0.32579   0.48349   0.11539   0.00000  Uiso   1.00
H214   H     0.25343   0.35964   0.26247   0.00000  Uiso   1.00
H215   H     0.05231   0.47126   0.03847   0.00000  Uiso   1.00
H216   H     0.07166   0.42364   0.01595   0.00000  Uiso   1.00
H217   H     0.09647   0.43953   0.07207   0.00000  Uiso   1.00
H218   H     0.28103   0.52874   0.29486   0.00000  Uiso   1.00
H219   H     0.23686   0.56047   0.26126   0.00000  Uiso   1.00
H220   H     0.26167   0.57636   0.31738   0.00000  Uiso   1.00
H221   H     0.01417   0.43869   0.24965   0.00000  Uiso   1.00
H222   H     0.31917   0.56131   0.08368   0.00000  Uiso   1.00
H223   H     0.00755   0.51651   0.21794   0.00000  Uiso   1.00
H224   H     0.14218   0.37423   0.00894   0.00000  Uiso   1.00
H225   H     0.19115   0.62577   0.32439   0.00000  Uiso   1.00
H226   H     0.09173   0.59220   0.09392   0.00000  Uiso   1.00
H227   H     0.07991   0.64036   0.07086   0.00000  Uiso   1.00
H228   H     0.13556   0.61455   0.05624   0.00000  Uiso   1.00
H229   H     0.24160   0.40780   0.23942   0.00000  Uiso   1.00
H230   H     0.19777   0.38545   0.27710   0.00000  Uiso   1.00
N231   N     0.16668   0.50001   0.28403   0.00000  Uiso   1.00
N232   N     0.16665   0.49999   0.04931   0.00000  Uiso   1.00
O233   O     0.16666   0.43989   0.20625   0.00000  Uiso   1.00
O234   O     0.13084   0.36230   0.03824   0.00000  Uiso   1.00
O235   O     0.12342   0.61213   0.26065   0.00000  Uiso   1.00
O236   O     0.20250   0.63770   0.29509   0.00000  Uiso   1.00
O237   O     0.10014   0.41601   0.25863   0.00000  Uiso   1.00
O238   O     0.03883   0.46050   0.26816   0.00000  Uiso   1.00
O239   O     0.23320   0.58399   0.07471   0.00000  Uiso   1.00
O240   O     0.29451   0.53950   0.06517   0.00000  Uiso   1.00
O241   O     0.16667   0.56011   0.12709   0.00000  Uiso   1.00
O242   O     0.16666   0.43988   0.12706   0.00000  Uiso   1.00
O243   O     0.16667   0.56012   0.20628   0.00000  Uiso   1.00
O244   O     0.09161   0.50000   0.19712   0.00000  Uiso   1.00
O245   O     0.24172   0.50000   0.13621   0.00000  Uiso   1.00
O246   O     0.09161   0.49999   0.11793   0.00000  Uiso   1.00
O247   O     0.24172   0.50001   0.21540   0.00000  Uiso   1.00
O248   O     0.20992   0.38787   0.07268   0.00000  Uiso   1.00
C249   C     0.50445   0.42105   0.16636   0.00000  Uiso   1.00
C250   C     0.52173   0.35630   0.20764   0.00000  Uiso   1.00
C251   C     0.49024   0.62392   0.16816   0.00000  Uiso   1.00
C252   C     0.50976   0.37608   0.16517   0.00000  Uiso   1.00
C253   C     0.46289   0.47640   0.01942   0.00000  Uiso   1.00
C254   C     0.53711   0.52360   0.31391   0.00000  Uiso   1.00
C255   C     0.46336   0.47626   0.30335   0.00000  Uiso   1.00
C256   C     0.53664   0.52374   0.02998   0.00000  Uiso   1.00
C257   C     0.50209   0.36902   0.07697   0.00000  Uiso   1.00
C258   C     0.49791   0.63098   0.25636   0.00000  Uiso   1.00
C259   C     0.44516   0.62126   0.08429   0.00000  Uiso   1.00
C260   C     0.49555   0.57895   0.16698   0.00000  Uiso   1.00
C261   C     0.55485   0.37874   0.24904   0.00000  Uiso   1.00
C262   C     0.41888   0.45180   0.03775   0.00000  Uiso   1.00
C263   C     0.58112   0.54820   0.29558   0.00000  Uiso   1.00
C264   C     0.42334   0.44973   0.27335   0.00000  Uiso   1.00
C265   C     0.57666   0.55026   0.05999   0.00000  Uiso   1.00
C266   C     0.40138   0.49896   0.15480   0.00000  Uiso   1.00
C267   C     0.59862   0.50104   0.17853   0.00000  Uiso   1.00
C268   C     0.34594   0.49528   0.14884   0.00000  Uiso   1.00
C269   C     0.65406   0.50472   0.18449   0.00000  Uiso   1.00
C270   C     0.49404   0.35230   0.12318   0.00000  Uiso   1.00
C271   C     0.50596   0.64770   0.21016   0.00000  Uiso   1.00
C272   C     0.47827   0.64370   0.12570   0.00000  Uiso   1.00
Cu273  Cu    0.50000   0.50001   0.21355   0.00000  Uiso   1.00
Cu274  Cu    0.50000   0.49999   0.11978   0.00000  Uiso   1.00
H275   H     0.65912   0.48349   0.11539   0.00000  Uiso   1.00
H276   H     0.58676   0.35964   0.26247   0.00000  Uiso   1.00
H277   H     0.38564   0.47126   0.03847   0.00000  Uiso   1.00
H278   H     0.40500   0.42364   0.01595   0.00000  Uiso   1.00
H279   H     0.42981   0.43953   0.07207   0.00000  Uiso   1.00
H280   H     0.61436   0.52874   0.29486   0.00000  Uiso   1.00
H281   H     0.57019   0.56047   0.26126   0.00000  Uiso   1.00
H282   H     0.59500   0.57636   0.31738   0.00000  Uiso   1.00
H283   H     0.34750   0.43869   0.24965   0.00000  Uiso   1.00
H284   H     0.65250   0.56131   0.08368   0.00000  Uiso   1.00
H285   H     0.34088   0.51651   0.21794   0.00000  Uiso   1.00
H286   H     0.47552   0.37423   0.00894   0.00000  Uiso   1.00
H287   H     0.52448   0.62577   0.32439   0.00000  Uiso   1.00
H288   H     0.42507   0.59220   0.09392   0.00000  Uiso   1.00
H289   H     0.41324   0.64036   0.07086   0.00000  Uiso   1.00
H290   H     0.46890   0.61455   0.05624   0.00000  Uiso   1.00
H291   H     0.57493   0.40780   0.23942   0.00000  Uiso   1.00
H292   H     0.53110   0.38545   0.27710   0.00000  Uiso   1.00
N293   N     0.50001   0.50001   0.28403   0.00000  Uiso   1.00
N294   N     0.49999   0.49999   0.04931   0.00000  Uiso   1.00
O295   O     0.50000   0.43989   0.20625   0.00000  Uiso   1.00
O296   O     0.46417   0.36230   0.03824   0.00000  Uiso   1.00
O297   O     0.45675   0.61213   0.26065   0.00000  Uiso   1.00
O298   O     0.53583   0.63770   0.29509   0.00000  Uiso   1.00
O299   O     0.43347   0.41601   0.25863   0.00000  Uiso   1.00
O300   O     0.37216   0.46050   0.26816   0.00000  Uiso   1.00
O301   O     0.56653   0.58399   0.07471   0.00000  Uiso   1.00
O302   O     0.62784   0.53950   0.06517   0.00000  Uiso   1.00
O303   O     0.50000   0.56011   0.12709   0.00000  Uiso   1.00
O304   O     0.50000   0.43988   0.12706   0.00000  Uiso   1.00
O305   O     0.50000   0.56012   0.20628   0.00000  Uiso   1.00
O306   O     0.42495   0.50000   0.19712   0.00000  Uiso   1.00
O307   O     0.57505   0.50000   0.13621   0.00000  Uiso   1.00
O308   O     0.42494   0.49999   0.11793   0.00000  Uiso   1.00
O309   O     0.57506   0.50001   0.21540   0.00000  Uiso   1.00
O310   O     0.54325   0.38787   0.07268   0.00000  Uiso   1.00
C311   C     0.83778   0.42105   0.16636   0.00000  Uiso   1.00
C312   C     0.85506   0.35630   0.20764   0.00000  Uiso   1.00
C313   C     0.82357   0.62392   0.16816   0.00000  Uiso   1.00
C314   C     0.84310   0.37608   0.16517   0.00000  Uiso   1.00
C315   C     0.79623   0.47640   0.01942   0.00000  Uiso   1.00
C316   C     0.87044   0.52360   0.31391   0.00000  Uiso   1.00
C317   C     0.79670   0.47626   0.30335   0.00000  Uiso   1.00
C318   C     0.86997   0.52374   0.02998   0.00000  Uiso   1.00
C319   C     0.83543   0.36902   0.07697   0.00000  Uiso   1.00
C320   C     0.83124   0.63098   0.25636   0.00000  Uiso   1.00
C321   C     0.77849   0.62126   0.08429   0.00000  Uiso   1.00
C322   C     0.82889   0.57895   0.16698   0.00000  Uiso   1.00
C323   C     0.88818   0.37874   0.24904   0.00000  Uiso   1.00
C324   C     0.75221   0.45180   0.03775   0.00000  Uiso   1.00
C325   C     0.91446   0.54820   0.29558   0.00000  Uiso   1.00
C326   C     0.75667   0.44973   0.27335   0.00000  Uiso   1.00
C327   C     0.90999   0.55026   0.05999   0.00000  Uiso   1.00
C328   C     0.73472   0.49896   0.15480   0.00000  Uiso   1.00
C329   C     0.93195   0.50104   0.17853   0.00000  Uiso   1.00
C330   C     0.67927   0.49528   0.14884   0.00000  Uiso   1.00
C331   C     0.98740   0.50472   0.18449   0.00000  Uiso   1.00
C332   C     0.82738   0.35230   0.12318   0.00000  Uiso   1.00
C333   C     0.83929   0.64770   0.21016   0.00000  Uiso   1.00
C334   C     0.81161   0.64370   0.12570   0.00000  Uiso   1.00
Cu335  Cu    0.83333   0.50001   0.21355   0.00000  Uiso   1.00
Cu336  Cu    0.83333   0.49999   0.11978   0.00000  Uiso   1.00
H337   H     0.99245   0.48349   0.11539   0.00000  Uiso   1.00
H338   H     0.92009   0.35964   0.26247   0.00000  Uiso   1.00
H339   H     0.71898   0.47126   0.03847   0.00000  Uiso   1.00
H340   H     0.73833   0.42364   0.01595   0.00000  Uiso   1.00
H341   H     0.76314   0.43953   0.07207   0.00000  Uiso   1.00
H342   H     0.94769   0.52874   0.29486   0.00000  Uiso   1.00
H343   H     0.90353   0.56047   0.26126   0.00000  Uiso   1.00
H344   H     0.92833   0.57636   0.31738   0.00000  Uiso   1.00
H345   H     0.68083   0.43869   0.24965   0.00000  Uiso   1.00
H346   H     0.98583   0.56131   0.08368   0.00000  Uiso   1.00
H347   H     0.67421   0.51651   0.21794   0.00000  Uiso   1.00
H348   H     0.80885   0.37423   0.00894   0.00000  Uiso   1.00
H349   H     0.85782   0.62577   0.32439   0.00000  Uiso   1.00
H350   H     0.75840   0.59220   0.09392   0.00000  Uiso   1.00
H351   H     0.74657   0.64036   0.07086   0.00000  Uiso   1.00
H352   H     0.80223   0.61455   0.05624   0.00000  Uiso   1.00
H353   H     0.90827   0.40780   0.23942   0.00000  Uiso   1.00
H354   H     0.86444   0.38545   0.27710   0.00000  Uiso   1.00
N355   N     0.83335   0.50001   0.28403   0.00000  Uiso   1.00
N356   N     0.83332   0.49999   0.04931   0.00000  Uiso   1.00
O357   O     0.83333   0.43989   0.20625   0.00000  Uiso   1.00
O358   O     0.79750   0.36230   0.03824   0.00000  Uiso   1.00
O359   O     0.79009   0.61213   0.26065   0.00000  Uiso   1.00
O360   O     0.86916   0.63770   0.29509   0.00000  Uiso   1.00
O361   O     0.76681   0.41601   0.25863   0.00000  Uiso   1.00
O362   O     0.70549   0.46050   0.26816   0.00000  Uiso   1.00
O363   O     0.89986   0.58399   0.07471   0.00000  Uiso   1.00
O364   O     0.96118   0.53950   0.06517   0.00000  Uiso   1.00
O365   O     0.83334   0.56011   0.12709   0.00000  Uiso   1.00
O366   O     0.83333   0.43988   0.12706   0.00000  Uiso   1.00
O367   O     0.83334   0.56012   0.20628   0.00000  Uiso   1.00
O368   O     0.75828   0.50000   0.19712   0.00000  Uiso   1.00
O369   O     0.90839   0.50000   0.13621   0.00000  Uiso   1.00
O370   O     0.75828   0.49999   0.11793   0.00000  Uiso   1.00
O371   O     0.90839   0.50001   0.21540   0.00000  Uiso   1.00
O372   O     0.87658   0.38787   0.07268   0.00000  Uiso   1.00
C373   C     0.17111   0.75438   0.16636   0.00000  Uiso   1.00
C374   C     0.18840   0.68964   0.20764   0.00000  Uiso   1.00
C375   C     0.15690   0.95725   0.16816   0.00000  Uiso   1.00
C376   C     0.17643   0.70941   0.16517   0.00000  Uiso   1.00
C377   C     0.12956   0.80974   0.01942   0.00000  Uiso   1.00
C378   C     0.20377   0.85693   0.31391   0.00000  Uiso   1.00
C379   C     0.13003   0.80959   0.30335   0.00000  Uiso   1.00
C380   C     0.20330   0.85707   0.02998   0.00000  Uiso   1.00
C381   C     0.16876   0.70235   0.07697   0.00000  Uiso   1.00
C382   C     0.16457   0.96432   0.25636   0.00000  Uiso   1.00
C383   C     0.11182   0.95459   0.08429   0.00000  Uiso   1.00
C384   C     0.16222   0.91229   0.16698   0.00000  Uiso   1.00
C385   C     0.22151   0.71207   0.24904   0.00000  Uiso   1.00
C386   C     0.08554   0.78514   0.03775   0.00000  Uiso   1.00
C387   C     0.24779   0.88153   0.29558   0.00000  Uiso   1.00
C388   C     0.09001   0.78307   0.27335   0.00000  Uiso   1.00
C389   C     0.24333   0.88360   0.05999   0.00000  Uiso   1.00
C390   C     0.06805   0.83229   0.15480   0.00000  Uiso   1.00
C391   C     0.26528   0.83438   0.17853   0.00000  Uiso   1.00
C392   C     0.01261   0.82862   0.14884   0.00000  Uiso   1.00
C393   C     0.32073   0.83805   0.18449   0.00000  Uiso   1.00
C394   C     0.16071   0.68563   0.12318   0.00000  Uiso   1.00
C395   C     0.17262   0.98104   0.21016   0.00000  Uiso   1.00
C396   C     0.14494   0.97703   0.12570   0.00000  Uiso   1.00
Cu397  Cu    0.16667   0.83334   0.21355   0.00000  Uiso   1.00
Cu398  Cu    0.16667   0.83333   0.11978   0.00000  Uiso   1.00
H399   H     0.32579   0.81682   0.11539   0.00000  Uiso   1.00
H400   H     0.25343   0.69297   0.26247   0.00000  Uiso   1.00
H401   H     0.05231   0.80460   0.03847   0.00000  Uiso   1.00
H402   H     0.07166   0.75698   0.01595   0.00000  Uiso   1.00
H403   H     0.09647   0.77286   0.07207   0.00000  Uiso   1.00
H404   H     0.28103   0.86207   0.29486   0.00000  Uiso   1.00
H405   H     0.23686   0.89381   0.26126   0.00000  Uiso   1.00
H406   H     0.26167   0.90969   0.31738   0.00000  Uiso   1.00
H407   H     0.01417   0.77202   0.24965   0.00000  Uiso   1.00
H408   H     0.31917   0.89464   0.08368   0.00000  Uiso   1.00
H409   H     0.00755   0.84985   0.21794   0.00000  Uiso   1.00
H410   H     0.14218   0.70757   0.00894   0.00000  Uiso   1.00
H411   H     0.19115   0.95910   0.32439   0.00000  Uiso   1.00
H412   H     0.09173   0.92554   0.09392   0.00000  Uiso   1.00
H413   H     0.07991   0.97369   0.07086   0.00000  Uiso   1.00
H414   H     0.13556   0.94788   0.05624   0.00000  Uiso   1.00
H415   H     0.24160   0.74113   0.23942   0.00000  Uiso   1.00
H416   H     0.19777   0.71878   0.27710   0.00000  Uiso   1.00
N417   N     0.16668   0.83334   0.28403   0.00000  Uiso   1.00
N418   N     0.16665   0.83332   0.04931   0.00000  Uiso   1.00
O419   O     0.16666   0.77322   0.20625   0.00000  Uiso   1.00
O420   O     0.13084   0.69564   0.03824   0.00000  Uiso   1.00
O421   O     0.12342   0.94547   0.26065   0.00000  Uiso   1.00
O422   O     0.20250   0.97103   0.29509   0.00000  Uiso   1.00
O423   O     0.10014   0.74934   0.25863   0.00000  Uiso   1.00
O424   O     0.03883   0.79383   0.26816   0.00000  Uiso   1.00
O425   O     0.23320   0.91732   0.07471   0.00000  Uiso   1.00
O426   O     0.29451   0.87283   0.06517   0.00000  Uiso   1.00
O427   O     0.16667   0.89345   0.12709   0.00000  Uiso   1.00
O428   O     0.16666   0.77321   0.12706   0.00000  Uiso   1.00
O429   O     0.16667   0.89346   0.20628   0.00000  Uiso   1.00
O430   O     0.09161   0.83334   0.19712   0.00000  Uiso   1.00
O431   O     0.24172   0.83333   0.13621   0.00000  Uiso   1.00
O432   O     0.09161   0.83333   0.11793   0.00000  Uiso   1.00
O433   O     0.24172   0.83334   0.21540   0.00000  Uiso   1.00
O434   O     0.20992   0.72120   0.07268   0.00000  Uiso   1.00
C435   C     0.50445   0.75438   0.16636   0.00000  Uiso   1.00
C436   C     0.52173   0.68964   0.20764   0.00000  Uiso   1.00
C437   C     0.49024   0.95725   0.16816   0.00000  Uiso   1.00
C438   C     0.50976   0.70941   0.16517   0.00000  Uiso   1.00
C439   C     0.46289   0.80974   0.01942   0.00000  Uiso   1.00
C440   C     0.53711   0.85693   0.31391   0.00000  Uiso   1.00
C441   C     0.46336   0.80959   0.30335   0.00000  Uiso   1.00
C442   C     0.53664   0.85707   0.02998   0.00000  Uiso   1.00
C443   C     0.50209   0.70235   0.07697   0.00000  Uiso   1.00
C444   C     0.49791   0.96432   0.25636   0.00000  Uiso   1.00
C445   C     0.44516   0.95459   0.08429   0.00000  Uiso   1.00
C446   C     0.49555   0.91229   0.16698   0.00000  Uiso   1.00
C447   C     0.55485   0.71207   0.24904   0.00000  Uiso   1.00
C448   C     0.41888   0.78514   0.03775   0.00000  Uiso   1.00
C449   C     0.58112   0.88153   0.29558   0.00000  Uiso   1.00
C450   C     0.42334   0.78307   0.27335   0.00000  Uiso   1.00
C451   C     0.57666   0.88360   0.05999   0.00000  Uiso   1.00
C452   C     0.40138   0.83229   0.15480   0.00000  Uiso   1.00
C453   C     0.59862   0.83438   0.17853   0.00000  Uiso   1.00
C454   C     0.34594   0.82862   0.14884   0.00000  Uiso   1.00
C455   C     0.65406   0.83805   0.18449   0.00000  Uiso   1.00
C456   C     0.49404   0.68563   0.12318   0.00000  Uiso   1.00
C457   C     0.50596   0.98104   0.21016   0.00000  Uiso   1.00
C458   C     0.47827   0.97703   0.12570   0.00000  Uiso   1.00
Cu459  Cu    0.50000   0.83334   0.21355   0.00000  Uiso   1.00
Cu460  Cu    0.50000   0.83333   0.11978   0.00000  Uiso   1.00
H461   H     0.65912   0.81682   0.11539   0.00000  Uiso   1.00
H462   H     0.58676   0.69297   0.26247   0.00000  Uiso   1.00
H463   H     0.38564   0.80460   0.03847   0.00000  Uiso   1.00
H464   H     0.40500   0.75698   0.01595   0.00000  Uiso   1.00
H465   H     0.42981   0.77286   0.07207   0.00000  Uiso   1.00
H466   H     0.61436   0.86207   0.29486   0.00000  Uiso   1.00
H467   H     0.57019   0.89381   0.26126   0.00000  Uiso   1.00
H468   H     0.59500   0.90969   0.31738   0.00000  Uiso   1.00
H469   H     0.34750   0.77202   0.24965   0.00000  Uiso   1.00
H470   H     0.65250   0.89464   0.08368   0.00000  Uiso   1.00
H471   H     0.34088   0.84985   0.21794   0.00000  Uiso   1.00
H472   H     0.47552   0.70757   0.00894   0.00000  Uiso   1.00
H473   H     0.52448   0.95910   0.32439   0.00000  Uiso   1.00
H474   H     0.42507   0.92554   0.09392   0.00000  Uiso   1.00
H475   H     0.41324   0.97369   0.07086   0.00000  Uiso   1.00
H476   H     0.46890   0.94788   0.05624   0.00000  Uiso   1.00
H477   H     0.57493   0.74113   0.23942   0.00000  Uiso   1.00
H478   H     0.53110   0.71878   0.27710   0.00000  Uiso   1.00
N479   N     0.50001   0.83334   0.28403   0.00000  Uiso   1.00
N480   N     0.49999   0.83332   0.04931   0.00000  Uiso   1.00
O481   O     0.50000   0.77322   0.20625   0.00000  Uiso   1.00
O482   O     0.46417   0.69564   0.03824   0.00000  Uiso   1.00
O483   O     0.45675   0.94547   0.26065   0.00000  Uiso   1.00
O484   O     0.53583   0.97103   0.29509   0.00000  Uiso   1.00
O485   O     0.43347   0.74934   0.25863   0.00000  Uiso   1.00
O486   O     0.37216   0.79383   0.26816   0.00000  Uiso   1.00
O487   O     0.56653   0.91732   0.07471   0.00000  Uiso   1.00
O488   O     0.62784   0.87283   0.06517   0.00000  Uiso   1.00
O489   O     0.50000   0.89345   0.12709   0.00000  Uiso   1.00
O490   O     0.50000   0.77321   0.12706   0.00000  Uiso   1.00
O491   O     0.50000   0.89346   0.20628   0.00000  Uiso   1.00
O492   O     0.42495   0.83334   0.19712   0.00000  Uiso   1.00
O493   O     0.57505   0.83333   0.13621   0.00000  Uiso   1.00
O494   O     0.42494   0.83333   0.11793   0.00000  Uiso   1.00
O495   O     0.57506   0.83334   0.21540   0.00000  Uiso   1.00
O496   O     0.54325   0.72120   0.07268   0.00000  Uiso   1.00
C497   C     0.83778   0.75438   0.16636   0.00000  Uiso   1.00
C498   C     0.85506   0.68964   0.20764   0.00000  Uiso   1.00
C499   C     0.82357   0.95725   0.16816   0.00000  Uiso   1.00
C500   C     0.84310   0.70941   0.16517   0.00000  Uiso   1.00
C501   C     0.79623   0.80974   0.01942   0.00000  Uiso   1.00
C502   C     0.87044   0.85693   0.31391   0.00000  Uiso   1.00
C503   C     0.79670   0.80959   0.30335   0.00000  Uiso   1.00
C504   C     0.86997   0.85707   0.02998   0.00000  Uiso   1.00
C505   C     0.83543   0.70235   0.07697   0.00000  Uiso   1.00
C506   C     0.83124   0.96432   0.25636   0.00000  Uiso   1.00
C507   C     0.77849   0.95459   0.08429   0.00000  Uiso   1.00
C508   C     0.82889   0.91229   0.16698   0.00000  Uiso   1.00
C509   C     0.88818   0.71207   0.24904   0.00000  Uiso   1.00
C510   C     0.75221   0.78514   0.03775   0.00000  Uiso   1.00
C511   C     0.91446   0.88153   0.29558   0.00000  Uiso   1.00
C512   C     0.75667   0.78307   0.27335   0.00000  Uiso   1.00
C513   C     0.90999   0.88360   0.05999   0.00000  Uiso   1.00
C514   C     0.73472   0.83229   0.15480   0.00000  Uiso   1.00
C515   C     0.93195   0.83438   0.17853   0.00000  Uiso   1.00
C516   C     0.67927   0.82862   0.14884   0.00000  Uiso   1.00
C517   C     0.98740   0.83805   0.18449   0.00000  Uiso   1.00
C518   C     0.82738   0.68563   0.12318   0.00000  Uiso   1.00
C519   C     0.83929   0.98104   0.21016   0.00000  Uiso   1.00
C520   C     0.81161   0.97703   0.12570   0.00000  Uiso   1.00
Cu521  Cu    0.83333   0.83334   0.21355   0.00000  Uiso   1.00
Cu522  Cu    0.83333   0.83333   0.11978   0.00000  Uiso   1.00
H523   H     0.99245   0.81682   0.11539   0.00000  Uiso   1.00
H524   H     0.92009   0.69297   0.26247   0.00000  Uiso   1.00
H525   H     0.71898   0.80460   0.03847   0.00000  Uiso   1.00
H526   H     0.73833   0.75698   0.01595   0.00000  Uiso   1.00
H527   H     0.76314   0.77286   0.07207   0.00000  Uiso   1.00
H528   H     0.94769   0.86207   0.29486   0.00000  Uiso   1.00
H529   H     0.90353   0.89381   0.26126   0.00000  Uiso   1.00
H530   H     0.92833   0.90969   0.31738   0.00000  Uiso   1.00
H531   H     0.68083   0.77202   0.24965   0.00000  Uiso   1.00
H532   H     0.98583   0.89464   0.08368   0.00000  Uiso   1.00
H533   H     0.67421   0.84985   0.21794   0.00000  Uiso   1.00
H534   H     0.80885   0.70757   0.00894   0.00000  Uiso   1.00
H535   H     0.85782   0.95910   0.32439   0.00000  Uiso   1.00
H536   H     0.75840   0.92554   0.09392   0.00000  Uiso   1.00
H537   H     0.74657   0.97369   0.07086   0.00000  Uiso   1.00
H538   H     0.80223   0.94788   0.05624   0.00000  Uiso   1.00
H539   H     0.90827   0.74113   0.23942   0.00000  Uiso   1.00
H540   H     0.86444   0.71878   0.27710   0.00000  Uiso   1.00
N541   N     0.83335   0.83334   0.28403   0.00000  Uiso   1.00
N542   N     0.83332   0.83332   0.04931   0.00000  Uiso   1.00
O543   O     0.83333   0.77322   0.20625   0.00000  Uiso   1.00
O544   O     0.79750   0.69564   0.03824   0.00000  Uiso   1.00
O545   O     0.79009   0.94547   0.26065   0.00000  Uiso   1.00
O546   O     0.86916   0.97103   0.29509   0.00000  Uiso   1.00
O547   O     0.76681   0.74934   0.25863   0.00000  Uiso   1.00
O548   O     0.70549   0.79383   0.26816   0.00000  Uiso   1.00
O549   O     0.89986   0.91732   0.07471   0.00000  Uiso   1.00
O550   O     0.96118   0.87283   0.06517   0.00000  Uiso   1.00
O551   O     0.83334   0.89345   0.12709   0.00000  Uiso   1.00
O552   O     0.83333   0.77321   0.12706   0.00000  Uiso   1.00
O553   O     0.83334   0.89346   0.20628   0.00000  Uiso   1.00
O554   O     0.75828   0.83334   0.19712   0.00000  Uiso   1.00
O555   O     0.90839   0.83333   0.13621   0.00000  Uiso   1.00
O556   O     0.75828   0.83333   0.11793   0.00000  Uiso   1.00
O557   O     0.90839   0.83334   0.21540   0.00000  Uiso   1.00
O558   O     0.87658   0.72120   0.07268   0.00000  Uiso   1.00
C559   C     0.17111   0.08771   0.49969   0.00000  Uiso   1.00
C560   C     0.18840   0.02297   0.54097   0.00000  Uiso   1.00
C561   C     0.15690   0.29058   0.50149   0.00000  Uiso   1.00
C562   C     0.17643   0.04275   0.49851   0.00000  Uiso   1.00
C563   C     0.12956   0.14307   0.35275   0.00000  Uiso   1.00
C564   C     0.20377   0.19026   0.64725   0.00000  Uiso   1.00
C565   C     0.13003   0.14293   0.63668   0.00000  Uiso   1.00
C566   C     0.20330   0.19041   0.36332   0.00000  Uiso   1.00
C567   C     0.16876   0.03568   0.41031   0.00000  Uiso   1.00
C568   C     0.16457   0.29765   0.58970   0.00000  Uiso   1.00
C569   C     0.11182   0.28793   0.41762   0.00000  Uiso   1.00
C570   C     0.16222   0.24562   0.50031   0.00000  Uiso   1.00
C571   C     0.22151   0.04541   0.58238   0.00000  Uiso   1.00
C572   C     0.08554   0.11847   0.37108   0.00000  Uiso   1.00
C573   C     0.24779   0.21486   0.62892   0.00000  Uiso   1.00
C574   C     0.09001   0.11640   0.60668   0.00000  Uiso   1.00
C575   C     0.24333   0.21693   0.39332   0.00000  Uiso   1.00
C576   C     0.06805   0.16562   0.48813   0.00000  Uiso   1.00
C577   C     0.26528   0.16771   0.51187   0.00000  Uiso   1.00
C578   C     0.01261   0.16195   0.48217   0.00000  Uiso   1.00
C579   C     0.32073   0.17138   0.51783   0.00000  Uiso   1.00
C580   C     0.16071   0.01896   0.45651   0.00000  Uiso   1.00
C581   C     0.17262   0.31437   0.54349   0.00000  Uiso   1.00
C582   C     0.14494   0.31036   0.45903   0.00000  Uiso   1.00
Cu583  Cu    0.16667   0.16667   0.54689   0.00000  Uiso   1.00
Cu584  Cu    0.16667   0.16666   0.45311   0.00000  Uiso   1.00
H585   H     0.32579   0.15015   0.44873   0.00000  Uiso   1.00
H586   H     0.25343   0.02631   0.59580   0.00000  Uiso   1.00
H587   H     0.05231   0.13793   0.37181   0.00000  Uiso   1.00
H588   H     0.07166   0.09031   0.34928   0.00000  Uiso   1.00
H589   H     0.09647   0.10619   0.40541   0.00000  Uiso   1.00
H590   H     0.28103   0.19540   0.62819   0.00000  Uiso   1.00
H591   H     0.23686   0.22714   0.59459   0.00000  Uiso   1.00
H592   H     0.26167   0.24302   0.65072   0.00000  Uiso   1.00
H593   H     0.01417   0.10536   0.58299   0.00000  Uiso   1.00
H594   H     0.31917   0.22797   0.41701   0.00000  Uiso   1.00
H595   H     0.00755   0.18318   0.55127   0.00000  Uiso   1.00
H596   H     0.14218   0.04090   0.34228   0.00000  Uiso   1.00
H597   H     0.19115   0.29243   0.65772   0.00000  Uiso   1.00
H598   H     0.09173   0.25887   0.42725   0.00000  Uiso   1.00
H599   H     0.07991   0.30702   0.40420   0.00000  Uiso   1.00
H600   H     0.13556   0.28122   0.38957   0.00000  Uiso   1.00
H601   H     0.24160   0.07446   0.57275   0.00000  Uiso   1.00
H602   H     0.19777   0.05212   0.61043   0.00000  Uiso   1.00
N603   N     0.16668   0.16668   0.61736   0.00000  Uiso   1.00
N604   N     0.16665   0.16666   0.38264   0.00000  Uiso   1.00
O605   O     0.16666   0.10655   0.53958   0.00000  Uiso   1.00
O606   O     0.13084   0.02897   0.37158   0.00000  Uiso   1.00
O607   O     0.12342   0.27880   0.59398   0.00000  Uiso   1.00
O608   O     0.20250   0.30437   0.62843   0.00000  Uiso   1.00
O609   O     0.10014   0.08267   0.59196   0.00000  Uiso   1.00
O610   O     0.03883   0.12717   0.60150   0.00000  Uiso   1.00
O611   O     0.23320   0.25066   0.40804   0.00000  Uiso   1.00
O612   O     0.29451   0.20616   0.39850   0.00000  Uiso   1.00
O613   O     0.16667   0.22678   0.46042   0.00000  Uiso   1.00
O614   O     0.16666   0.10654   0.46039   0.00000  Uiso   1.00
O615   O     0.16667   0.22679   0.53961   0.00000  Uiso   1.00
O616   O     0.09161   0.16667   0.53046   0.00000  Uiso   1.00
O617   O     0.24172   0.16666   0.46954   0.00000  Uiso   1.00
O618   O     0.09161   0.16666   0.45127   0.00000  Uiso   1.00
O619   O     0.24172   0.16667   0.54873   0.00000  Uiso   1.00
O620   O     0.20992   0.05453   0.40602   0.00000  Uiso   1.00
C621   C     0.50445   0.08771   0.49969   0.00000  Uiso   1.00
C622   C     0.52173   0.02297   0.54097   0.00000  Uiso   1.00
C623   C     0.49024   0.29058   0.50149   0.00000  Uiso   1.00
C624   C     0.50976   0.04275   0.49851   0.00000  Uiso   1.00
C625   C     0.46289   0.14307   0.35275   0.00000  Uiso   1.00
C626   C     0.53711   0.19026   0.64725   0.00000  Uiso   1.00
C627   C     0.46336   0.14293   0.63668   0.00000  Uiso   1.00
C628   C     0.53664   0.19041   0.36332   0.00000  Uiso   1.00
C629   C     0.50209   0.03568   0.41031   0.00000  Uiso   1.00
C630   C     0.49791   0.29765   0.58970   0.00000  Uiso   1.00
C631   C     0.44516   0.28793   0.41762   0.00000  Uiso   1.00
C632   C     0.49555   0.24562   0.50031   0.00000  Uiso   1.00
C633   C     0.55485   0.04541   0.58238   0.00000  Uiso   1.00
C634   C     0.41888   0.11847   0.37108   0.00000  Uiso   1.00
C635   C     0.58112   0.21486   0.62892   0.00000  Uiso   1.00
C636   C     0.42334   0.11640   0.60668   0.00000  Uiso   1.00
C637   C     0.57666   0.21693   0.39332   0.00000  Uiso   1.00
C638   C     0.40138   0.16562   0.48813   0.00000  Uiso   1.00
C639   C     0.59862   0.16771   0.51187   0.00000  Uiso   1.00
C640   C     0.34594   0.16195   0.48217   0.00000  Uiso   1.00
C641   C     0.65406   0.17138   0.51783   0.00000  Uiso   1.00
C642   C     0.49404   0.01896   0.45651   0.00000  Uiso   1.00
C643   C     0.50596   0.31437   0.54349   0.00000  Uiso   1.00
C644   C     0.47827   0.31036   0.45903   0.00000  Uiso   1.00
Cu645  Cu    0.50000   0.16667   0.54689   0.00000  Uiso   1.00
Cu646  Cu    0.50000   0.16666   0.45311   0.00000  Uiso   1.00
H647   H     0.65912   0.15015   0.44873   0.00000  Uiso   1.00
H648   H     0.58676   0.02631   0.59580   0.00000  Uiso   1.00
H649   H     0.38564   0.13793   0.37181   0.00000  Uiso   1.00
H650   H     0.40500   0.09031   0.34928   0.00000  Uiso   1.00
H651   H     0.42981   0.10619   0.40541   0.00000  Uiso   1.00
H652   H     0.61436   0.19540   0.62819   0.00000  Uiso   1.00
H653   H     0.57019   0.22714   0.59459   0.00000  Uiso   1.00
H654   H     0.59500   0.24302   0.65072   0.00000  Uiso   1.00
H655   H     0.34750   0.10536   0.58299   0.00000  Uiso   1.00
H656   H     0.65250   0.22797   0.41701   0.00000  Uiso   1.00
H657   H     0.34088   0.18318   0.55127   0.00000  Uiso   1.00
H658   H     0.47552   0.04090   0.34228   0.00000  Uiso   1.00
H659   H     0.52448   0.29243   0.65772   0.00000  Uiso   1.00
H660   H     0.42507   0.25887   0.42725   0.00000  Uiso   1.00
H661   H     0.41324   0.30702   0.40420   0.00000  Uiso   1.00
H662   H     0.46890   0.28122   0.38957   0.00000  Uiso   1.00
H663   H     0.57493   0.07446   0.57275   0.00000  Uiso   1.00
H664   H     0.53110   0.05212   0.61043   0.00000  Uiso   1.00
N665   N     0.50001   0.16668   0.61736   0.00000  Uiso   1.00
N666   N     0.49999   0.16666   0.38264   0.00000  Uiso   1.00
O667   O     0.50000   0.10655   0.53958   0.00000  Uiso   1.00
O668   O     0.46417   0.02897   0.37158   0.00000  Uiso   1.00
O669   O     0.45675   0.27880   0.59398   0.00000  Uiso   1.00
O670   O     0.53583   0.30437   0.62843   0.00000  Uiso   1.00
O671   O     0.43347   0.08267   0.59196   0.00000  Uiso   1.00
O672   O     0.37216   0.12717   0.60150   0.00000  Uiso   1.00
O673   O     0.56653   0.25066   0.40804   0.00000  Uiso   1.00
O674   O     0.62784   0.20616   0.39850   0.00000  Uiso   1.00
O675   O     0.50000   0.22678   0.46042   0.00000  Uiso   1.00
O676   O     0.50000   0.10654   0.46039   0.00000  Uiso   1.00
O677   O     0.50000   0.22679   0.53961   0.00000  Uiso   1.00
O678   O     0.42495   0.16667   0.53046   0.00000  Uiso   1.00
O679   O     0.57505   0.16666   0.46954   0.00000  Uiso   1.00
O680   O     0.42494   0.16666   0.45127   0.00000  Uiso   1.00
O681   O     0.57506   0.16667   0.54873   0.00000  Uiso   1.00
O682   O     0.54325   0.05453   0.40602   0.00000  Uiso   1.00
C683   C     0.83778   0.08771   0.49969   0.00000  Uiso   1.00
C684   C     0.85506   0.02297   0.54097   0.00000  Uiso   1.00
C685   C     0.82357   0.29058   0.50149   0.00000  Uiso   1.00
C686   C     0.84310   0.04275   0.49851   0.00000  Uiso   1.00
C687   C     0.79623   0.14307   0.35275   0.00000  Uiso   1.00
C688   C     0.87044   0.19026   0.64725   0.00000  Uiso   1.00
C689   C     0.79670   0.14293   0.63668   0.00000  Uiso   1.00
C690   C     0.86997   0.19041   0.36332   0.00000  Uiso   1.00
C691   C     0.83543   0.03568   0.41031   0.00000  Uiso   1.00
C692   C     0.83124   0.29765   0.58970   0.00000  Uiso   1.00
C693   C     0.77849   0.28793   0.41762   0.00000  Uiso   1.00
C694   C     0.82889   0.24562   0.50031   0.00000  Uiso   1.00
C695   C     0.88818   0.04541   0.58238   0.00000  Uiso   1.00
C696   C     0.75221   0.11847   0.37108   0.00000  Uiso   1.00
C697   C     0.91446   0.21486   0.62892   0.00000  Uiso   1.00
C698   C     0.75667   0.11640   0.60668   0.00000  Uiso   1.00
C699   C     0.90999   0.21693   0.39332   0.00000  Uiso   1.00
C700   C     0.73472   0.16562   0.48813   0.00000  Uiso   1.00
C701   C     0.93195   0.16771   0.51187   0.00000  Uiso   1.00
C702   C     0.67927   0.16195   0.48217   0.00000  Uiso   1.00
C703   C     0.98740   0.17138   0.51783   0.00000  Uiso   1.00
C704   C     0.82738   0.01896   0.45651   0.00000  Uiso   1.00
C705   C     0.83929   0.31437   0.54349   0.00000  Uiso   1.00
C706   C     0.81161   0.31036   0.45903   0.00000  Uiso   1.00
Cu707  Cu    0.83333   0.16667   0.54689   0.00000  Uiso   1.00
Cu708  Cu    0.83333   0.16666   0.45311   0.00000  Uiso   1.00
H709   H     0.99245   0.15015   0.44873   0.00000  Uiso   1.00
H710   H     0.92009   0.02631   0.59580   0.00000  Uiso   1.00
H711   H     0.71898   0.13793   0.37181   0.00000  Uiso   1.00
H712   H     0.73833   0.09031   0.34928   0.00000  Uiso   1.00
H713   H     0.76314   0.10619   0.40541   0.00000  Uiso   1.00
H714   H     0.94769   0.19540   0.62819   0.00000  Uiso   1.00
H715   H     0.90353   0.22714   0.59459   0.00000  Uiso   1.00
H716   H     0.92833   0.24302   0.65072   0.00000  Uiso   1.00
H717   H     0.68083   0.10536   0.58299   0.00000  Uiso   1.00
H718   H     0.98583   0.22797   0.41701   0.00000  Uiso   1.00
H719   H     0.67421   0.18318   0.55127   0.00000  Uiso   1.00
H720   H     0.80885   0.04090   0.34228   0.00000  Uiso   1.00
H721   H     0.85782   0.29243   0.65772   0.00000  Uiso   1.00
H722   H     0.75840   0.25887   0.42725   0.00000  Uiso   1.00
H723   H     0.74657   0.30702   0.40420   0.00000  Uiso   1.00
H724   H     0.80223   0.28122   0.38957   0.00000  Uiso   1.00
H725   H     0.90827   0.07446   0.57275   0.00000  Uiso   1.00
H726   H     0.86444   0.05212   0.61043   0.00000  Uiso   1.00
N727   N     0.83335   0.16668   0.61736   0.00000  Uiso   1.00
N728   N     0.83332   0.16666   0.38264   0.00000  Uiso   1.00
O729   O     0.83333   0.10655   0.53958   0.00000  Uiso   1.00
O730   O     0.79750   0.02897   0.37158   0.00000  Uiso   1.00
O731   O     0.79009   0.27880   0.59398   0.00000  Uiso   1.00
O732   O     0.86916   0.30437   0.62843   0.00000  Uiso   1.00
O733   O     0.76681   0.08267   0.59196   0.00000  Uiso   1.00
O734   O     0.70549   0.12717   0.60150   0.00000  Uiso   1.00
O735   O     0.89986   0.25066   0.40804   0.00000  Uiso   1.00
O736   O     0.96118   0.20616   0.39850   0.00000  Uiso   1.00
O737   O     0.83334   0.22678   0.46042   0.00000  Uiso   1.00
O738   O     0.83333   0.10654   0.46039   0.00000  Uiso   1.00
O739   O     0.83334   0.22679   0.53961   0.00000  Uiso   1.00
O740   O     0.75828   0.16667   0.53046   0.00000  Uiso   1.00
O741   O     0.90839   0.16666   0.46954   0.00000  Uiso   1.00
O742   O     0.75828   0.16666   0.45127   0.00000  Uiso   1.00
O743   O     0.90839   0.16667   0.54873   0.00000  Uiso   1.00
O744   O     0.87658   0.05453   0.40602   0.00000  Uiso   1.00
C745   C     0.17111   0.42105   0.49969   0.00000  Uiso   1.00
C746   C     0.18840   0.35630   0.54097   0.00000  Uiso   1.00
C747   C     0.15690   0.62392   0.50149   0.00000  Uiso   1.00
C748   C     0.17643   0.37608   0.49851   0.00000  Uiso   1.00
C749   C     0.12956   0.47640   0.35275   0.00000  Uiso   1.00
C750   C     0.20377   0.52360   0.64725   0.00000  Uiso   1.00
C751   C     0.13003   0.47626   0.63668   0.00000  Uiso   1.00
C752   C     0.20330   0.52374   0.36332   0.00000  Uiso   1.00
C753   C     0.16876   0.36902   0.41031   0.00000  Uiso   1.00
C754   C     0.16457   0.63098   0.58970   0.00000  Uiso   1.00
C755   C     0.11182   0.62126   0.41762   0.00000  Uiso   1.00
C756   C     0.16222   0.57895   0.50031   0.00000  Uiso   1.00
C757   C     0.22151   0.37874   0.58238   0.00000  Uiso   1.00
C758   C     0.08554   0.45180   0.37108   0.00000  Uiso   1.00
C759   C     0.24779   0.54820   0.62892   0.00000  Uiso   1.00
C760   C     0.09001   0.44973   0.60668   0.00000  Uiso   1.00
C761   C     0.24333   0.55026   0.39332   0.00000  Uiso   1.00
C762   C     0.06805   0.49896   0.48813   0.00000  Uiso   1.00
C763   C     0.26528   0.50104   0.51187   0.00000  Uiso   1.00
C764   C     0.01261   0.49528   0.48217   0.00000  Uiso   1.00
C765   C     0.32073   0.50472   0.51783   0.00000  Uiso   1.00
C766   C     0.16071   0.35230   0.45651   0.00000  Uiso   1.00
C767   C     0.17262   0.64770   0.54349   0.00000  Uiso   1.00
C768   C     0.14494   0.64370   0.45903   0.00000  Uiso   1.00
Cu769  Cu    0.16667   0.50001   0.54689   0.00000  Uiso   1.00
Cu770  Cu    0.16667   0.49999   0.45311   0.00000  Uiso   1.00
H771   H     0.32579   0.48349   0.44873   0.00000  Uiso   1.00
H772   H     0.25343   0.35964   0.59580   0.00000  Uiso   1.00
H773   H     0.05231   0.47126   0.37181   0.00000  Uiso   1.00
H774   H     0.07166   0.42364   0.34928   0.00000  Uiso   1.00
H775   H     0.09647   0.43953   0.40541   0.00000  Uiso   1.00
H776   H     0.28103   0.52874   0.62819   0.00000  Uiso   1.00
H777   H     0.23686   0.56047   0.59459   0.00000  Uiso   1.00
H778   H     0.26167   0.57636   0.65072   0.00000  Uiso   1.00
H779   H     0.01417   0.43869   0.58299   0.00000  Uiso   1.00
H780   H     0.31917   0.56131   0.41701   0.00000  Uiso   1.00
H781   H     0.00755   0.51651   0.55127   0.00000  Uiso   1.00
H782   H     0.14218   0.37423   0.34228   0.00000  Uiso   1.00
H783   H     0.19115   0.62577   0.65772   0.00000  Uiso   1.00
H784   H     0.09173   0.59220   0.42725   0.00000  Uiso   1.00
H785   H     0.07991   0.64036   0.40420   0.00000  Uiso   1.00
H786   H     0.13556   0.61455   0.38957   0.00000  Uiso   1.00
H787   H     0.24160   0.40780   0.57275   0.00000  Uiso   1.00
H788   H     0.19777   0.38545   0.61043   0.00000  Uiso   1.00
N789   N     0.16668   0.50001   0.61736   0.00000  Uiso   1.00
N790   N     0.16665   0.49999   0.38264   0.00000  Uiso   1.00
O791   O     0.16666   0.43989   0.53958   0.00000  Uiso   1.00
O792   O     0.13084   0.36230   0.37158   0.00000  Uiso   1.00
O793   O     0.12342   0.61213   0.59398   0.00000  Uiso   1.00
O794   O     0.20250   0.63770   0.62843   0.00000  Uiso   1.00
O795   O     0.10014   0.41601   0.59196   0.00000  Uiso   1.00
O796   O     0.03883   0.46050   0.60150   0.00000  Uiso   1.00
O797   O     0.23320   0.58399   0.40804   0.00000  Uiso   1.00
O798   O     0.29451   0.53950   0.39850   0.00000  Uiso   1.00
O799   O     0.16667   0.56011   0.46042   0.00000  Uiso   1.00
O800   O     0.16666   0.43988   0.46039   0.00000  Uiso   1.00
O801   O     0.16667   0.56012   0.53961   0.00000  Uiso   1.00
O802   O     0.09161   0.50000   0.53046   0.00000  Uiso   1.00
O803   O     0.24172   0.50000   0.46954   0.00000  Uiso   1.00
O804   O     0.09161   0.49999   0.45127   0.00000  Uiso   1.00
O805   O     0.24172   0.50001   0.54873   0.00000  Uiso   1.00
O806   O     0.20992   0.38787   0.40602   0.00000  Uiso   1.00
C807   C     0.50445   0.42105   0.49969   0.00000  Uiso   1.00
C808   C     0.52173   0.35630   0.54097   0.00000  Uiso   1.00
C809   C     0.49024   0.62392   0.50149   0.00000  Uiso   1.00
C810   C     0.50976   0.37608   0.49851   0.00000  Uiso   1.00
C811   C     0.46289   0.47640   0.35275   0.00000  Uiso   1.00
C812   C     0.53711   0.52360   0.64725   0.00000  Uiso   1.00
C813   C     0.46336   0.47626   0.63668   0.00000  Uiso   1.00
C814   C     0.53664   0.52374   0.36332   0.00000  Uiso   1.00
C815   C     0.50209   0.36902   0.41031   0.00000  Uiso   1.00
C816   C     0.49791   0.63098   0.58970   0.00000  Uiso   1.00
C817   C     0.44516   0.62126   0.41762   0.00000  Uiso   1.00
C818   C     0.49555   0.57895   0.50031   0.00000  Uiso   1.00
C819   C     0.55485   0.37874   0.58238   0.00000  Uiso   1.00
C820   C     0.41888   0.45180   0.37108   0.00000  Uiso   1.00
C821   C     0.58112   0.54820   0.62892   0.00000  Uiso   1.00
C822   C     0.42334   0.44973   0.60668   0.00000  Uiso   1.00
C823   C     0.57666   0.55026   0.39332   0.00000  Uiso   1.00
C824   C     0.40138   0.49896   0.48813   0.00000  Uiso   1.00
C825   C     0.59862   0.50104   0.51187   0.00000  Uiso   1.00
C826   C     0.34594   0.49528   0.48217   0.00000  Uiso   1.00
C827   C     0.65406   0.50472   0.51783   0.00000  Uiso   1.00
C828   C     0.49404   0.35230   0.45651   0.00000  Uiso   1.00
C829   C     0.50596   0.64770   0.54349   0.00000  Uiso   1.00
C830   C     0.47827   0.64370   0.45903   0.00000  Uiso   1.00
Cu831  Cu    0.50000   0.50001   0.54689   0.00000  Uiso   1.00
Cu832  Cu    0.50000   0.49999   0.45311   0.00000  Uiso   1.00
H833   H     0.65912   0.48349   0.44873   0.00000  Uiso   1.00
H834   H     0.58676   0.35964   0.59580   0.00000  Uiso   1.00
H835   H     0.38564   0.47126   0.37181   0.00000  Uiso   1.00
H836   H     0.40500   0.42364   0.34928   0.00000  Uiso   1.00
H837   H     0.42981   0.43953   0.40541   0.00000  Uiso   1.00
H838   H     0.61436   0.52874   0.62819   0.00000  Uiso   1.00
H839   H     0.57019   0.56047   0.59459   0.00000  Uiso   1.00
H840   H     0.59500   0.57636   0.65072   0.00000  Uiso   1.00
H841   H     0.34750   0.43869   0.58299   0.00000  Uiso   1.00
H842   H     0.65250   0.56131   0.41701   0.00000  Uiso   1.00
H843   H     0.34088   0.51651   0.55127   0.00000  Uiso   1.00
H844   H     0.47552   0.37423   0.34228   0.00000  Uiso   1.00
H845   H     0.52448   0.62577   0.65772   0.00000  Uiso   1.00
H846   H     0.42507   0.59220   0.42725   0.00000  Uiso   1.00
H847   H     0.41324   0.64036   0.40420   0.00000  Uiso   1.00
H848   H     0.46890   0.61455   0.38957   0.00000  Uiso   1.00
H849   H     0.57493   0.40780   0.57275   0.00000  Uiso   1.00
H850   H     0.53110   0.38545   0.61043   0.00000  Uiso   1.00
N851   N     0.50001   0.50001   0.61736   0.00000  Uiso   1.00
N852   N     0.49999   0.49999   0.38264   0.00000  Uiso   1.00
O853   O     0.50000   0.43989   0.53958   0.00000  Uiso   1.00
O854   O     0.46417   0.36230   0.37158   0.00000  Uiso   1.00
O855   O     0.45675   0.61213   0.59398   0.00000  Uiso   1.00
O856   O     0.53583   0.63770   0.62843   0.00000  Uiso   1.00
O857   O     0.43347   0.41601   0.59196   0.00000  Uiso   1.00
O858   O     0.37216   0.46050   0.60150   0.00000  Uiso   1.00
O859   O     0.56653   0.58399   0.40804   0.00000  Uiso   1.00
O860   O     0.62784   0.53950   0.39850   0.00000  Uiso   1.00
O861   O     0.50000   0.56011   0.46042   0.00000  Uiso   1.00
O862   O     0.50000   0.43988   0.46039   0.00000  Uiso   1.00
O863   O     0.50000   0.56012   0.53961   0.00000  Uiso   1.00
O864   O     0.42495   0.50000   0.53046   0.00000  Uiso   1.00
O865   O     0.57505   0.50000   0.46954   0.00000  Uiso   1.00
O866   O     0.42494   0.49999   0.45127   0.00000  Uiso   1.00
O867   O     0.57506   0.50001   0.54873   0.00000  Uiso   1.00
O868   O     0.54325   0.38787   0.40602   0.00000  Uiso   1.00
C869   C     0.83778   0.42105   0.49969   0.00000  Uiso   1.00
C870   C     0.85506   0.35630   0.54097   0.00000  Uiso   1.00
C871   C     0.82357   0.62392   0.50149   0.00000  Uiso   1.00
C872   C     0.84310   0.37608   0.49851   0.00000  Uiso   1.00
C873   C     0.79623   0.47640   0.35275   0.00000  Uiso   1.00
C874   C     0.87044   0.52360   0.64725   0.00000  Uiso   1.00
C875   C     0.79670   0.47626   0.63668   0.00000  Uiso   1.00
C876   C     0.86997   0.52374   0.36332   0.00000  Uiso   1.00
C877   C     0.83543   0.36902   0.41031   0.00000  Uiso   1.00
C878   C     0.83124   0.63098   0.58970   0.00000  Uiso   1.00
C879   C     0.77849   0.62126   0.41762   0.00000  Uiso   1.00
C880   C     0.82889   0.57895   0.50031   0.00000  Uiso   1.00
C881   C     0.88818   0.37874   0.58238   0.00000  Uiso   1.00
C882   C     0.75221   0.45180   0.37108   0.00000  Uiso   1.00
C883   C     0.91446   0.54820   0.62892   0.00000  Uiso   1.00
C884   C     0.75667   0.44973   0.60668   0.00000  Uiso   1.00
C885   C     0.90999   0.55026   0.39332   0.00000  Uiso   1.00
C886   C     0.73472   0.49896   0.48813   0.00000  Uiso   1.00
C887   C     0.93195   0.50104   0.51187   0.00000  Uiso   1.00
C888   C     0.67927   0.49528   0.48217   0.00000  Uiso   1.00
C889   C     0.98740   0.50472   0.51783   0.00000  Uiso   1.00
C890   C     0.82738   0.35230   0.45651   0.00000  Uiso   1.00
C891   C     0.83929   0.64770   0.54349   0.00000  Uiso   1.00
C892   C     0.81161   0.64370   0.45903   0.00000  Uiso   1.00
Cu893  Cu    0.83333   0.50001   0.54689   0.00000  Uiso   1.00
Cu894  Cu    0.83333   0.49999   0.45311   0.00000  Uiso   1.00
H895   H     0.99245   0.48349   0.44873   0.00000  Uiso   1.00
H896   H     0.92009   0.35964   0.59580   0.00000  Uiso   1.00
H897   H     0.71898   0.47126   0.37181   0.00000  Uiso   1.00
H898   H     0.73833   0.42364   0.34928   0.00000  Uiso   1.00
H899   H     0.76314   0.43953   0.40541   0.00000  Uiso   1.00
H900   H     0.94769   0.52874   0.62819   0.00000  Uiso   1.00
H901   H     0.90353   0.56047   0.59459   0.00000  Uiso   1.00
H902   H     0.92833   0.57636   0.65072   0.00000  Uiso   1.00
H903   H     0.68083   0.43869   0.58299   0.00000  Uiso   1.00
H904   H     0.98583   0.56131   0.41701   0.00000  Uiso   1.00
H905   H     0.67421   0.51651   0.55127   0.00000  Uiso   1.00
H906   H     0.80885   0.37423   0.34228   0.00000  Uiso   1.00
H907   H     0.85782   0.62577   0.65772   0.00000  Uiso   1.00
H908   H     0.75840   0.59220   0.42725   0.00000  Uiso   1.00
H909   H     0.74657   0.64036   0.40420   0.00000  Uiso   1.00
H910   H     0.80223   0.61455   0.38957   0.00000  Uiso   1.00
H911   H     0.90827   0.40780   0.57275   0.00000  Uiso   1.00
H912   H     0.86444   0.38545   0.61043   0.00000  Uiso   1.00
N913   N     0.83335   0.50001   0.61736   0.00000  Uiso   1.00
N914   N     0.83332   0.49999   0.38264   0.00000  Uiso   1.00
O915   O     0.83333   0.43989   0.53958   0.00000  Uiso   1.00
O916   O     0.79750   0.36230   0.37158   0.00000  Uiso   1.00
O917   O     0.79009   0.61213   0.59398   0.00000  Uiso   1.00
O918   O     0.86916   0.63770   0.62843   0.00000  Uiso   1.00
O919   O     0.76681   0.41601   0.59196   0.00000  Uiso   1.00
O920   O     0.70549   0.46050   0.60150   0.00000  Uiso   1.00
O921   O     0.89986   0.58399   0.40804   0.00000  Uiso   1.00
O922   O     0.96118   0.53950   0.39850   0.00000  Uiso   1.00
O923   O     0.83334   0.56011   0.46042   0.00000  Uiso   1.00
O924   O     0.83333   0.43988   0.46039   0.00000  Uiso   1.00
O925   O     0.83334   0.56012   0.53961   0.00000  Uiso   1.00
O926   O     0.75828   0.50000   0.53046   0.00000  Uiso   1.00
O927   O     0.90839   0.50000   0.46954   0.00000  Uiso   1.00
O928   O     0.75828   0.49999   0.45127   0.00000  Uiso   1.00
O929   O     0.90839   0.50001   0.54873   0.00000  Uiso   1.00
O930   O     0.87658   0.38787   0.40602   0.00000  Uiso   1.00
C931   C     0.17111   0.75438   0.49969   0.00000  Uiso   1.00
C932   C     0.18840   0.68964   0.54097   0.00000  Uiso   1.00
C933   C     0.15690   0.95725   0.50149   0.00000  Uiso   1.00
C934   C     0.17643   0.70941   0.49851   0.00000  Uiso   1.00
C935   C     0.12956   0.80974   0.35275   0.00000  Uiso   1.00
C936   C     0.20377   0.85693   0.64725   0.00000  Uiso   1.00
C937   C     0.13003   0.80959   0.63668   0.00000  Uiso   1.00
C938   C     0.20330   0.85707   0.36332   0.00000  Uiso   1.00
C939   C     0.16876   0.70235   0.41031   0.00000  Uiso   1.00
C940   C     0.16457   0.96432   0.58970   0.00000  Uiso   1.00
C941   C     0.11182   0.95459   0.41762   0.00000  Uiso   1.00
C942   C     0.16222   0.91229   0.50031   0.00000  Uiso   1.00
C943   C     0.22151   0.71207   0.58238   0.00000  Uiso   1.00
C944   C     0.08554   0.78514   0.37108   0.00000  Uiso   1.00
C945   C     0.24779   0.88153   0.62892   0.00000  Uiso   1.00
C946   C     0.09001   0.78307   0.60668   0.00000  Uiso   1.00
C947   C     0.24333   0.88360   0.39332   0.00000  Uiso   1.00
C948   C     0.06805   0.83229   0.48813   0.00000  Uiso   1.00
C949   C     0.26528   0.83438   0.51187   0.00000  Uiso   1.00
C950   C     0.01261   0.82862   0.48217   0.00000  Uiso   1.00
C951   C     0.32073   0.83805   0.51783   0.00000  Uiso   1.00
C952   C     0.16071   0.68563   0.45651   0.00000  Uiso   1.00
C953   C     0.17262   0.98104   0.54349   0.00000  Uiso   1.00
C954   C     0.14494   0.97703   0.45903   0.00000  Uiso   1.00
Cu955  Cu    0.16667   0.83334   0.54689   0.00000  Uiso   1.00
Cu956  Cu    0.16667   0.83333   0.45311   0.00000  Uiso   1.00
H957   H     0.32579   0.81682   0.44873   0.00000  Uiso   1.00
H958   H     0.25343   0.69297   0.59580   0.00000  Uiso   1.00
H959   H     0.05231   0.80460   0.37181   0.00000  Uiso   1.00
H960   H     0.07166   0.75698   0.34928   0.00000  Uiso   1.00
H961   H     0.09647   0.77286   0.40541   0.00000  Uiso   1.00
H962   H     0.28103   0.86207   0.62819   0.00000  Uiso   1.00
H963   H     0.23686   0.89381   0.59459   0.00000  Uiso   1.00
H964   H     0.26167   0.90969   0.65072   0.00000  Uiso   1.00
H965   H     0.01417   0.77202   0.58299   0.00000  Uiso   1.00
H966   H     0.31917   0.89464   0.41701   0.00000  Uiso   1.00
H967   H     0.00755   0.84985   0.55127   0.00000  Uiso   1.00
H968   H     0.14218   0.70757   0.34228   0.00000  Uiso   1.00
H969   H     0.19115   0.95910   0.65772   0.00000  Uiso   1.00
H970   H     0.09173   0.92554   0.42725   0.00000  Uiso   1.00
H971   H     0.07991   0.97369   0.40420   0.00000  Uiso   1.00
H972   H     0.13556   0.94788   0.38957   0.00000  Uiso   1.00
H973   H     0.24160   0.74113   0.57275   0.00000  Uiso   1.00
H974   H     0.19777   0.71878   0.61043   0.00000  Uiso   1.00
N975   N     0.16668   0.83334   0.61736   0.00000  Uiso   1.00
N976   N     0.16665   0.83332   0.38264   0.00000  Uiso   1.00
O977   O     0.16666   0.77322   0.53958   0.00000  Uiso   1.00
O978   O     0.13084   0.69564   0.37158   0.00000  Uiso   1.00
O979   O     0.12342   0.94547   0.59398   0.00000  Uiso   1.00
O980   O     0.20250   0.97103   0.62843   0.00000  Uiso   1.00
O981   O     0.10014   0.74934   0.59196   0.00000  Uiso   1.00
O982   O     0.03883   0.79383   0.60150   0.00000  Uiso   1.00
O983   O     0.23320   0.91732   0.40804   0.00000  Uiso   1.00
O984   O     0.29451   0.87283   0.39850   0.00000  Uiso   1.00
O985   O     0.16667   0.89345   0.46042   0.00000  Uiso   1.00
O986   O     0.16666   0.77321   0.46039   0.00000  Uiso   1.00
O987   O     0.16667   0.89346   0.53961   0.00000  Uiso   1.00
O988   O     0.09161   0.83334   0.53046   0.00000  Uiso   1.00
O989   O     0.24172   0.83333   0.46954   0.00000  Uiso   1.00
O990   O     0.09161   0.83333   0.45127   0.00000  Uiso   1.00
O991   O     0.24172   0.83334   0.54873   0.00000  Uiso   1.00
O992   O     0.20992   0.72120   0.40602   0.00000  Uiso   1.00
C993   C     0.50445   0.75438   0.49969   0.00000  Uiso   1.00
C994   C     0.52173   0.68964   0.54097   0.00000  Uiso   1.00
C995   C     0.49024   0.95725   0.50149   0.00000  Uiso   1.00
C996   C     0.50976   0.70941   0.49851   0.00000  Uiso   1.00
C997   C     0.46289   0.80974   0.35275   0.00000  Uiso   1.00
C998   C     0.53711   0.85693   0.64725   0.00000  Uiso   1.00
C999   C     0.46336   0.80959   0.63668   0.00000  Uiso   1.00
C1000  C     0.53664   0.85707   0.36332   0.00000  Uiso   1.00
C1001  C     0.50209   0.70235   0.41031   0.00000  Uiso   1.00
C1002  C     0.49791   0.96432   0.58970   0.00000  Uiso   1.00
C1003  C     0.44516   0.95459   0.41762   0.00000  Uiso   1.00
C1004  C     0.49555   0.91229   0.50031   0.00000  Uiso   1.00
C1005  C     0.55485   0.71207   0.58238   0.00000  Uiso   1.00
C1006  C     0.41888   0.78514   0.37108   0.00000  Uiso   1.00
C1007  C     0.58112   0.88153   0.62892   0.00000  Uiso   1.00
C1008  C     0.42334   0.78307   0.60668   0.00000  Uiso   1.00
C1009  C     0.57666   0.88360   0.39332   0.00000  Uiso   1.00
C1010  C     0.40138   0.83229   0.48813   0.00000  Uiso   1.00
C1011  C     0.59862   0.83438   0.51187   0.00000  Uiso   1.00
C1012  C     0.34594   0.82862   0.48217   0.00000  Uiso   1.00
C1013  C     0.65406   0.83805   0.51783   0.00000  Uiso   1.00
C1014  C     0.49404   0.68563   0.45651   0.00000  Uiso   1.00
C1015  C     0.50596   0.98104   0.54349   0.00000  Uiso   1.00
C1016  C     0.47827   0.97703   0.45903   0.00000  Uiso   1.00
Cu1017 Cu    0.50000   0.83334   0.54689   0.00000  Uiso   1.00
Cu1018 Cu    0.50000   0.83333   0.45311   0.00000  Uiso   1.00
H1019  H     0.65912   0.81682   0.44873   0.00000  Uiso   1.00
H1020  H     0.58676   0.69297   0.59580   0.00000  Uiso   1.00
H1021  H     0.38564   0.80460   0.37181   0.00000  Uiso   1.00
H1022  H     0.40500   0.75698   0.34928   0.00000  Uiso   1.00
H1023  H     0.42981   0.77286   0.40541   0.00000  Uiso   1.00
H1024  H     0.61436   0.86207   0.62819   0.00000  Uiso   1.00
H1025  H     0.57019   0.89381   0.59459   0.00000  Uiso   1.00
H1026  H     0.59500   0.90969   0.65072   0.00000  Uiso   1.00
H1027  H     0.34750   0.77202   0.58299   0.00000  Uiso   1.00
H1028  H     0.65250   0.89464   0.41701   0.00000  Uiso   1.00
H1029  H     0.34088   0.84985   0.55127   0.00000  Uiso   1.00
H1030  H     0.47552   0.70757   0.34228   0.00000  Uiso   1.00
H1031  H     0.52448   0.95910   0.65772   0.00000  Uiso   1.00
H1032  H     0.42507   0.92554   0.42725   0.00000  Uiso   1.00
H1033  H     0.41324   0.97369   0.40420   0.00000  Uiso   1.00
H1034  H     0.46890   0.94788   0.38957   0.00000  Uiso   1.00
H1035  H     0.57493   0.74113   0.57275   0.00000  Uiso   1.00
H1036  H     0.53110   0.71878   0.61043   0.00000  Uiso   1.00
N1037  N     0.50001   0.83334   0.61736   0.00000  Uiso   1.00
N1038  N     0.49999   0.83332   0.38264   0.00000  Uiso   1.00
O1039  O     0.50000   0.77322   0.53958   0.00000  Uiso   1.00
O1040  O     0.46417   0.69564   0.37158   0.00000  Uiso   1.00
O1041  O     0.45675   0.94547   0.59398   0.00000  Uiso   1.00
O1042  O     0.53583   0.97103   0.62843   0.00000  Uiso   1.00
O1043  O     0.43347   0.74934   0.59196   0.00000  Uiso   1.00
O1044  O     0.37216   0.79383   0.60150   0.00000  Uiso   1.00
O1045  O     0.56653   0.91732   0.40804   0.00000  Uiso   1.00
O1046  O     0.62784   0.87283   0.39850   0.00000  Uiso   1.00
O1047  O     0.50000   0.89345   0.46042   0.00000  Uiso   1.00
O1048  O     0.50000   0.77321   0.46039   0.00000  Uiso   1.00
O1049  O     0.50000   0.89346   0.53961   0.00000  Uiso   1.00
O1050  O     0.42495   0.83334   0.53046   0.00000  Uiso   1.00
O1051  O     0.57505   0.83333   0.46954   0.00000  Uiso   1.00
O1052  O     0.42494   0.83333   0.45127   0.00000  Uiso   1.00
O1053  O     0.57506   0.83334   0.54873   0.00000  Uiso   1.00
O1054  O     0.54325   0.72120   0.40602   0.00000  Uiso   1.00
C1055  C     0.83778   0.75438   0.49969   0.00000  Uiso   1.00
C1056  C     0.85506   0.68964   0.54097   0.00000  Uiso   1.00
C1057  C     0.82357   0.95725   0.50149   0.00000  Uiso   1.00
C1058  C     0.84310   0.70941   0.49851   0.00000  Uiso   1.00
C1059  C     0.79623   0.80974   0.35275   0.00000  Uiso   1.00
C1060  C     0.87044   0.85693   0.64725   0.00000  Uiso   1.00
C1061  C     0.79670   0.80959   0.63668   0.00000  Uiso   1.00
C1062  C     0.86997   0.85707   0.36332   0.00000  Uiso   1.00
C1063  C     0.83543   0.70235   0.41031   0.00000  Uiso   1.00
C1064  C     0.83124   0.96432   0.58970   0.00000  Uiso   1.00
C1065  C     0.77849   0.95459   0.41762   0.00000  Uiso   1.00
C1066  C     0.82889   0.91229   0.50031   0.00000  Uiso   1.00
C1067  C     0.88818   0.71207   0.58238   0.00000  Uiso   1.00
C1068  C     0.75221   0.78514   0.37108   0.00000  Uiso   1.00
C1069  C     0.91446   0.88153   0.62892   0.00000  Uiso   1.00
C1070  C     0.75667   0.78307   0.60668   0.00000  Uiso   1.00
C1071  C     0.90999   0.88360   0.39332   0.00000  Uiso   1.00
C1072  C     0.73472   0.83229   0.48813   0.00000  Uiso   1.00
C1073  C     0.93195   0.83438   0.51187   0.00000  Uiso   1.00
C1074  C     0.67927   0.82862   0.48217   0.00000  Uiso   1.00
C1075  C     0.98740   0.83805   0.51783   0.00000  Uiso   1.00
C1076  C     0.82738   0.68563   0.45651   0.00000  Uiso   1.00
C1077  C     0.83929   0.98104   0.54349   0.00000  Uiso   1.00
C1078  C     0.81161   0.97703   0.45903   0.00000  Uiso   1.00
Cu1079 Cu    0.83333   0.83334   0.54689   0.00000  Uiso   1.00
Cu1080 Cu    0.83333   0.83333   0.45311   0.00000  Uiso   1.00
H1081  H     0.99245   0.81682   0.44873   0.00000  Uiso   1.00
H1082  H     0.92009   0.69297   0.59580   0.00000  Uiso   1.00
H1083  H     0.71898   0.80460   0.37181   0.00000  Uiso   1.00
H1084  H     0.73833   0.75698   0.34928   0.00000  Uiso   1.00
H1085  H     0.76314   0.77286   0.40541   0.00000  Uiso   1.00
H1086  H     0.94769   0.86207   0.62819   0.00000  Uiso   1.00
H1087  H     0.90353   0.89381   0.59459   0.00000  Uiso   1.00
H1088  H     0.92833   0.90969   0.65072   0.00000  Uiso   1.00
H1089  H     0.68083   0.77202   0.58299   0.00000  Uiso   1.00
H1090  H     0.98583   0.89464   0.41701   0.00000  Uiso   1.00
H1091  H     0.67421   0.84985   0.55127   0.00000  Uiso   1.00
H1092  H     0.80885   0.70757   0.34228   0.00000  Uiso   1.00
H1093  H     0.85782   0.95910   0.65772   0.00000  Uiso   1.00
H1094  H     0.75840   0.92554   0.42725   0.00000  Uiso   1.00
H1095  H     0.74657   0.97369   0.40420   0.00000  Uiso   1.00
H1096  H     0.80223   0.94788   0.38957   0.00000  Uiso   1.00
H1097  H     0.90827   0.74113   0.57275   0.00000  Uiso   1.00
H1098  H     0.86444   0.71878   0.61043   0.00000  Uiso   1.00
N1099  N     0.83335   0.83334   0.61736   0.00000  Uiso   1.00
N1100  N     0.83332   0.83332   0.38264   0.00000  Uiso   1.00
O1101  O     0.83333   0.77322   0.53958   0.00000  Uiso   1.00
O1102  O     0.79750   0.69564   0.37158   0.00000  Uiso   1.00
O1103  O     0.79009   0.94547   0.59398   0.00000  Uiso   1.00
O1104  O     0.86916   0.97103   0.62843   0.00000  Uiso   1.00
O1105  O     0.76681   0.74934   0.59196   0.00000  Uiso   1.00
O1106  O     0.70549   0.79383   0.60150   0.00000  Uiso   1.00
O1107  O     0.89986   0.91732   0.40804   0.00000  Uiso   1.00
O1108  O     0.96118   0.87283   0.39850   0.00000  Uiso   1.00
O1109  O     0.83334   0.89345   0.46042   0.00000  Uiso   1.00
O1110  O     0.83333   0.77321   0.46039   0.00000  Uiso   1.00
O1111  O     0.83334   0.89346   0.53961   0.00000  Uiso   1.00
O1112  O     0.75828   0.83334   0.53046   0.00000  Uiso   1.00
O1113  O     0.90839   0.83333   0.46954   0.00000  Uiso   1.00
O1114  O     0.75828   0.83333   0.45127   0.00000  Uiso   1.00
O1115  O     0.90839   0.83334   0.54873   0.00000  Uiso   1.00
O1116  O     0.87658   0.72120   0.40602   0.00000  Uiso   1.00
C1117  C     0.17111   0.08771   0.83302   0.00000  Uiso   1.00
C1118  C     0.18840   0.02297   0.87430   0.00000  Uiso   1.00
C1119  C     0.15690   0.29058   0.83483   0.00000  Uiso   1.00
C1120  C     0.17643   0.04275   0.83184   0.00000  Uiso   1.00
C1121  C     0.12956   0.14307   0.68609   0.00000  Uiso   1.00
C1122  C     0.20377   0.19026   0.98058   0.00000  Uiso   1.00
C1123  C     0.13003   0.14293   0.97002   0.00000  Uiso   1.00
C1124  C     0.20330   0.19041   0.69665   0.00000  Uiso   1.00
C1125  C     0.16876   0.03568   0.74364   0.00000  Uiso   1.00
C1126  C     0.16457   0.29765   0.92303   0.00000  Uiso   1.00
C1127  C     0.11182   0.28793   0.75096   0.00000  Uiso   1.00
C1128  C     0.16222   0.24562   0.83364   0.00000  Uiso   1.00
C1129  C     0.22151   0.04541   0.91571   0.00000  Uiso   1.00
C1130  C     0.08554   0.11847   0.70442   0.00000  Uiso   1.00
C1131  C     0.24779   0.21486   0.96225   0.00000  Uiso   1.00
C1132  C     0.09001   0.11640   0.94001   0.00000  Uiso   1.00
C1133  C     0.24333   0.21693   0.72665   0.00000  Uiso   1.00
C1134  C     0.06805   0.16562   0.82147   0.00000  Uiso   1.00
C1135  C     0.26528   0.16771   0.84520   0.00000  Uiso   1.00
C1136  C     0.01261   0.16195   0.81551   0.00000  Uiso   1.00
C1137  C     0.32073   0.17138   0.85116   0.00000  Uiso   1.00
C1138  C     0.16071   0.01896   0.78984   0.00000  Uiso   1.00
C1139  C     0.17262   0.31437   0.87682   0.00000  Uiso   1.00
C1140  C     0.14494   0.31036   0.79237   0.00000  Uiso   1.00
Cu1141 Cu    0.16667   0.16667   0.88022   0.00000  Uiso   1.00
Cu1142 Cu    0.16667   0.16666   0.78645   0.00000  Uiso   1.00
H1143  H     0.32579   0.15015   0.78206   0.00000  Uiso   1.00
H1144  H     0.25343   0.02631   0.92913   0.00000  Uiso   1.00
H1145  H     0.05231   0.13793   0.70514   0.00000  Uiso   1.00
H1146  H     0.07166   0.09031   0.68262   0.00000  Uiso   1.00
H1147  H     0.09647   0.10619   0.73874   0.00000  Uiso   1.00
H1148  H     0.28103   0.19540   0.96153   0.00000  Uiso   1.00
H1149  H     0.23686   0.22714   0.92793   0.00000  Uiso   1.00
H1150  H     0.26167   0.24302   0.98405   0.00000  Uiso   1.00
H1151  H     0.01417   0.10536   0.91632   0.00000  Uiso   1.00
H1152  H     0.31917   0.22797   0.75034   0.00000  Uiso   1.00
H1153  H     0.00755   0.18318   0.88461   0.00000  Uiso   1.00
H1154  H     0.14218   0.04090   0.67561   0.00000  Uiso   1.00
H1155  H     0.19115   0.29243   0.99106   0.00000  Uiso   1.00
H1156  H     0.09173   0.25887   0.76058   0.00000  Uiso   1.00
H1157  H     0.07991   0.30702   0.73753   0.00000  Uiso   1.00
H1158  H     0.13556   0.28122   0.72290   0.00000  Uiso   1.00
H1159  H     0.24160   0.07446   0.90608   0.00000  Uiso   1.00
H1160  H     0.19777   0.05212   0.94377   0.00000  Uiso   1.00
N1161  N     0.16668   0.16668   0.95069   0.00000  Uiso   1.00
N1162  N     0.16665   0.16666   0.71597   0.00000  Uiso   1.00
O1163  O     0.16666   0.10655   0.87291   0.00000  Uiso   1.00
O1164  O     0.13084   0.02897   0.70491   0.00000  Uiso   1.00
O1165  O     0.12342   0.27880   0.92732   0.00000  Uiso   1.00
O1166  O     0.20250   0.30437   0.96176   0.00000  Uiso   1.00
O1167  O     0.10014   0.08267   0.92529   0.00000  Uiso   1.00
O1168  O     0.03883   0.12717   0.93483   0.00000  Uiso   1.00
O1169  O     0.23320   0.25066   0.74138   0.00000  Uiso   1.00
O1170  O     0.29451   0.20616   0.73183   0.00000  Uiso   1.00
O1171  O     0.16667   0.22678   0.79375   0.00000  Uiso   1.00
O1172  O     0.16666   0.10654   0.79372   0.00000  Uiso   1.00
O1173  O     0.16667   0.22679   0.87294   0.00000  Uiso   1.00
O1174  O     0.09161   0.16667   0.86379   0.00000  Uiso   1.00
O1175  O     0.24172   0.16666   0.80288   0.00000  Uiso   1.00
O1176  O     0.09161   0.16666   0.78460   0.00000  Uiso   1.00
O1177  O     0.24172   0.16667   0.88207   0.00000  Uiso   1.00
O1178  O     0.20992   0.05453   0.73935   0.00000  Uiso   1.00
C1179  C     0.50445   0.08771   0.83302   0.00000  Uiso   1.00
C1180  C     0.52173   0.02297   0.87430   0.00000  Uiso   1.00
C1181  C     0.49024   0.29058   0.83483   0.00000  Uiso   1.00
C1182  C     0.50976   0.04275   0.83184   0.00000  Uiso   1.00
C1183  C     0.46289   0.14307   0.68609   0.00000  Uiso   1.00
C1184  C     0.53711   0.19026   0.98058   0.00000  Uiso   1.00
C1185  C     0.46336   0.14293   0.97002   0.00000  Uiso   1.00
C1186  C     0.53664   0.19041   0.69665   0.00000  Uiso   1.00
C1187  C     0.50209   0.03568   0.74364   0.00000  Uiso   1.00
C1188  C     0.49791   0.29765   0.92303   0.00000  Uiso   1.00
C1189  C     0.44516   0.28793   0.75096   0.00000  Uiso   1.00
C1190  C     0.49555   0.24562   0.83364   0.00000  Uiso   1.00
C1191  C     0.55485   0.04541   0.91571   0.00000  Uiso   1.00
C1192  C     0.41888   0.11847   0.70442   0.00000  Uiso   1.00
C1193  C     0.58112   0.21486   0.96225   0.00000  Uiso   1.00
C1194  C     0.42334   0.11640   0.94001   0.00000  Uiso   1.00
C1195  C     0.57666   0.21693   0.72665   0.00000  Uiso   1.00
C1196  C     0.40138   0.16562   0.82147   0.00000  Uiso   1.00
C1197  C     0.59862   0.16771   0.84520   0.00000  Uiso   1.00
C1198  C     0.34594   0.16195   0.81551   0.00000  Uiso   1.00
C1199  C     0.65406   0.17138   0.85116   0.00000  Uiso   1.00
C1200  C     0.49404   0.01896   0.78984   0.00000  Uiso   1.00
C1201  C     0.50596   0.31437   0.87682   0.00000  Uiso   1.00
C1202  C     0.47827   0.31036   0.79237   0.00000  Uiso   1.00
Cu1203 Cu    0.50000   0.16667   0.88022   0.00000  Uiso   1.00
Cu1204 Cu    0.50000   0.16666   0.78645   0.00000  Uiso   1.00
H1205  H     0.65912   0.15015   0.78206   0.00000  Uiso   1.00
H1206  H     0.58676   0.02631   0.92913   0.00000  Uiso   1.00
H1207  H     0.38564   0.13793   0.70514   0.00000  Uiso   1.00
H1208  H     0.40500   0.09031   0.68262   0.00000  Uiso   1.00
H1209  H     0.42981   0.10619   0.73874   0.00000  Uiso   1.00
H1210  H     0.61436   0.19540   0.96153   0.00000  Uiso   1.00
H1211  H     0.57019   0.22714   0.92793   0.00000  Uiso   1.00
H1212  H     0.59500   0.24302   0.98405   0.00000  Uiso   1.00
H1213  H     0.34750   0.10536   0.91632   0.00000  Uiso   1.00
H1214  H     0.65250   0.22797   0.75034   0.00000  Uiso   1.00
H1215  H     0.34088   0.18318   0.88461   0.00000  Uiso   1.00
H1216  H     0.47552   0.04090   0.67561   0.00000  Uiso   1.00
H1217  H     0.52448   0.29243   0.99106   0.00000  Uiso   1.00
H1218  H     0.42507   0.25887   0.76058   0.00000  Uiso   1.00
H1219  H     0.41324   0.30702   0.73753   0.00000  Uiso   1.00
H1220  H     0.46890   0.28122   0.72290   0.00000  Uiso   1.00
H1221  H     0.57493   0.07446   0.90608   0.00000  Uiso   1.00
H1222  H     0.53110   0.05212   0.94377   0.00000  Uiso   1.00
N1223  N     0.50001   0.16668   0.95069   0.00000  Uiso   1.00
N1224  N     0.49999   0.16666   0.71597   0.00000  Uiso   1.00
O1225  O     0.50000   0.10655   0.87291   0.00000  Uiso   1.00
O1226  O     0.46417   0.02897   0.70491   0.00000  Uiso   1.00
O1227  O     0.45675   0.27880   0.92732   0.00000  Uiso   1.00
O1228  O     0.53583   0.30437   0.96176   0.00000  Uiso   1.00
O1229  O     0.43347   0.08267   0.92529   0.00000  Uiso   1.00
O1230  O     0.37216   0.12717   0.93483   0.00000  Uiso   1.00
O1231  O     0.56653   0.25066   0.74138   0.00000  Uiso   1.00
O1232  O     0.62784   0.20616   0.73183   0.00000  Uiso   1.00
O1233  O     0.50000   0.22678   0.79375   0.00000  Uiso   1.00
O1234  O     0.50000   0.10654   0.79372   0.00000  Uiso   1.00
O1235  O     0.50000   0.22679   0.87294   0.00000  Uiso   1.00
O1236  O     0.42495   0.16667   0.86379   0.00000  Uiso   1.00
O1237  O     0.57505   0.16666   0.80288   0.00000  Uiso   1.00
O1238  O     0.42494   0.16666   0.78460   0.00000  Uiso   1.00
O1239  O     0.57506   0.16667   0.88207   0.00000  Uiso   1.00
O1240  O     0.54325   0.05453   0.73935   0.00000  Uiso   1.00
C1241  C     0.83778   0.08771   0.83302   0.00000  Uiso   1.00
C1242  C     0.85506   0.02297   0.87430   0.00000  Uiso   1.00
C1243  C     0.82357   0.29058   0.83483   0.00000  Uiso   1.00
C1244  C     0.84310   0.04275   0.83184   0.00000  Uiso   1.00
C1245  C     0.79623   0.14307   0.68609   0.00000  Uiso   1.00
C1246  C     0.87044   0.19026   0.98058   0.00000  Uiso   1.00
C1247  C     0.79670   0.14293   0.97002   0.00000  Uiso   1.00
C1248  C     0.86997   0.19041   0.69665   0.00000  Uiso   1.00
C1249  C     0.83543   0.03568   0.74364   0.00000  Uiso   1.00
C1250  C     0.83124   0.29765   0.92303   0.00000  Uiso   1.00
C1251  C     0.77849   0.28793   0.75096   0.00000  Uiso   1.00
C1252  C     0.82889   0.24562   0.83364   0.00000  Uiso   1.00
C1253  C     0.88818   0.04541   0.91571   0.00000  Uiso   1.00
C1254  C     0.75221   0.11847   0.70442   0.00000  Uiso   1.00
C1255  C     0.91446   0.21486   0.96225   0.00000  Uiso   1.00
C1256  C     0.75667   0.11640   0.94001   0.00000  Uiso   1.00
C1257  C     0.90999   0.21693   0.72665   0.00000  Uiso   1.00
C1258  C     0.73472   0.16562   0.82147   0.00000  Uiso   1.00
C1259  C     0.93195   0.16771   0.84520   0.00000  Uiso   1.00
C1260  C     0.67927   0.16195   0.81551   0.00000  Uiso   1.00
C1261  C     0.98740   0.17138   0.85116   0.00000  Uiso   1.00
C1262  C     0.82738   0.01896   0.78984   0.00000  Uiso   1.00
C1263  C     0.83929   0.31437   0.87682   0.00000  Uiso   1.00
C1264  C     0.81161   0.31036   0.79237   0.00000  Uiso   1.00
Cu1265 Cu    0.83333   0.16667   0.88022   0.00000  Uiso   1.00
Cu1266 Cu    0.83333   0.16666   0.78645   0.00000  Uiso   1.00
H1267  H     0.99245   0.15015   0.78206   0.00000  Uiso   1.00
H1268  H     0.92009   0.02631   0.92913   0.00000  Uiso   1.00
H1269  H     0.71898   0.13793   0.70514   0.00000  Uiso   1.00
H1270  H     0.73833   0.09031   0.68262   0.00000  Uiso   1.00
H1271  H     0.76314   0.10619   0.73874   0.00000  Uiso   1.00
H1272  H     0.94769   0.19540   0.96153   0.00000  Uiso   1.00
H1273  H     0.90353   0.22714   0.92793   0.00000  Uiso   1.00
H1274  H     0.92833   0.24302   0.98405   0.00000  Uiso   1.00
H1275  H     0.68083   0.10536   0.91632   0.00000  Uiso   1.00
H1276  H     0.98583   0.22797   0.75034   0.00000  Uiso   1.00
H1277  H     0.67421   0.18318   0.88461   0.00000  Uiso   1.00
H1278  H     0.80885   0.04090   0.67561   0.00000  Uiso   1.00
H1279  H     0.85782   0.29243   0.99106   0.00000  Uiso   1.00
H1280  H     0.75840   0.25887   0.76058   0.00000  Uiso   1.00
H1281  H     0.74657   0.30702   0.73753   0.00000  Uiso   1.00
H1282  H     0.80223   0.28122   0.72290   0.00000  Uiso   1.00
H1283  H     0.90827   0.07446   0.90608   0.00000  Uiso   1.00
H1284  H     0.86444   0.05212   0.94377   0.00000  Uiso   1.00
N1285  N     0.83335   0.16668   0.95069   0.00000  Uiso   1.00
N1286  N     0.83332   0.16666   0.71597   0.00000  Uiso   1.00
O1287  O     0.83333   0.10655   0.87291   0.00000  Uiso   1.00
O1288  O     0.79750   0.02897   0.70491   0.00000  Uiso   1.00
O1289  O     0.79009   0.27880   0.92732   0.00000  Uiso   1.00
O1290  O     0.86916   0.30437   0.96176   0.00000  Uiso   1.00
O1291  O     0.76681   0.08267   0.92529   0.00000  Uiso   1.00
O1292  O     0.70549   0.12717   0.93483   0.00000  Uiso   1.00
O1293  O     0.89986   0.25066   0.74138   0.00000  Uiso   1.00
O1294  O     0.96118   0.20616   0.73183   0.00000  Uiso   1.00
O1295  O     0.83334   0.22678   0.79375   0.00000  Uiso   1.00
O1296  O     0.83333   0.10654   0.79372   0.00000  Uiso   1.00
O1297  O     0.83334   0.22679   0.87294   0.00000  Uiso   1.00
O1298  O     0.75828   0.16667   0.86379   0.00000  Uiso   1.00
O1299  O     0.90839   0.16666   0.80288   0.00000  Uiso   1.00
O1300  O     0.75828   0.16666   0.78460   0.00000  Uiso   1.00
O1301  O     0.90839   0.16667   0.88207   0.00000  Uiso   1.00
O1302  O     0.87658   0.05453   0.73935   0.00000  Uiso   1.00
C1303  C     0.17111   0.42105   0.83302   0.00000  Uiso   1.00
C1304  C     0.18840   0.35630   0.87430   0.00000  Uiso   1.00
C1305  C     0.15690   0.62392   0.83483   0.00000  Uiso   1.00
C1306  C     0.17643   0.37608   0.83184   0.00000  Uiso   1.00
C1307  C     0.12956   0.47640   0.68609   0.00000  Uiso   1.00
C1308  C     0.20377   0.52360   0.98058   0.00000  Uiso   1.00
C1309  C     0.13003   0.47626   0.97002   0.00000  Uiso   1.00
C1310  C     0.20330   0.52374   0.69665   0.00000  Uiso   1.00
C1311  C     0.16876   0.36902   0.74364   0.00000  Uiso   1.00
C1312  C     0.16457   0.63098   0.92303   0.00000  Uiso   1.00
C1313  C     0.11182   0.62126   0.75096   0.00000  Uiso   1.00
C1314  C     0.16222   0.57895   0.83364   0.00000  Uiso   1.00
C1315  C     0.22151   0.37874   0.91571   0.00000  Uiso   1.00
C1316  C     0.08554   0.45180   0.70442   0.00000  Uiso   1.00
C1317  C     0.24779   0.54820   0.96225   0.00000  Uiso   1.00
C1318  C     0.09001   0.44973   0.94001   0.00000  Uiso   1.00
C1319  C     0.24333   0.55026   0.72665   0.00000  Uiso   1.00
C1320  C     0.06805   0.49896   0.82147   0.00000  Uiso   1.00
C1321  C     0.26528   0.50104   0.84520   0.00000  Uiso   1.00
C1322  C     0.01261   0.49528   0.81551   0.00000  Uiso   1.00
C1323  C     0.32073   0.50472   0.85116   0.00000  Uiso   1.00
C1324  C     0.16071   0.35230   0.78984   0.00000  Uiso   1.00
C1325  C     0.17262   0.64770   0.87682   0.00000  Uiso   1.00
C1326  C     0.14494   0.64370   0.79237   0.00000  Uiso   1.00
Cu1327 Cu    0.16667   0.50001   0.88022   0.00000  Uiso   1.00
Cu1328 Cu    0.16667   0.49999   0.78645   0.00000  Uiso   1.00
H1329  H     0.32579   0.48349   0.78206   0.00000  Uiso   1.00
H1330  H     0.25343   0.35964   0.92913   0.00000  Uiso   1.00
H1331  H     0.05231   0.47126   0.70514   0.00000  Uiso   1.00
H1332  H     0.07166   0.42364   0.68262   0.00000  Uiso   1.00
H1333  H     0.09647   0.43953   0.73874   0.00000  Uiso   1.00
H1334  H     0.28103   0.52874   0.96153   0.00000  Uiso   1.00
H1335  H     0.23686   0.56047   0.92793   0.00000  Uiso   1.00
H1336  H     0.26167   0.57636   0.98405   0.00000  Uiso   1.00
H1337  H     0.01417   0.43869   0.91632   0.00000  Uiso   1.00
H1338  H     0.31917   0.56131   0.75034   0.00000  Uiso   1.00
H1339  H     0.00755   0.51651   0.88461   0.00000  Uiso   1.00
H1340  H     0.14218   0.37423   0.67561   0.00000  Uiso   1.00
H1341  H     0.19115   0.62577   0.99106   0.00000  Uiso   1.00
H1342  H     0.09173   0.59220   0.76058   0.00000  Uiso   1.00
H1343  H     0.07991   0.64036   0.73753   0.00000  Uiso   1.00
H1344  H     0.13556   0.61455   0.72290   0.00000  Uiso   1.00
H1345  H     0.24160   0.40780   0.90608   0.00000  Uiso   1.00
H1346  H     0.19777   0.38545   0.94377   0.00000  Uiso   1.00
N1347  N     0.16668   0.50001   0.95069   0.00000  Uiso   1.00
N1348  N     0.16665   0.49999   0.71597   0.00000  Uiso   1.00
O1349  O     0.16666   0.43989   0.87291   0.00000  Uiso   1.00
O1350  O     0.13084   0.36230   0.70491   0.00000  Uiso   1.00
O1351  O     0.12342   0.61213   0.92732   0.00000  Uiso   1.00
O1352  O     0.20250   0.63770   0.96176   0.00000  Uiso   1.00
O1353  O     0.10014   0.41601   0.92529   0.00000  Uiso   1.00
O1354  O     0.03883   0.46050   0.93483   0.00000  Uiso   1.00
O1355  O     0.23320   0.58399   0.74138   0.00000  Uiso   1.00
O1356  O     0.29451   0.53950   0.73183   0.00000  Uiso   1.00
O1357  O     0.16667   0.56011   0.79375   0.00000  Uiso   1.00
O1358  O     0.16666   0.43988   0.79372   0.00000  Uiso   1.00
O1359  O     0.16667   0.56012   0.87294   0.00000  Uiso   1.00
O1360  O     0.09161   0.50000   0.86379   0.00000  Uiso   1.00
O1361  O     0.24172   0.50000   0.80288   0.00000  Uiso   1.00
O1362  O     0.09161   0.49999   0.78460   0.00000  Uiso   1.00
O1363  O     0.24172   0.50001   0.88207   0.00000  Uiso   1.00
O1364  O     0.20992   0.38787   0.73935   0.00000  Uiso   1.00
C1365  C     0.50445   0.42105   0.83302   0.00000  Uiso   1.00
C1366  C     0.52173   0.35630   0.87430   0.00000  Uiso   1.00
C1367  C     0.49024   0.62392   0.83483   0.00000  Uiso   1.00
C1368  C     0.50976   0.37608   0.83184   0.00000  Uiso   1.00
C1369  C     0.46289   0.47640   0.68609   0.00000  Uiso   1.00
C1370  C     0.53711   0.52360   0.98058   0.00000  Uiso   1.00
C1371  C     0.46336   0.47626   0.97002   0.00000  Uiso   1.00
C1372  C     0.53664   0.52374   0.69665   0.00000  Uiso   1.00
C1373  C     0.50209   0.36902   0.74364   0.00000  Uiso   1.00
C1374  C     0.49791   0.63098   0.92303   0.00000  Uiso   1.00
C1375  C     0.44516   0.62126   0.75096   0.00000  Uiso   1.00
C1376  C     0.49555   0.57895   0.83364   0.00000  Uiso   1.00
C1377  C     0.55485   0.37874   0.91571   0.00000  Uiso   1.00
C1378  C     0.41888   0.45180   0.70442   0.00000  Uiso   1.00
C1379  C     0.58112   0.54820   0.96225   0.00000  Uiso   1.00
C1380  C     0.42334   0.44973   0.94001   0.00000  Uiso   1.00
C1381  C     0.57666   0.55026   0.72665   0.00000  Uiso   1.00
C1382  C     0.40138   0.49896   0.82147   0.00000  Uiso   1.00
C1383  C     0.59862   0.50104   0.84520   0.00000  Uiso   1.00
C1384  C     0.34594   0.49528   0.81551   0.00000  Uiso   1.00
C1385  C     0.65406   0.50472   0.85116   0.00000  Uiso   1.00
C1386  C     0.49404   0.35230   0.78984   0.00000  Uiso   1.00
C1387  C     0.50596   0.64770   0.87682   0.00000  Uiso   1.00
C1388  C     0.47827   0.64370   0.79237   0.00000  Uiso   1.00
Cu1389 Cu    0.50000   0.50001   0.88022   0.00000  Uiso   1.00
Cu1390 Cu    0.50000   0.49999   0.78645   0.00000  Uiso   1.00
H1391  H     0.65912   0.48349   0.78206   0.00000  Uiso   1.00
H1392  H     0.58676   0.35964   0.92913   0.00000  Uiso   1.00
H1393  H     0.38564   0.47126   0.70514   0.00000  Uiso   1.00
H1394  H     0.40500   0.42364   0.68262   0.00000  Uiso   1.00
H1395  H     0.42981   0.43953   0.73874   0.00000  Uiso   1.00
H1396  H     0.61436   0.52874   0.96153   0.00000  Uiso   1.00
H1397  H     0.57019   0.56047   0.92793   0.00000  Uiso   1.00
H1398  H     0.59500   0.57636   0.98405   0.00000  Uiso   1.00
H1399  H     0.34750   0.43869   0.91632   0.00000  Uiso   1.00
H1400  H     0.65250   0.56131   0.75034   0.00000  Uiso   1.00
H1401  H     0.34088   0.51651   0.88461   0.00000  Uiso   1.00
H1402  H     0.47552   0.37423   0.67561   0.00000  Uiso   1.00
H1403  H     0.52448   0.62577   0.99106   0.00000  Uiso   1.00
H1404  H     0.42507   0.59220   0.76058   0.00000  Uiso   1.00
H1405  H     0.41324   0.64036   0.73753   0.00000  Uiso   1.00
H1406  H     0.46890   0.61455   0.72290   0.00000  Uiso   1.00
H1407  H     0.57493   0.40780   0.90608   0.00000  Uiso   1.00
H1408  H     0.53110   0.38545   0.94377   0.00000  Uiso   1.00
N1409  N     0.50001   0.50001   0.95069   0.00000  Uiso   1.00
N1410  N     0.49999   0.49999   0.71597   0.00000  Uiso   1.00
O1411  O     0.50000   0.43989   0.87291   0.00000  Uiso   1.00
O1412  O     0.46417   0.36230   0.70491   0.00000  Uiso   1.00
O1413  O     0.45675   0.61213   0.92732   0.00000  Uiso   1.00
O1414  O     0.53583   0.63770   0.96176   0.00000  Uiso   1.00
O1415  O     0.43347   0.41601   0.92529   0.00000  Uiso   1.00
O1416  O     0.37216   0.46050   0.93483   0.00000  Uiso   1.00
O1417  O     0.56653   0.58399   0.74138   0.00000  Uiso   1.00
O1418  O     0.62784   0.53950   0.73183   0.00000  Uiso   1.00
O1419  O     0.50000   0.56011   0.79375   0.00000  Uiso   1.00
O1420  O     0.50000   0.43988   0.79372   0.00000  Uiso   1.00
O1421  O     0.50000   0.56012   0.87294   0.00000  Uiso   1.00
O1422  O     0.42495   0.50000   0.86379   0.00000  Uiso   1.00
O1423  O     0.57505   0.50000   0.80288   0.00000  Uiso   1.00
O1424  O     0.42494   0.49999   0.78460   0.00000  Uiso   1.00
O1425  O     0.57506   0.50001   0.88207   0.00000  Uiso   1.00
O1426  O     0.54325   0.38787   0.73935   0.00000  Uiso   1.00
C1427  C     0.83778   0.42105   0.83302   0.00000  Uiso   1.00
C1428  C     0.85506   0.35630   0.87430   0.00000  Uiso   1.00
C1429  C     0.82357   0.62392   0.83483   0.00000  Uiso   1.00
C1430  C     0.84310   0.37608   0.83184   0.00000  Uiso   1.00
C1431  C     0.79623   0.47640   0.68609   0.00000  Uiso   1.00
C1432  C     0.87044   0.52360   0.98058   0.00000  Uiso   1.00
C1433  C     0.79670   0.47626   0.97002   0.00000  Uiso   1.00
C1434  C     0.86997   0.52374   0.69665   0.00000  Uiso   1.00
C1435  C     0.83543   0.36902   0.74364   0.00000  Uiso   1.00
C1436  C     0.83124   0.63098   0.92303   0.00000  Uiso   1.00
C1437  C     0.77849   0.62126   0.75096   0.00000  Uiso   1.00
C1438  C     0.82889   0.57895   0.83364   0.00000  Uiso   1.00
C1439  C     0.88818   0.37874   0.91571   0.00000  Uiso   1.00
C1440  C     0.75221   0.45180   0.70442   0.00000  Uiso   1.00
C1441  C     0.91446   0.54820   0.96225   0.00000  Uiso   1.00
C1442  C     0.75667   0.44973   0.94001   0.00000  Uiso   1.00
C1443  C     0.90999   0.55026   0.72665   0.00000  Uiso   1.00
C1444  C     0.73472   0.49896   0.82147   0.00000  Uiso   1.00
C1445  C     0.93195   0.50104   0.84520   0.00000  Uiso   1.00
C1446  C     0.67927   0.49528   0.81551   0.00000  Uiso   1.00
C1447  C     0.98740   0.50472   0.85116   0.00000  Uiso   1.00
C1448  C     0.82738   0.35230   0.78984   0.00000  Uiso   1.00
C1449  C     0.83929   0.64770   0.87682   0.00000  Uiso   1.00
C1450  C     0.81161   0.64370   0.79237   0.00000  Uiso   1.00
Cu1451 Cu    0.83333   0.50001   0.88022   0.00000  Uiso   1.00
Cu1452 Cu    0.83333   0.49999   0.78645   0.00000  Uiso   1.00
H1453  H     0.99245   0.48349   0.78206   0.00000  Uiso   1.00
H1454  H     0.92009   0.35964   0.92913   0.00000  Uiso   1.00
H1455  H     0.71898   0.47126   0.70514   0.00000  Uiso   1.00
H1456  H     0.73833   0.42364   0.68262   0.00000  Uiso   1.00
H1457  H     0.76314   0.43953   0.73874   0.00000  Uiso   1.00
H1458  H     0.94769   0.52874   0.96153   0.00000  Uiso   1.00
H1459  H     0.90353   0.56047   0.92793   0.00000  Uiso   1.00
H1460  H     0.92833   0.57636   0.98405   0.00000  Uiso   1.00
H1461  H     0.68083   0.43869   0.91632   0.00000  Uiso   1.00
H1462  H     0.98583   0.56131   0.75034   0.00000  Uiso   1.00
H1463  H     0.67421   0.51651   0.88461   0.00000  Uiso   1.00
H1464  H     0.80885   0.37423   0.67561   0.00000  Uiso   1.00
H1465  H     0.85782   0.62577   0.99106   0.00000  Uiso   1.00
H1466  H     0.75840   0.59220   0.76058   0.00000  Uiso   1.00
H1467  H     0.74657   0.64036   0.73753   0.00000  Uiso   1.00
H1468  H     0.80223   0.61455   0.72290   0.00000  Uiso   1.00
H1469  H     0.90827   0.40780   0.90608   0.00000  Uiso   1.00
H1470  H     0.86444   0.38545   0.94377   0.00000  Uiso   1.00
N1471  N     0.83335   0.50001   0.95069   0.00000  Uiso   1.00
N1472  N     0.83332   0.49999   0.71597   0.00000  Uiso   1.00
O1473  O     0.83333   0.43989   0.87291   0.00000  Uiso   1.00
O1474  O     0.79750   0.36230   0.70491   0.00000  Uiso   1.00
O1475  O     0.79009   0.61213   0.92732   0.00000  Uiso   1.00
O1476  O     0.86916   0.63770   0.96176   0.00000  Uiso   1.00
O1477  O     0.76681   0.41601   0.92529   0.00000  Uiso   1.00
O1478  O     0.70549   0.46050   0.93483   0.00000  Uiso   1.00
O1479  O     0.89986   0.58399   0.74138   0.00000  Uiso   1.00
O1480  O     0.96118   0.53950   0.73183   0.00000  Uiso   1.00
O1481  O     0.83334   0.56011   0.79375   0.00000  Uiso   1.00
O1482  O     0.83333   0.43988   0.79372   0.00000  Uiso   1.00
O1483  O     0.83334   0.56012   0.87294   0.00000  Uiso   1.00
O1484  O     0.75828   0.50000   0.86379   0.00000  Uiso   1.00
O1485  O     0.90839   0.50000   0.80288   0.00000  Uiso   1.00
O1486  O     0.75828   0.49999   0.78460   0.00000  Uiso   1.00
O1487  O     0.90839   0.50001   0.88207   0.00000  Uiso   1.00
O1488  O     0.87658   0.38787   0.73935   0.00000  Uiso   1.00
C1489  C     0.17111   0.75438   0.83302   0.00000  Uiso   1.00
C1490  C     0.18840   0.68964   0.87430   0.00000  Uiso   1.00
C1491  C     0.15690   0.95725   0.83483   0.00000  Uiso   1.00
C1492  C     0.17643   0.70941   0.83184   0.00000  Uiso   1.00
C1493  C     0.12956   0.80974   0.68609   0.00000  Uiso   1.00
C1494  C     0.20377   0.85693   0.98058   0.00000  Uiso   1.00
C1495  C     0.13003   0.80959   0.97002   0.00000  Uiso   1.00
C1496  C     0.20330   0.85707   0.69665   0.00000  Uiso   1.00
C1497  C     0.16876   0.70235   0.74364   0.00000  Uiso   1.00
C1498  C     0.16457   0.96432   0.92303   0.00000  Uiso   1.00
C1499  C     0.11182   0.95459   0.75096   0.00000  Uiso   1.00
C1500  C     0.16222   0.91229   0.83364   0.00000  Uiso   1.00
C1501  C     0.22151   0.71207   0.91571   0.00000  Uiso   1.00
C1502  C     0.08554   0.78514   0.70442   0.00000  Uiso   1.00
C1503  C     0.24779   0.88153   0.96225   0.00000  Uiso   1.00
C1504  C     0.09001   0.78307   0.94001   0.00000  Uiso   1.00
C1505  C     0.24333   0.88360   0.72665   0.00000  Uiso   1.00
C1506  C     0.06805   0.83229   0.82147   0.00000  Uiso   1.00
C1507  C     0.26528   0.83438   0.84520   0.00000  Uiso   1.00
C1508  C     0.01261   0.82862   0.81551   0.00000  Uiso   1.00
C1509  C     0.32073   0.83805   0.85116   0.00000  Uiso   1.00
C1510  C     0.16071   0.68563   0.78984   0.00000  Uiso   1.00
C1511  C     0.17262   0.98104   0.87682   0.00000  Uiso   1.00
C1512  C     0.14494   0.97703   0.79237   0.00000  Uiso   1.00
Cu1513 Cu    0.16667   0.83334   0.88022   0.00000  Uiso   1.00
Cu1514 Cu    0.16667   0.83333   0.78645   0.00000  Uiso   1.00
H1515  H     0.32579   0.81682   0.78206   0.00000  Uiso   1.00
H1516  H     0.25343   0.69297   0.92913   0.00000  Uiso   1.00
H1517  H     0.05231   0.80460   0.70514   0.00000  Uiso   1.00
H1518  H     0.07166   0.75698   0.68262   0.00000  Uiso   1.00
H1519  H     0.09647   0.77286   0.73874   0.00000  Uiso   1.00
H1520  H     0.28103   0.86207   0.96153   0.00000  Uiso   1.00
H1521  H     0.23686   0.89381   0.92793   0.00000  Uiso   1.00
H1522  H     0.26167   0.90969   0.98405   0.00000  Uiso   1.00
H1523  H     0.01417   0.77202   0.91632   0.00000  Uiso   1.00
H1524  H     0.31917   0.89464   0.75034   0.00000  Uiso   1.00
H1525  H     0.00755   0.84985   0.88461   0.00000  Uiso   1.00
H1526  H     0.14218   0.70757   0.67561   0.00000  Uiso   1.00
H1527  H     0.19115   0.95910   0.99106   0.00000  Uiso   1.00
H1528  H     0.09173   0.92554   0.76058   0.00000  Uiso   1.00
H1529  H     0.07991   0.97369   0.73753   0.00000  Uiso   1.00
H1530  H     0.13556   0.94788   0.72290   0.00000  Uiso   1.00
H1531  H     0.24160   0.74113   0.90608   0.00000  Uiso   1.00
H1532  H     0.19777   0.71878   0.94377   0.00000  Uiso   1.00
N1533  N     0.16668   0.83334   0.95069   0.00000  Uiso   1.00
N1534  N     0.16665   0.83332   0.71597   0.00000  Uiso   1.00
O1535  O     0.16666   0.77322   0.87291   0.00000  Uiso   1.00
O1536  O     0.13084   0.69564   0.70491   0.00000  Uiso   1.00
O1537  O     0.12342   0.94547   0.92732   0.00000  Uiso   1.00
O1538  O     0.20250   0.97103   0.96176   0.00000  Uiso   1.00
O1539  O     0.10014   0.74934   0.92529   0.00000  Uiso   1.00
O1540  O     0.03883   0.79383   0.93483   0.00000  Uiso   1.00
O1541  O     0.23320   0.91732   0.74138   0.00000  Uiso   1.00
O1542  O     0.29451   0.87283   0.73183   0.00000  Uiso   1.00
O1543  O     0.16667   0.89345   0.79375   0.00000  Uiso   1.00
O1544  O     0.16666   0.77321   0.79372   0.00000  Uiso   1.00
O1545  O     0.16667   0.89346   0.87294   0.00000  Uiso   1.00
O1546  O     0.09161   0.83334   0.86379   0.00000  Uiso   1.00
O1547  O     0.24172   0.83333   0.80288   0.00000  Uiso   1.00
O1548  O     0.09161   0.83333   0.78460   0.00000  Uiso   1.00
O1549  O     0.24172   0.83334   0.88207   0.00000  Uiso   1.00
O1550  O     0.20992   0.72120   0.73935   0.00000  Uiso   1.00
C1551  C     0.50445   0.75438   0.83302   0.00000  Uiso   1.00
C1552  C     0.52173   0.68964   0.87430   0.00000  Uiso   1.00
C1553  C     0.49024   0.95725   0.83483   0.00000  Uiso   1.00
C1554  C     0.50976   0.70941   0.83184   0.00000  Uiso   1.00
C1555  C     0.46289   0.80974   0.68609   0.00000  Uiso   1.00
C1556  C     0.53711   0.85693   0.98058   0.00000  Uiso   1.00
C1557  C     0.46336   0.80959   0.97002   0.00000  Uiso   1.00
C1558  C     0.53664   0.85707   0.69665   0.00000  Uiso   1.00
C1559  C     0.50209   0.70235   0.74364   0.00000  Uiso   1.00
C1560  C     0.49791   0.96432   0.92303   0.00000  Uiso   1.00
C1561  C     0.44516   0.95459   0.75096   0.00000  Uiso   1.00
C1562  C     0.49555   0.91229   0.83364   0.00000  Uiso   1.00
C1563  C     0.55485   0.71207   0.91571   0.00000  Uiso   1.00
C1564  C     0.41888   0.78514   0.70442   0.00000  Uiso   1.00
C1565  C     0.58112   0.88153   0.96225   0.00000  Uiso   1.00
C1566  C     0.42334   0.78307   0.94001   0.00000  Uiso   1.00
C1567  C     0.57666   0.88360   0.72665   0.00000  Uiso   1.00
C1568  C     0.40138   0.83229   0.82147   0.00000  Uiso   1.00
C1569  C     0.59862   0.83438   0.84520   0.00000  Uiso   1.00
C1570  C     0.34594   0.82862   0.81551   0.00000  Uiso   1.00
C1571  C     0.65406   0.83805   0.85116   0.00000  Uiso   1.00
C1572  C     0.49404   0.68563   0.78984   0.00000  Uiso   1.00
C1573  C     0.50596   0.98104   0.87682   0.00000  Uiso   1.00
C1574  C     0.47827   0.97703   0.79237   0.00000  Uiso   1.00
Cu1575 Cu    0.50000   0.83334   0.88022   0.00000  Uiso   1.00
Cu1576 Cu    0.50000   0.83333   0.78645   0.00000  Uiso   1.00
H1577  H     0.65912   0.81682   0.78206   0.00000  Uiso   1.00
H1578  H     0.58676   0.69297   0.92913   0.00000  Uiso   1.00
H1579  H     0.38564   0.80460   0.70514   0.00000  Uiso   1.00
H1580  H     0.40500   0.75698   0.68262   0.00000  Uiso   1.00
H1581  H     0.42981   0.77286   0.73874   0.00000  Uiso   1.00
H1582  H     0.61436   0.86207   0.96153   0.00000  Uiso   1.00
H1583  H     0.57019   0.89381   0.92793   0.00000  Uiso   1.00
H1584  H     0.59500   0.90969   0.98405   0.00000  Uiso   1.00
H1585  H     0.34750   0.77202   0.91632   0.00000  Uiso   1.00
H1586  H     0.65250   0.89464   0.75034   0.00000  Uiso   1.00
H1587  H     0.34088   0.84985   0.88461   0.00000  Uiso   1.00
H1588  H     0.47552   0.70757   0.67561   0.00000  Uiso   1.00
H1589  H     0.52448   0.95910   0.99106   0.00000  Uiso   1.00
H1590  H     0.42507   0.92554   0.76058   0.00000  Uiso   1.00
H1591  H     0.41324   0.97369   0.73753   0.00000  Uiso   1.00
H1592  H     0.46890   0.94788   0.72290   0.00000  Uiso   1.00
H1593  H     0.57493   0.74113   0.90608   0.00000  Uiso   1.00
H1594  H     0.53110   0.71878   0.94377   0.00000  Uiso   1.00
N1595  N     0.50001   0.83334   0.95069   0.00000  Uiso   1.00
N1596  N     0.49999   0.83332   0.71597   0.00000  Uiso   1.00
O1597  O     0.50000   0.77322   0.87291   0.00000  Uiso   1.00
O1598  O     0.46417   0.69564   0.70491   0.00000  Uiso   1.00
O1599  O     0.45675   0.94547   0.92732   0.00000  Uiso   1.00
O1600  O     0.53583   0.97103   0.96176   0.00000  Uiso   1.00
O1601  O     0.43347   0.74934   0.92529   0.00000  Uiso   1.00
O1602  O     0.37216   0.79383   0.93483   0.00000  Uiso   1.00
O1603  O     0.56653   0.91732   0.74138   0.00000  Uiso   1.00
O1604  O     0.62784   0.87283   0.73183   0.00000  Uiso   1.00
O1605  O     0.50000   0.89345   0.79375   0.00000  Uiso   1.00
O1606  O     0.50000   0.77321   0.79372   0.00000  Uiso   1.00
O1607  O     0.50000   0.89346   0.87294   0.00000  Uiso   1.00
O1608  O     0.42495   0.83334   0.86379   0.00000  Uiso   1.00
O1609  O     0.57505   0.83333   0.80288   0.00000  Uiso   1.00
O1610  O     0.42494   0.83333   0.78460   0.00000  Uiso   1.00
O1611  O     0.57506   0.83334   0.88207   0.00000  Uiso   1.00
O1612  O     0.54325   0.72120   0.73935   0.00000  Uiso   1.00
C1613  C     0.83778   0.75438   0.83302   0.00000  Uiso   1.00
C1614  C     0.85506   0.68964   0.87430   0.00000  Uiso   1.00
C1615  C     0.82357   0.95725   0.83483   0.00000  Uiso   1.00
C1616  C     0.84310   0.70941   0.83184   0.00000  Uiso   1.00
C1617  C     0.79623   0.80974   0.68609   0.00000  Uiso   1.00
C1618  C     0.87044   0.85693   0.98058   0.00000  Uiso   1.00
C1619  C     0.79670   0.80959   0.97002   0.00000  Uiso   1.00
C1620  C     0.86997   0.85707   0.69665   0.00000  Uiso   1.00
C1621  C     0.83543   0.70235   0.74364   0.00000  Uiso   1.00
C1622  C     0.83124   0.96432   0.92303   0.00000  Uiso   1.00
C1623  C     0.77849   0.95459   0.75096   0.00000  Uiso   1.00
C1624  C     0.82889   0.91229   0.83364   0.00000  Uiso   1.00
C1625  C     0.88818   0.71207   0.91571   0.00000  Uiso   1.00
C1626  C     0.75221   0.78514   0.70442   0.00000  Uiso   1.00
C1627  C     0.91446   0.88153   0.96225   0.00000  Uiso   1.00
C1628  C     0.75667   0.78307   0.94001   0.00000  Uiso   1.00
C1629  C     0.90999   0.88360   0.72665   0.00000  Uiso   1.00
C1630  C     0.73472   0.83229   0.82147   0.00000  Uiso   1.00
C1631  C     0.93195   0.83438   0.84520   0.00000  Uiso   1.00
C1632  C     0.67927   0.82862   0.81551   0.00000  Uiso   1.00
C1633  C     0.98740   0.83805   0.85116   0.00000  Uiso   1.00
C1634  C     0.82738   0.68563   0.78984   0.00000  Uiso   1.00
C1635  C     0.83929   0.98104   0.87682   0.00000  Uiso   1.00
C1636  C     0.81161   0.97703   0.79237   0.00000  Uiso   1.00
Cu1637 Cu    0.83333   0.83334   0.88022   0.00000  Uiso   1.00
Cu1638 Cu    0.83333   0.83333   0.78645   0.00000  Uiso   1.00
H1639  H     0.99245   0.81682   0.78206   0.00000  Uiso   1.00
H1640  H     0.92009   0.69297   0.92913   0.00000  Uiso   1.00
H1641  H     0.71898   0.80460   0.70514   0.00000  Uiso   1.00
H1642  H     0.73833   0.75698   0.68262   0.00000  Uiso   1.00
H1643  H     0.76314   0.77286   0.73874   0.00000  Uiso   1.00
H1644  H     0.94769   0.86207   0.96153   0.00000  Uiso   1.00
H1645  H     0.90353   0.89381   0.92793   0.00000  Uiso   1.00
H1646  H     0.92833   0.90969   0.98405   0.00000  Uiso   1.00
H1647  H     0.68083   0.77202   0.91632   0.00000  Uiso   1.00
H1648  H     0.98583   0.89464   0.75034   0.00000  Uiso   1.00
H1649  H     0.67421   0.84985   0.88461   0.00000  Uiso   1.00
H1650  H     0.80885   0.70757   0.67561   0.00000  Uiso   1.00
H1651  H     0.85782   0.95910   0.99106   0.00000  Uiso   1.00
H1652  H     0.75840   0.92554   0.76058   0.00000  Uiso   1.00
H1653  H     0.74657   0.97369   0.73753   0.00000  Uiso   1.00
H1654  H     0.80223   0.94788   0.72290   0.00000  Uiso   1.00
H1655  H     0.90827   0.74113   0.90608   0.00000  Uiso   1.00
H1656  H     0.86444   0.71878   0.94377   0.00000  Uiso   1.00
N1657  N     0.83335   0.83334   0.95069   0.00000  Uiso   1.00
N1658  N     0.83332   0.83332   0.71597   0.00000  Uiso   1.00
O1659  O     0.83333   0.77322   0.87291   0.00000  Uiso   1.00
O1660  O     0.79750   0.69564   0.70491   0.00000  Uiso   1.00
O1661  O     0.79009   0.94547   0.92732   0.00000  Uiso   1.00
O1662  O     0.86916   0.97103   0.96176   0.00000  Uiso   1.00
O1663  O     0.76681   0.74934   0.92529   0.00000  Uiso   1.00
O1664  O     0.70549   0.79383   0.93483   0.00000  Uiso   1.00
O1665  O     0.89986   0.91732   0.74138   0.00000  Uiso   1.00
O1666  O     0.96118   0.87283   0.73183   0.00000  Uiso   1.00
O1667  O     0.83334   0.89345   0.79375   0.00000  Uiso   1.00
O1668  O     0.83333   0.77321   0.79372   0.00000  Uiso   1.00
O1669  O     0.83334   0.89346   0.87294   0.00000  Uiso   1.00
O1670  O     0.75828   0.83334   0.86379   0.00000  Uiso   1.00
O1671  O     0.90839   0.83333   0.80288   0.00000  Uiso   1.00
O1672  O     0.75828   0.83333   0.78460   0.00000  Uiso   1.00
O1673  O     0.90839   0.83334   0.88207   0.00000  Uiso   1.00
O1674  O     0.87658   0.72120   0.73935   0.00000  Uiso   1.00
loop_
_geom_bond_atom_site_label_1
_geom_bond_atom_site_label_2
_geom_bond_distance
_geom_bond_site_symmetry_2
_ccdc_geom_bond_type
C1     C4      1.475   .     S
C1     O56     1.303   .     A
C1     O47     1.312   .     A
C2     C4      1.413   .     A
C2     C13     1.519   .     S
C2     C395    1.402   1_545 S
C3     C12     1.475   .     S
C3     C23     1.418   .     A
C3     C24     1.413   .     A
C4     C22     1.418   .     A
C5     N46     1.384   .     A
C5     C14     1.518   .     S
C5     C1123   1.432   1_554 S
C6     N45     1.384   .     A
C6     C15     1.518   .     S
C6     C566    1.432   .     S
C7     N45     1.375   .     A
C7     C16     1.478   .     S
C7     C563    1.432   .     S
C8     C17     1.478   .     S
C8     N46     1.375   .     A
C8     C1122   1.432   1_554 S
C9     C22     1.493   .     S
C9     O62     1.224   .     D
C9     O48     1.397   .     S
C10    C23     1.493   .     S
C10    O50     1.397   .     S
C10    O49     1.224   .     D
C11    H41     1.110   .     S
C11    H40     1.109   .     S
C11    C24     1.519   .     S
C11    H42     1.110   .     S
C12    O57     1.303   .     A
C12    O55     1.312   .     A
C13    H28     1.110   .     S
C13    H43     1.109   .     S
C13    H44     1.110   .     S
C14    H31     1.092   .     S
C14    H30     1.107   .     S
C14    H29     1.110   .     S
C15    H34     1.107   .     S
C15    H32     1.110   .     S
C15    H33     1.092   .     S
C16    O51     1.221   .     D
C16    O52     1.396   .     S
C17    O53     1.221   .     D
C17    O54     1.396   .     S
C18    O60     1.300   .     A
C18    C20     1.433   .     S
C18    O58     1.296   .     A
C19    O59     1.296   .     A
C19    O61     1.300   .     A
C19    C21     1.433   .     S
C20    C145    1.334   1_455 S
C20    H151    1.085   1_455 S
C21    C82     1.334   .     S
C21    H99     1.085   .     S
C22    C396    1.402   1_545 S
C23    C188    1.402   .     S
C24    C208    1.402   .     S
Cu25   N45     2.040   .     S
Cu25   O47     1.957   .     S
Cu25   Cu26    2.714   .     S
Cu25   O61     1.955   .     S
Cu25   O57     1.969   .     S
Cu25   O58     1.957   .     S
Cu26   O55     1.957   .     S
Cu26   N46     2.040   .     S
Cu26   O60     1.955   .     S
Cu26   O59     1.957   .     S
Cu26   O56     1.969   .     S
H27    C82     1.085   .     S
H35    O52     1.014   .     S
H36    O54     1.014   .     S
H37    C145    1.085   1_455 S
H38    O48     1.014   .     S
H39    O50     1.014   .     S
C63    C66     1.475   .     S
C63    O118    1.303   .     A
C63    O109    1.312   .     A
C64    C66     1.413   .     A
C64    C75     1.519   .     S
C64    C457    1.402   1_545 S
C65    C74     1.475   .     S
C65    C85     1.418   .     A
C65    C86     1.413   .     A
C66    C84     1.418   .     A
C67    N108    1.384   .     A
C67    C76     1.518   .     S
C67    C1185   1.432   1_554 S
C68    N107    1.384   .     A
C68    C77     1.518   .     S
C68    C628    1.432   .     S
C69    N107    1.375   .     A
C69    C78     1.478   .     S
C69    C625    1.432   .     S
C70    C79     1.478   .     S
C70    N108    1.375   .     A
C70    C1184   1.432   1_554 S
C71    C84     1.493   .     S
C71    O124    1.224   .     D
C71    O110    1.397   .     S
C72    C85     1.493   .     S
C72    O112    1.397   .     S
C72    O111    1.224   .     D
C73    H103    1.110   .     S
C73    H102    1.109   .     S
C73    C86     1.519   .     S
C73    H104    1.110   .     S
C74    O119    1.303   .     A
C74    O117    1.312   .     A
C75    H90     1.110   .     S
C75    H105    1.109   .     S
C75    H106    1.110   .     S
C76    H93     1.092   .     S
C76    H92     1.107   .     S
C76    H91     1.110   .     S
C77    H96     1.107   .     S
C77    H94     1.110   .     S
C77    H95     1.092   .     S
C78    O113    1.221   .     D
C78    O114    1.396   .     S
C79    O115    1.221   .     D
C79    O116    1.396   .     S
C80    O122    1.300   .     A
C80    C82     1.433   .     S
C80    O120    1.296   .     A
C81    O121    1.296   .     A
C81    O123    1.300   .     A
C81    C83     1.433   .     S
C83    C144    1.334   .     S
C83    H161    1.085   .     S
C84    C458    1.402   1_545 S
C85    C250    1.402   .     S
C86    C270    1.402   .     S
Cu87   N107    2.040   .     S
Cu87   O109    1.957   .     S
Cu87   Cu88    2.714   .     S
Cu87   O123    1.955   .     S
Cu87   O119    1.969   .     S
Cu87   O120    1.957   .     S
Cu88   O117    1.957   .     S
Cu88   N108    2.040   .     S
Cu88   O122    1.955   .     S
Cu88   O121    1.957   .     S
Cu88   O118    1.969   .     S
H89    C144    1.085   .     S
H97    O114    1.014   .     S
H98    O116    1.014   .     S
H100   O110    1.014   .     S
H101   O112    1.014   .     S
C125   C128    1.475   .     S
C125   O180    1.303   .     A
C125   O171    1.312   .     A
C126   C128    1.413   .     A
C126   C137    1.519   .     S
C126   C519    1.402   1_545 S
C127   C136    1.475   .     S
C127   C147    1.418   .     A
C127   C148    1.413   .     A
C128   C146    1.418   .     A
C129   N170    1.384   .     A
C129   C138    1.518   .     S
C129   C1247   1.432   1_554 S
C130   N169    1.384   .     A
C130   C139    1.518   .     S
C130   C690    1.432   .     S
C131   N169    1.375   .     A
C131   C140    1.478   .     S
C131   C687    1.432   .     S
C132   C141    1.478   .     S
C132   N170    1.375   .     A
C132   C1246   1.432   1_554 S
C133   C146    1.493   .     S
C133   O186    1.224   .     D
C133   O172    1.397   .     S
C134   C147    1.493   .     S
C134   O174    1.397   .     S
C134   O173    1.224   .     D
C135   H165    1.110   .     S
C135   H164    1.109   .     S
C135   C148    1.519   .     S
C135   H166    1.110   .     S
C136   O181    1.303   .     A
C136   O179    1.312   .     A
C137   H152    1.110   .     S
C137   H167    1.109   .     S
C137   H168    1.110   .     S
C138   H155    1.092   .     S
C138   H154    1.107   .     S
C138   H153    1.110   .     S
C139   H158    1.107   .     S
C139   H156    1.110   .     S
C139   H157    1.092   .     S
C140   O175    1.221   .     D
C140   O176    1.396   .     S
C141   O177    1.221   .     D
C141   O178    1.396   .     S
C142   O184    1.300   .     A
C142   C144    1.433   .     S
C142   O182    1.296   .     A
C143   O183    1.296   .     A
C143   O185    1.300   .     A
C143   C145    1.433   .     S
C145   C20     1.334   1_655 S
C145   H37     1.085   1_655 S
C146   C520    1.402   1_545 S
C147   C312    1.402   .     S
C148   C332    1.402   .     S
Cu149  N169    2.040   .     S
Cu149  O171    1.957   .     S
Cu149  Cu150   2.714   .     S
Cu149  O185    1.955   .     S
Cu149  O181    1.969   .     S
Cu149  O182    1.957   .     S
Cu150  O179    1.957   .     S
Cu150  N170    2.040   .     S
Cu150  O184    1.955   .     S
Cu150  O183    1.957   .     S
Cu150  O180    1.969   .     S
H151   C20     1.085   1_655 S
H159   O176    1.014   .     S
H160   O178    1.014   .     S
H162   O172    1.014   .     S
H163   O174    1.014   .     S
C187   C190    1.475   .     S
C187   O242    1.303   .     A
C187   O233    1.312   .     A
C188   C190    1.413   .     A
C188   C199    1.519   .     S
C189   C198    1.475   .     S
C189   C209    1.418   .     A
C189   C210    1.413   .     A
C190   C208    1.418   .     A
C191   N232    1.384   .     A
C191   C200    1.518   .     S
C191   C1309   1.432   1_554 S
C192   N231    1.384   .     A
C192   C201    1.518   .     S
C192   C752    1.432   .     S
C193   N231    1.375   .     A
C193   C202    1.478   .     S
C193   C749    1.432   .     S
C194   C203    1.478   .     S
C194   N232    1.375   .     A
C194   C1308   1.432   1_554 S
C195   C208    1.493   .     S
C195   O248    1.224   .     D
C195   O234    1.397   .     S
C196   C209    1.493   .     S
C196   O236    1.397   .     S
C196   O235    1.224   .     D
C197   H227    1.110   .     S
C197   H226    1.109   .     S
C197   C210    1.519   .     S
C197   H228    1.110   .     S
C198   O243    1.303   .     A
C198   O241    1.312   .     A
C199   H214    1.110   .     S
C199   H229    1.109   .     S
C199   H230    1.110   .     S
C200   H217    1.092   .     S
C200   H216    1.107   .     S
C200   H215    1.110   .     S
C201   H220    1.107   .     S
C201   H218    1.110   .     S
C201   H219    1.092   .     S
C202   O237    1.221   .     D
C202   O238    1.396   .     S
C203   O239    1.221   .     D
C203   O240    1.396   .     S
C204   O246    1.300   .     A
C204   C206    1.433   .     S
C204   O244    1.296   .     A
C205   O245    1.296   .     A
C205   O247    1.300   .     A
C205   C207    1.433   .     S
C206   C331    1.334   1_455 S
C206   H337    1.085   1_455 S
C207   C268    1.334   .     S
C207   H285    1.085   .     S
C209   C374    1.402   .     S
C210   C394    1.402   .     S
Cu211  N231    2.040   .     S
Cu211  O233    1.957   .     S
Cu211  Cu212   2.714   .     S
Cu211  O247    1.955   .     S
Cu211  O243    1.969   .     S
Cu211  O244    1.957   .     S
Cu212  O241    1.957   .     S
Cu212  N232    2.040   .     S
Cu212  O246    1.955   .     S
Cu212  O245    1.957   .     S
Cu212  O242    1.969   .     S
H213   C268    1.085   .     S
H221   O238    1.014   .     S
H222   O240    1.014   .     S
H223   C331    1.085   1_455 S
H224   O234    1.014   .     S
H225   O236    1.014   .     S
C249   C252    1.475   .     S
C249   O304    1.303   .     A
C249   O295    1.312   .     A
C250   C252    1.413   .     A
C250   C261    1.519   .     S
C251   C260    1.475   .     S
C251   C271    1.418   .     A
C251   C272    1.413   .     A
C252   C270    1.418   .     A
C253   N294    1.384   .     A
C253   C262    1.518   .     S
C253   C1371   1.432   1_554 S
C254   N293    1.384   .     A
C254   C263    1.518   .     S
C254   C814    1.432   .     S
C255   N293    1.375   .     A
C255   C264    1.478   .     S
C255   C811    1.432   .     S
C256   C265    1.478   .     S
C256   N294    1.375   .     A
C256   C1370   1.432   1_554 S
C257   C270    1.493   .     S
C257   O310    1.224   .     D
C257   O296    1.397   .     S
C258   C271    1.493   .     S
C258   O298    1.397   .     S
C258   O297    1.224   .     D
C259   H289    1.110   .     S
C259   H288    1.109   .     S
C259   C272    1.519   .     S
C259   H290    1.110   .     S
C260   O305    1.303   .     A
C260   O303    1.312   .     A
C261   H276    1.110   .     S
C261   H291    1.109   .     S
C261   H292    1.110   .     S
C262   H279    1.092   .     S
C262   H278    1.107   .     S
C262   H277    1.110   .     S
C263   H282    1.107   .     S
C263   H280    1.110   .     S
C263   H281    1.092   .     S
C264   O299    1.221   .     D
C264   O300    1.396   .     S
C265   O301    1.221   .     D
C265   O302    1.396   .     S
C266   O308    1.300   .     A
C266   C268    1.433   .     S
C266   O306    1.296   .     A
C267   O307    1.296   .     A
C267   O309    1.300   .     A
C267   C269    1.433   .     S
C269   C330    1.334   .     S
C269   H347    1.085   .     S
C271   C436    1.402   .     S
C272   C456    1.402   .     S
Cu273  N293    2.040   .     S
Cu273  O295    1.957   .     S
Cu273  Cu274   2.714   .     S
Cu273  O309    1.955   .     S
Cu273  O305    1.969   .     S
Cu273  O306    1.957   .     S
Cu274  O303    1.957   .     S
Cu274  N294    2.040   .     S
Cu274  O308    1.955   .     S
Cu274  O307    1.957   .     S
Cu274  O304    1.969   .     S
H275   C330    1.085   .     S
H283   O300    1.014   .     S
H284   O302    1.014   .     S
H286   O296    1.014   .     S
H287   O298    1.014   .     S
C311   C314    1.475   .     S
C311   O366    1.303   .     A
C311   O357    1.312   .     A
C312   C314    1.413   .     A
C312   C323    1.519   .     S
C313   C322    1.475   .     S
C313   C333    1.418   .     A
C313   C334    1.413   .     A
C314   C332    1.418   .     A
C315   N356    1.384   .     A
C315   C324    1.518   .     S
C315   C1433   1.432   1_554 S
C316   N355    1.384   .     A
C316   C325    1.518   .     S
C316   C876    1.432   .     S
C317   N355    1.375   .     A
C317   C326    1.478   .     S
C317   C873    1.432   .     S
C318   C327    1.478   .     S
C318   N356    1.375   .     A
C318   C1432   1.432   1_554 S
C319   C332    1.493   .     S
C319   O372    1.224   .     D
C319   O358    1.397   .     S
C320   C333    1.493   .     S
C320   O360    1.397   .     S
C320   O359    1.224   .     D
C321   H351    1.110   .     S
C321   H350    1.109   .     S
C321   C334    1.519   .     S
C321   H352    1.110   .     S
C322   O367    1.303   .     A
C322   O365    1.312   .     A
C323   H338    1.110   .     S
C323   H353    1.109   .     S
C323   H354    1.110   .     S
C324   H341    1.092   .     S
C324   H340    1.107   .     S
C324   H339    1.110   .     S
C325   H344    1.107   .     S
C325   H342    1.110   .     S
C325   H343    1.092   .     S
C326   O361    1.221   .     D
C326   O362    1.396   .     S
C327   O363    1.221   .     D
C327   O364    1.396   .     S
C328   O370    1.300   .     A
C328   C330    1.433   .     S
C328   O368    1.296   .     A
C329   O369    1.296   .     A
C329   O371    1.300   .     A
C329   C331    1.433   .     S
C331   C206    1.334   1_655 S
C331   H223    1.085   1_655 S
C333   C498    1.402   .     S
C334   C518    1.402   .     S
Cu335  N355    2.040   .     S
Cu335  O357    1.957   .     S
Cu335  Cu336   2.714   .     S
Cu335  O371    1.955   .     S
Cu335  O367    1.969   .     S
Cu335  O368    1.957   .     S
Cu336  O365    1.957   .     S
Cu336  N356    2.040   .     S
Cu336  O370    1.955   .     S
Cu336  O369    1.957   .     S
Cu336  O366    1.969   .     S
H337   C206    1.085   1_655 S
H345   O362    1.014   .     S
H346   O364    1.014   .     S
H348   O358    1.014   .     S
H349   O360    1.014   .     S
C373   C376    1.475   .     S
C373   O428    1.303   .     A
C373   O419    1.312   .     A
C374   C376    1.413   .     A
C374   C385    1.519   .     S
C375   C384    1.475   .     S
C375   C395    1.418   .     A
C375   C396    1.413   .     A
C376   C394    1.418   .     A
C377   N418    1.384   .     A
C377   C386    1.518   .     S
C377   C1495   1.432   1_554 S
C378   N417    1.384   .     A
C378   C387    1.518   .     S
C378   C938    1.432   .     S
C379   N417    1.375   .     A
C379   C388    1.478   .     S
C379   C935    1.432   .     S
C380   C389    1.478   .     S
C380   N418    1.375   .     A
C380   C1494   1.432   1_554 S
C381   C394    1.493   .     S
C381   O434    1.224   .     D
C381   O420    1.397   .     S
C382   C395    1.493   .     S
C382   O422    1.397   .     S
C382   O421    1.224   .     D
C383   H413    1.110   .     S
C383   H412    1.109   .     S
C383   C396    1.519   .     S
C383   H414    1.110   .     S
C384   O429    1.303   .     A
C384   O427    1.312   .     A
C385   H400    1.110   .     S
C385   H415    1.109   .     S
C385   H416    1.110   .     S
C386   H403    1.092   .     S
C386   H402    1.107   .     S
C386   H401    1.110   .     S
C387   H406    1.107   .     S
C387   H404    1.110   .     S
C387   H405    1.092   .     S
C388   O423    1.221   .     D
C388   O424    1.396   .     S
C389   O425    1.221   .     D
C389   O426    1.396   .     S
C390   O432    1.300   .     A
C390   C392    1.433   .     S
C390   O430    1.296   .     A
C391   O431    1.296   .     A
C391   O433    1.300   .     A
C391   C393    1.433   .     S
C392   C517    1.334   1_455 S
C392   H523    1.085   1_455 S
C393   C454    1.334   .     S
C393   H471    1.085   .     S
C395   C2      1.402   1_565 S
C396   C22     1.402   1_565 S
Cu397  N417    2.040   .     S
Cu397  O419    1.957   .     S
Cu397  Cu398   2.714   .     S
Cu397  O433    1.955   .     S
Cu397  O429    1.969   .     S
Cu397  O430    1.957   .     S
Cu398  O427    1.957   .     S
Cu398  N418    2.040   .     S
Cu398  O432    1.955   .     S
Cu398  O431    1.957   .     S
Cu398  O428    1.969   .     S
H399   C454    1.085   .     S
H407   O424    1.014   .     S
H408   O426    1.014   .     S
H409   C517    1.085   1_455 S
H410   O420    1.014   .     S
H411   O422    1.014   .     S
C435   C438    1.475   .     S
C435   O490    1.303   .     A
C435   O481    1.312   .     A
C436   C438    1.413   .     A
C436   C447    1.519   .     S
C437   C446    1.475   .     S
C437   C457    1.418   .     A
C437   C458    1.413   .     A
C438   C456    1.418   .     A
C439   N480    1.384   .     A
C439   C448    1.518   .     S
C439   C1557   1.432   1_554 S
C440   N479    1.384   .     A
C440   C449    1.518   .     S
C440   C1000   1.432   .     S
C441   N479    1.375   .     A
C441   C450    1.478   .     S
C441   C997    1.432   .     S
C442   C451    1.478   .     S
C442   N480    1.375   .     A
C442   C1556   1.432   1_554 S
C443   C456    1.493   .     S
C443   O496    1.224   .     D
C443   O482    1.397   .     S
C444   C457    1.493   .     S
C444   O484    1.397   .     S
C444   O483    1.224   .     D
C445   H475    1.110   .     S
C445   H474    1.109   .     S
C445   C458    1.519   .     S
C445   H476    1.110   .     S
C446   O491    1.303   .     A
C446   O489    1.312   .     A
C447   H462    1.110   .     S
C447   H477    1.109   .     S
C447   H478    1.110   .     S
C448   H465    1.092   .     S
C448   H464    1.107   .     S
C448   H463    1.110   .     S
C449   H468    1.107   .     S
C449   H466    1.110   .     S
C449   H467    1.092   .     S
C450   O485    1.221   .     D
C450   O486    1.396   .     S
C451   O487    1.221   .     D
C451   O488    1.396   .     S
C452   O494    1.300   .     A
C452   C454    1.433   .     S
C452   O492    1.296   .     A
C453   O493    1.296   .     A
C453   O495    1.300   .     A
C453   C455    1.433   .     S
C455   C516    1.334   .     S
C455   H533    1.085   .     S
C457   C64     1.402   1_565 S
C458   C84     1.402   1_565 S
Cu459  N479    2.040   .     S
Cu459  O481    1.957   .     S
Cu459  Cu460   2.714   .     S
Cu459  O495    1.955   .     S
Cu459  O491    1.969   .     S
Cu459  O492    1.957   .     S
Cu460  O489    1.957   .     S
Cu460  N480    2.040   .     S
Cu460  O494    1.955   .     S
Cu460  O493    1.957   .     S
Cu460  O490    1.969   .     S
H461   C516    1.085   .     S
H469   O486    1.014   .     S
H470   O488    1.014   .     S
H472   O482    1.014   .     S
H473   O484    1.014   .     S
C497   C500    1.475   .     S
C497   O552    1.303   .     A
C497   O543    1.312   .     A
C498   C500    1.413   .     A
C498   C509    1.519   .     S
C499   C508    1.475   .     S
C499   C519    1.418   .     A
C499   C520    1.413   .     A
C500   C518    1.418   .     A
C501   N542    1.384   .     A
C501   C510    1.518   .     S
C501   C1619   1.432   1_554 S
C502   N541    1.384   .     A
C502   C511    1.518   .     S
C502   C1062   1.432   .     S
C503   N541    1.375   .     A
C503   C512    1.478   .     S
C503   C1059   1.432   .     S
C504   C513    1.478   .     S
C504   N542    1.375   .     A
C504   C1618   1.432   1_554 S
C505   C518    1.493   .     S
C505   O558    1.224   .     D
C505   O544    1.397   .     S
C506   C519    1.493   .     S
C506   O546    1.397   .     S
C506   O545    1.224   .     D
C507   H537    1.110   .     S
C507   H536    1.109   .     S
C507   C520    1.519   .     S
C507   H538    1.110   .     S
C508   O553    1.303   .     A
C508   O551    1.312   .     A
C509   H524    1.110   .     S
C509   H539    1.109   .     S
C509   H540    1.110   .     S
C510   H527    1.092   .     S
C510   H526    1.107   .     S
C510   H525    1.110   .     S
C511   H530    1.107   .     S
C511   H528    1.110   .     S
C511   H529    1.092   .     S
C512   O547    1.221   .     D
C512   O548    1.396   .     S
C513   O549    1.221   .     D
C513   O550    1.396   .     S
C514   O556    1.300   .     A
C514   C516    1.433   .     S
C514   O554    1.296   .     A
C515   O555    1.296   .     A
C515   O557    1.300   .     A
C515   C517    1.433   .     S
C517   C392    1.334   1_655 S
C517   H409    1.085   1_655 S
C519   C126    1.402   1_565 S
C520   C146    1.402   1_565 S
Cu521  N541    2.040   .     S
Cu521  O543    1.957   .     S
Cu521  Cu522   2.714   .     S
Cu521  O557    1.955   .     S
Cu521  O553    1.969   .     S
Cu521  O554    1.957   .     S
Cu522  O551    1.957   .     S
Cu522  N542    2.040   .     S
Cu522  O556    1.955   .     S
Cu522  O555    1.957   .     S
Cu522  O552    1.969   .     S
H523   C392    1.085   1_655 S
H531   O548    1.014   .     S
H532   O550    1.014   .     S
H534   O544    1.014   .     S
H535   O546    1.014   .     S
C559   C562    1.475   .     S
C559   O614    1.303   .     A
C559   O605    1.312   .     A
C560   C562    1.413   .     A
C560   C571    1.519   .     S
C560   C953    1.402   1_545 S
C561   C570    1.475   .     S
C561   C581    1.418   .     A
C561   C582    1.413   .     A
C562   C580    1.418   .     A
C563   N604    1.384   .     A
C563   C572    1.518   .     S
C564   N603    1.384   .     A
C564   C573    1.518   .     S
C564   C1124   1.432   .     S
C565   N603    1.375   .     A
C565   C574    1.478   .     S
C565   C1121   1.432   .     S
C566   C575    1.478   .     S
C566   N604    1.375   .     A
C567   C580    1.493   .     S
C567   O620    1.224   .     D
C567   O606    1.397   .     S
C568   C581    1.493   .     S
C568   O608    1.397   .     S
C568   O607    1.224   .     D
C569   H599    1.110   .     S
C569   H598    1.109   .     S
C569   C582    1.519   .     S
C569   H600    1.110   .     S
C570   O615    1.303   .     A
C570   O613    1.312   .     A
C571   H586    1.110   .     S
C571   H601    1.109   .     S
C571   H602    1.110   .     S
C572   H589    1.092   .     S
C572   H588    1.107   .     S
C572   H587    1.110   .     S
C573   H592    1.107   .     S
C573   H590    1.110   .     S
C573   H591    1.092   .     S
C574   O609    1.221   .     D
C574   O610    1.396   .     S
C575   O611    1.221   .     D
C575   O612    1.396   .     S
C576   O618    1.300   .     A
C576   C578    1.433   .     S
C576   O616    1.296   .     A
C577   O617    1.296   .     A
C577   O619    1.300   .     A
C577   C579    1.433   .     S
C578   C703    1.334   1_455 S
C578   H709    1.085   1_455 S
C579   C640    1.334   .     S
C579   H657    1.085   .     S
C580   C954    1.402   1_545 S
C581   C746    1.402   .     S
C582   C766    1.402   .     S
Cu583  N603    2.040   .     S
Cu583  O605    1.957   .     S
Cu583  Cu584   2.714   .     S
Cu583  O619    1.955   .     S
Cu583  O615    1.969   .     S
Cu583  O616    1.957   .     S
Cu584  O613    1.957   .     S
Cu584  N604    2.040   .     S
Cu584  O618    1.955   .     S
Cu584  O617    1.957   .     S
Cu584  O614    1.969   .     S
H585   C640    1.085   .     S
H593   O610    1.014   .     S
H594   O612    1.014   .     S
H595   C703    1.085   1_455 S
H596   O606    1.014   .     S
H597   O608    1.014   .     S
C621   C624    1.475   .     S
C621   O676    1.303   .     A
C621   O667    1.312   .     A
C622   C624    1.413   .     A
C622   C633    1.519   .     S
C622   C1015   1.402   1_545 S
C623   C632    1.475   .     S
C623   C643    1.418   .     A
C623   C644    1.413   .     A
C624   C642    1.418   .     A
C625   N666    1.384   .     A
C625   C634    1.518   .     S
C626   N665    1.384   .     A
C626   C635    1.518   .     S
C626   C1186   1.432   .     S
C627   N665    1.375   .     A
C627   C636    1.478   .     S
C627   C1183   1.432   .     S
C628   C637    1.478   .     S
C628   N666    1.375   .     A
C629   C642    1.493   .     S
C629   O682    1.224   .     D
C629   O668    1.397   .     S
C630   C643    1.493   .     S
C630   O670    1.397   .     S
C630   O669    1.224   .     D
C631   H661    1.110   .     S
C631   H660    1.109   .     S
C631   C644    1.519   .     S
C631   H662    1.110   .     S
C632   O677    1.303   .     A
C632   O675    1.312   .     A
C633   H648    1.110   .     S
C633   H663    1.109   .     S
C633   H664    1.110   .     S
C634   H651    1.092   .     S
C634   H650    1.107   .     S
C634   H649    1.110   .     S
C635   H654    1.107   .     S
C635   H652    1.110   .     S
C635   H653    1.092   .     S
C636   O671    1.221   .     D
C636   O672    1.396   .     S
C637   O673    1.221   .     D
C637   O674    1.396   .     S
C638   O680    1.300   .     A
C638   C640    1.433   .     S
C638   O678    1.296   .     A
C639   O679    1.296   .     A
C639   O681    1.300   .     A
C639   C641    1.433   .     S
C641   C702    1.334   .     S
C641   H719    1.085   .     S
C642   C1016   1.402   1_545 S
C643   C808    1.402   .     S
C644   C828    1.402   .     S
Cu645  N665    2.040   .     S
Cu645  O667    1.957   .     S
Cu645  Cu646   2.714   .     S
Cu645  O681    1.955   .     S
Cu645  O677    1.969   .     S
Cu645  O678    1.957   .     S
Cu646  O675    1.957   .     S
Cu646  N666    2.040   .     S
Cu646  O680    1.955   .     S
Cu646  O679    1.957   .     S
Cu646  O676    1.969   .     S
H647   C702    1.085   .     S
H655   O672    1.014   .     S
H656   O674    1.014   .     S
H658   O668    1.014   .     S
H659   O670    1.014   .     S
C683   C686    1.475   .     S
C683   O738    1.303   .     A
C683   O729    1.312   .     A
C684   C686    1.413   .     A
C684   C695    1.519   .     S
C684   C1077   1.402   1_545 S
C685   C694    1.475   .     S
C685   C705    1.418   .     A
C685   C706    1.413   .     A
C686   C704    1.418   .     A
C687   N728    1.384   .     A
C687   C696    1.518   .     S
C688   N727    1.384   .     A
C688   C697    1.518   .     S
C688   C1248   1.432   .     S
C689   N727    1.375   .     A
C689   C698    1.478   .     S
C689   C1245   1.432   .     S
C690   C699    1.478   .     S
C690   N728    1.375   .     A
C691   C704    1.493   .     S
C691   O744    1.224   .     D
C691   O730    1.397   .     S
C692   C705    1.493   .     S
C692   O732    1.397   .     S
C692   O731    1.224   .     D
C693   H723    1.110   .     S
C693   H722    1.109   .     S
C693   C706    1.519   .     S
C693   H724    1.110   .     S
C694   O739    1.303   .     A
C694   O737    1.312   .     A
C695   H710    1.110   .     S
C695   H725    1.109   .     S
C695   H726    1.110   .     S
C696   H713    1.092   .     S
C696   H712    1.107   .     S
C696   H711    1.110   .     S
C697   H716    1.107   .     S
C697   H714    1.110   .     S
C697   H715    1.092   .     S
C698   O733    1.221   .     D
C698   O734    1.396   .     S
C699   O735    1.221   .     D
C699   O736    1.396   .     S
C700   O742    1.300   .     A
C700   C702    1.433   .     S
C700   O740    1.296   .     A
C701   O741    1.296   .     A
C701   O743    1.300   .     A
C701   C703    1.433   .     S
C703   C578    1.334   1_655 S
C703   H595    1.085   1_655 S
C704   C1078   1.402   1_545 S
C705   C870    1.402   .     S
C706   C890    1.402   .     S
Cu707  N727    2.040   .     S
Cu707  O729    1.957   .     S
Cu707  Cu708   2.714   .     S
Cu707  O743    1.955   .     S
Cu707  O739    1.969   .     S
Cu707  O740    1.957   .     S
Cu708  O737    1.957   .     S
Cu708  N728    2.040   .     S
Cu708  O742    1.955   .     S
Cu708  O741    1.957   .     S
Cu708  O738    1.969   .     S
H709   C578    1.085   1_655 S
H717   O734    1.014   .     S
H718   O736    1.014   .     S
H720   O730    1.014   .     S
H721   O732    1.014   .     S
C745   C748    1.475   .     S
C745   O800    1.303   .     A
C745   O791    1.312   .     A
C746   C748    1.413   .     A
C746   C757    1.519   .     S
C747   C756    1.475   .     S
C747   C767    1.418   .     A
C747   C768    1.413   .     A
C748   C766    1.418   .     A
C749   N790    1.384   .     A
C749   C758    1.518   .     S
C750   N789    1.384   .     A
C750   C759    1.518   .     S
C750   C1310   1.432   .     S
C751   N789    1.375   .     A
C751   C760    1.478   .     S
C751   C1307   1.432   .     S
C752   C761    1.478   .     S
C752   N790    1.375   .     A
C753   C766    1.493   .     S
C753   O806    1.224   .     D
C753   O792    1.397   .     S
C754   C767    1.493   .     S
C754   O794    1.397   .     S
C754   O793    1.224   .     D
C755   H785    1.110   .     S
C755   H784    1.109   .     S
C755   C768    1.519   .     S
C755   H786    1.110   .     S
C756   O801    1.303   .     A
C756   O799    1.312   .     A
C757   H772    1.110   .     S
C757   H787    1.109   .     S
C757   H788    1.110   .     S
C758   H775    1.092   .     S
C758   H774    1.107   .     S
C758   H773    1.110   .     S
C759   H778    1.107   .     S
C759   H776    1.110   .     S
C759   H777    1.092   .     S
C760   O795    1.221   .     D
C760   O796    1.396   .     S
C761   O797    1.221   .     D
C761   O798    1.396   .     S
C762   O804    1.300   .     A
C762   C764    1.433   .     S
C762   O802    1.296   .     A
C763   O803    1.296   .     A
C763   O805    1.300   .     A
C763   C765    1.433   .     S
C764   C889    1.334   1_455 S
C764   H895    1.085   1_455 S
C765   C826    1.334   .     S
C765   H843    1.085   .     S
C767   C932    1.402   .     S
C768   C952    1.402   .     S
Cu769  N789    2.040   .     S
Cu769  O791    1.957   .     S
Cu769  Cu770   2.714   .     S
Cu769  O805    1.955   .     S
Cu769  O801    1.969   .     S
Cu769  O802    1.957   .     S
Cu770  O799    1.957   .     S
Cu770  N790    2.040   .     S
Cu770  O804    1.955   .     S
Cu770  O803    1.957   .     S
Cu770  O800    1.969   .     S
H771   C826    1.085   .     S
H779   O796    1.014   .     S
H780   O798    1.014   .     S
H781   C889    1.085   1_455 S
H782   O792    1.014   .     S
H783   O794    1.014   .     S
C807   C810    1.475   .     S
C807   O862    1.303   .     A
C807   O853    1.312   .     A
C808   C810    1.413   .     A
C808   C819    1.519   .     S
C809   C818    1.475   .     S
C809   C829    1.418   .     A
C809   C830    1.413   .     A
C810   C828    1.418   .     A
C811   N852    1.384   .     A
C811   C820    1.518   .     S
C812   N851    1.384   .     A
C812   C821    1.518   .     S
C812   C1372   1.432   .     S
C813   N851    1.375   .     A
C813   C822    1.478   .     S
C813   C1369   1.432   .     S
C814   C823    1.478   .     S
C814   N852    1.375   .     A
C815   C828    1.493   .     S
C815   O868    1.224   .     D
C815   O854    1.397   .     S
C816   C829    1.493   .     S
C816   O856    1.397   .     S
C816   O855    1.224   .     D
C817   H847    1.110   .     S
C817   H846    1.109   .     S
C817   C830    1.519   .     S
C817   H848    1.110   .     S
C818   O863    1.303   .     A
C818   O861    1.312   .     A
C819   H834    1.110   .     S
C819   H849    1.109   .     S
C819   H850    1.110   .     S
C820   H837    1.092   .     S
C820   H836    1.107   .     S
C820   H835    1.110   .     S
C821   H840    1.107   .     S
C821   H838    1.110   .     S
C821   H839    1.092   .     S
C822   O857    1.221   .     D
C822   O858    1.396   .     S
C823   O859    1.221   .     D
C823   O860    1.396   .     S
C824   O866    1.300   .     A
C824   C826    1.433   .     S
C824   O864    1.296   .     A
C825   O865    1.296   .     A
C825   O867    1.300   .     A
C825   C827    1.433   .     S
C827   C888    1.334   .     S
C827   H905    1.085   .     S
C829   C994    1.402   .     S
C830   C1014   1.402   .     S
Cu831  N851    2.040   .     S
Cu831  O853    1.957   .     S
Cu831  Cu832   2.714   .     S
Cu831  O867    1.955   .     S
Cu831  O863    1.969   .     S
Cu831  O864    1.957   .     S
Cu832  O861    1.957   .     S
Cu832  N852    2.040   .     S
Cu832  O866    1.955   .     S
Cu832  O865    1.957   .     S
Cu832  O862    1.969   .     S
H833   C888    1.085   .     S
H841   O858    1.014   .     S
H842   O860    1.014   .     S
H844   O854    1.014   .     S
H845   O856    1.014   .     S
C869   C872    1.475   .     S
C869   O924    1.303   .     A
C869   O915    1.312   .     A
C870   C872    1.413   .     A
C870   C881    1.519   .     S
C871   C880    1.475   .     S
C871   C891    1.418   .     A
C871   C892    1.413   .     A
C872   C890    1.418   .     A
C873   N914    1.384   .     A
C873   C882    1.518   .     S
C874   N913    1.384   .     A
C874   C883    1.518   .     S
C874   C1434   1.432   .     S
C875   N913    1.375   .     A
C875   C884    1.478   .     S
C875   C1431   1.432   .     S
C876   C885    1.478   .     S
C876   N914    1.375   .     A
C877   C890    1.493   .     S
C877   O930    1.224   .     D
C877   O916    1.397   .     S
C878   C891    1.493   .     S
C878   O918    1.397   .     S
C878   O917    1.224   .     D
C879   H909    1.110   .     S
C879   H908    1.109   .     S
C879   C892    1.519   .     S
C879   H910    1.110   .     S
C880   O925    1.303   .     A
C880   O923    1.312   .     A
C881   H896    1.110   .     S
C881   H911    1.109   .     S
C881   H912    1.110   .     S
C882   H899    1.092   .     S
C882   H898    1.107   .     S
C882   H897    1.110   .     S
C883   H902    1.107   .     S
C883   H900    1.110   .     S
C883   H901    1.092   .     S
C884   O919    1.221   .     D
C884   O920    1.396   .     S
C885   O921    1.221   .     D
C885   O922    1.396   .     S
C886   O928    1.300   .     A
C886   C888    1.433   .     S
C886   O926    1.296   .     A
C887   O927    1.296   .     A
C887   O929    1.300   .     A
C887   C889    1.433   .     S
C889   C764    1.334   1_655 S
C889   H781    1.085   1_655 S
C891   C1056   1.402   .     S
C892   C1076   1.402   .     S
Cu893  N913    2.040   .     S
Cu893  O915    1.957   .     S
Cu893  Cu894   2.714   .     S
Cu893  O929    1.955   .     S
Cu893  O925    1.969   .     S
Cu893  O926    1.957   .     S
Cu894  O923    1.957   .     S
Cu894  N914    2.040   .     S
Cu894  O928    1.955   .     S
Cu894  O927    1.957   .     S
Cu894  O924    1.969   .     S
H895   C764    1.085   1_655 S
H903   O920    1.014   .     S
H904   O922    1.014   .     S
H906   O916    1.014   .     S
H907   O918    1.014   .     S
C931   C934    1.475   .     S
C931   O986    1.303   .     A
C931   O977    1.312   .     A
C932   C934    1.413   .     A
C932   C943    1.519   .     S
C933   C942    1.475   .     S
C933   C953    1.418   .     A
C933   C954    1.413   .     A
C934   C952    1.418   .     A
C935   N976    1.384   .     A
C935   C944    1.518   .     S
C936   N975    1.384   .     A
C936   C945    1.518   .     S
C936   C1496   1.432   .     S
C937   N975    1.375   .     A
C937   C946    1.478   .     S
C937   C1493   1.432   .     S
C938   C947    1.478   .     S
C938   N976    1.375   .     A
C939   C952    1.493   .     S
C939   O992    1.224   .     D
C939   O978    1.397   .     S
C940   C953    1.493   .     S
C940   O980    1.397   .     S
C940   O979    1.224   .     D
C941   H971    1.110   .     S
C941   H970    1.109   .     S
C941   C954    1.519   .     S
C941   H972    1.110   .     S
C942   O987    1.303   .     A
C942   O985    1.312   .     A
C943   H958    1.110   .     S
C943   H973    1.109   .     S
C943   H974    1.110   .     S
C944   H961    1.092   .     S
C944   H960    1.107   .     S
C944   H959    1.110   .     S
C945   H964    1.107   .     S
C945   H962    1.110   .     S
C945   H963    1.092   .     S
C946   O981    1.221   .     D
C946   O982    1.396   .     S
C947   O983    1.221   .     D
C947   O984    1.396   .     S
C948   O990    1.300   .     A
C948   C950    1.433   .     S
C948   O988    1.296   .     A
C949   O989    1.296   .     A
C949   O991    1.300   .     A
C949   C951    1.433   .     S
C950   C1075   1.334   1_455 S
C950   H1081   1.085   1_455 S
C951   C1012   1.334   .     S
C951   H1029   1.085   .     S
C953   C560    1.402   1_565 S
C954   C580    1.402   1_565 S
Cu955  N975    2.040   .     S
Cu955  O977    1.957   .     S
Cu955  Cu956   2.714   .     S
Cu955  O991    1.955   .     S
Cu955  O987    1.969   .     S
Cu955  O988    1.957   .     S
Cu956  O985    1.957   .     S
Cu956  N976    2.040   .     S
Cu956  O990    1.955   .     S
Cu956  O989    1.957   .     S
Cu956  O986    1.969   .     S
H957   C1012   1.085   .     S
H965   O982    1.014   .     S
H966   O984    1.014   .     S
H967   C1075   1.085   1_455 S
H968   O978    1.014   .     S
H969   O980    1.014   .     S
C993   C996    1.475   .     S
C993   O1048   1.303   .     A
C993   O1039   1.312   .     A
C994   C996    1.413   .     A
C994   C1005   1.519   .     S
C995   C1004   1.475   .     S
C995   C1015   1.418   .     A
C995   C1016   1.413   .     A
C996   C1014   1.418   .     A
C997   N1038   1.384   .     A
C997   C1006   1.518   .     S
C998   N1037   1.384   .     A
C998   C1007   1.518   .     S
C998   C1558   1.432   .     S
C999   N1037   1.375   .     A
C999   C1008   1.478   .     S
C999   C1555   1.432   .     S
C1000  C1009   1.478   .     S
C1000  N1038   1.375   .     A
C1001  C1014   1.493   .     S
C1001  O1054   1.224   .     D
C1001  O1040   1.397   .     S
C1002  C1015   1.493   .     S
C1002  O1042   1.397   .     S
C1002  O1041   1.224   .     D
C1003  H1033   1.110   .     S
C1003  H1032   1.109   .     S
C1003  C1016   1.519   .     S
C1003  H1034   1.110   .     S
C1004  O1049   1.303   .     A
C1004  O1047   1.312   .     A
C1005  H1020   1.110   .     S
C1005  H1035   1.109   .     S
C1005  H1036   1.110   .     S
C1006  H1023   1.092   .     S
C1006  H1022   1.107   .     S
C1006  H1021   1.110   .     S
C1007  H1026   1.107   .     S
C1007  H1024   1.110   .     S
C1007  H1025   1.092   .     S
C1008  O1043   1.221   .     D
C1008  O1044   1.396   .     S
C1009  O1045   1.221   .     D
C1009  O1046   1.396   .     S
C1010  O1052   1.300   .     A
C1010  C1012   1.433   .     S
C1010  O1050   1.296   .     A
C1011  O1051   1.296   .     A
C1011  O1053   1.300   .     A
C1011  C1013   1.433   .     S
C1013  C1074   1.334   .     S
C1013  H1091   1.085   .     S
C1015  C622    1.402   1_565 S
C1016  C642    1.402   1_565 S
Cu1017 N1037   2.040   .     S
Cu1017 O1039   1.957   .     S
Cu1017 Cu1018  2.714   .     S
Cu1017 O1053   1.955   .     S
Cu1017 O1049   1.969   .     S
Cu1017 O1050   1.957   .     S
Cu1018 O1047   1.957   .     S
Cu1018 N1038   2.040   .     S
Cu1018 O1052   1.955   .     S
Cu1018 O1051   1.957   .     S
Cu1018 O1048   1.969   .     S
H1019  C1074   1.085   .     S
H1027  O1044   1.014   .     S
H1028  O1046   1.014   .     S
H1030  O1040   1.014   .     S
H1031  O1042   1.014   .     S
C1055  C1058   1.475   .     S
C1055  O1110   1.303   .     A
C1055  O1101   1.312   .     A
C1056  C1058   1.413   .     A
C1056  C1067   1.519   .     S
C1057  C1066   1.475   .     S
C1057  C1077   1.418   .     A
C1057  C1078   1.413   .     A
C1058  C1076   1.418   .     A
C1059  N1100   1.384   .     A
C1059  C1068   1.518   .     S
C1060  N1099   1.384   .     A
C1060  C1069   1.518   .     S
C1060  C1620   1.432   .     S
C1061  N1099   1.375   .     A
C1061  C1070   1.478   .     S
C1061  C1617   1.432   .     S
C1062  C1071   1.478   .     S
C1062  N1100   1.375   .     A
C1063  C1076   1.493   .     S
C1063  O1116   1.224   .     D
C1063  O1102   1.397   .     S
C1064  C1077   1.493   .     S
C1064  O1104   1.397   .     S
C1064  O1103   1.224   .     D
C1065  H1095   1.110   .     S
C1065  H1094   1.109   .     S
C1065  C1078   1.519   .     S
C1065  H1096   1.110   .     S
C1066  O1111   1.303   .     A
C1066  O1109   1.312   .     A
C1067  H1082   1.110   .     S
C1067  H1097   1.109   .     S
C1067  H1098   1.110   .     S
C1068  H1085   1.092   .     S
C1068  H1084   1.107   .     S
C1068  H1083   1.110   .     S
C1069  H1088   1.107   .     S
C1069  H1086   1.110   .     S
C1069  H1087   1.092   .     S
C1070  O1105   1.221   .     D
C1070  O1106   1.396   .     S
C1071  O1107   1.221   .     D
C1071  O1108   1.396   .     S
C1072  O1114   1.300   .     A
C1072  C1074   1.433   .     S
C1072  O1112   1.296   .     A
C1073  O1113   1.296   .     A
C1073  O1115   1.300   .     A
C1073  C1075   1.433   .     S
C1075  C950    1.334   1_655 S
C1075  H967    1.085   1_655 S
C1077  C684    1.402   1_565 S
C1078  C704    1.402   1_565 S
Cu1079 N1099   2.040   .     S
Cu1079 O1101   1.957   .     S
Cu1079 Cu1080  2.714   .     S
Cu1079 O1115   1.955   .     S
Cu1079 O1111   1.969   .     S
Cu1079 O1112   1.957   .     S
Cu1080 O1109   1.957   .     S
Cu1080 N1100   2.040   .     S
Cu1080 O1114   1.955   .     S
Cu1080 O1113   1.957   .     S
Cu1080 O1110   1.969   .     S
H1081  C950    1.085   1_655 S
H1089  O1106   1.014   .     S
H1090  O1108   1.014   .     S
H1092  O1102   1.014   .     S
H1093  O1104   1.014   .     S
C1117  C1120   1.475   .     S
C1117  O1172   1.303   .     A
C1117  O1163   1.312   .     A
C1118  C1120   1.413   .     A
C1118  C1129   1.519   .     S
C1118  C1511   1.402   1_545 S
C1119  C1128   1.475   .     S
C1119  C1139   1.418   .     A
C1119  C1140   1.413   .     A
C1120  C1138   1.418   .     A
C1121  N1162   1.384   .     A
C1121  C1130   1.518   .     S
C1122  N1161   1.384   .     A
C1122  C1131   1.518   .     S
C1122  C8      1.432   1_556 S
C1123  N1161   1.375   .     A
C1123  C1132   1.478   .     S
C1123  C5      1.432   1_556 S
C1124  C1133   1.478   .     S
C1124  N1162   1.375   .     A
C1125  C1138   1.493   .     S
C1125  O1178   1.224   .     D
C1125  O1164   1.397   .     S
C1126  C1139   1.493   .     S
C1126  O1166   1.397   .     S
C1126  O1165   1.224   .     D
C1127  H1157   1.110   .     S
C1127  H1156   1.109   .     S
C1127  C1140   1.519   .     S
C1127  H1158   1.110   .     S
C1128  O1173   1.303   .     A
C1128  O1171   1.312   .     A
C1129  H1144   1.110   .     S
C1129  H1159   1.109   .     S
C1129  H1160   1.110   .     S
C1130  H1147   1.092   .     S
C1130  H1146   1.107   .     S
C1130  H1145   1.110   .     S
C1131  H1150   1.107   .     S
C1131  H1148   1.110   .     S
C1131  H1149   1.092   .     S
C1132  O1167   1.221   .     D
C1132  O1168   1.396   .     S
C1133  O1169   1.221   .     D
C1133  O1170   1.396   .     S
C1134  O1176   1.300   .     A
C1134  C1136   1.433   .     S
C1134  O1174   1.296   .     A
C1135  O1175   1.296   .     A
C1135  O1177   1.300   .     A
C1135  C1137   1.433   .     S
C1136  C1261   1.334   1_455 S
C1136  H1267   1.085   1_455 S
C1137  C1198   1.334   .     S
C1137  H1215   1.085   .     S
C1138  C1512   1.402   1_545 S
C1139  C1304   1.402   .     S
C1140  C1324   1.402   .     S
Cu1141 N1161   2.040   .     S
Cu1141 O1163   1.957   .     S
Cu1141 Cu1142  2.714   .     S
Cu1141 O1177   1.955   .     S
Cu1141 O1173   1.969   .     S
Cu1141 O1174   1.957   .     S
Cu1142 O1171   1.957   .     S
Cu1142 N1162   2.040   .     S
Cu1142 O1176   1.955   .     S
Cu1142 O1175   1.957   .     S
Cu1142 O1172   1.969   .     S
H1143  C1198   1.085   .     S
H1151  O1168   1.014   .     S
H1152  O1170   1.014   .     S
H1153  C1261   1.085   1_455 S
H1154  O1164   1.014   .     S
H1155  O1166   1.014   .     S
C1179  C1182   1.475   .     S
C1179  O1234   1.303   .     A
C1179  O1225   1.312   .     A
C1180  C1182   1.413   .     A
C1180  C1191   1.519   .     S
C1180  C1573   1.402   1_545 S
C1181  C1190   1.475   .     S
C1181  C1201   1.418   .     A
C1181  C1202   1.413   .     A
C1182  C1200   1.418   .     A
C1183  N1224   1.384   .     A
C1183  C1192   1.518   .     S
C1184  N1223   1.384   .     A
C1184  C1193   1.518   .     S
C1184  C70     1.432   1_556 S
C1185  N1223   1.375   .     A
C1185  C1194   1.478   .     S
C1185  C67     1.432   1_556 S
C1186  C1195   1.478   .     S
C1186  N1224   1.375   .     A
C1187  C1200   1.493   .     S
C1187  O1240   1.224   .     D
C1187  O1226   1.397   .     S
C1188  C1201   1.493   .     S
C1188  O1228   1.397   .     S
C1188  O1227   1.224   .     D
C1189  H1219   1.110   .     S
C1189  H1218   1.109   .     S
C1189  C1202   1.519   .     S
C1189  H1220   1.110   .     S
C1190  O1235   1.303   .     A
C1190  O1233   1.312   .     A
C1191  H1206   1.110   .     S
C1191  H1221   1.109   .     S
C1191  H1222   1.110   .     S
C1192  H1209   1.092   .     S
C1192  H1208   1.107   .     S
C1192  H1207   1.110   .     S
C1193  H1212   1.107   .     S
C1193  H1210   1.110   .     S
C1193  H1211   1.092   .     S
C1194  O1229   1.221   .     D
C1194  O1230   1.396   .     S
C1195  O1231   1.221   .     D
C1195  O1232   1.396   .     S
C1196  O1238   1.300   .     A
C1196  C1198   1.433   .     S
C1196  O1236   1.296   .     A
C1197  O1237   1.296   .     A
C1197  O1239   1.300   .     A
C1197  C1199   1.433   .     S
C1199  C1260   1.334   .     S
C1199  H1277   1.085   .     S
C1200  C1574   1.402   1_545 S
C1201  C1366   1.402   .     S
C1202  C1386   1.402   .     S
Cu1203 N1223   2.040   .     S
Cu1203 O1225   1.957   .     S
Cu1203 Cu1204  2.714   .     S
Cu1203 O1239   1.955   .     S
Cu1203 O1235   1.969   .     S
Cu1203 O1236   1.957   .     S
Cu1204 O1233   1.957   .     S
Cu1204 N1224   2.040   .     S
Cu1204 O1238   1.955   .     S
Cu1204 O1237   1.957   .     S
Cu1204 O1234   1.969   .     S
H1205  C1260   1.085   .     S
H1213  O1230   1.014   .     S
H1214  O1232   1.014   .     S
H1216  O1226   1.014   .     S
H1217  O1228   1.014   .     S
C1241  C1244   1.475   .     S
C1241  O1296   1.303   .     A
C1241  O1287   1.312   .     A
C1242  C1244   1.413   .     A
C1242  C1253   1.519   .     S
C1242  C1635   1.402   1_545 S
C1243  C1252   1.475   .     S
C1243  C1263   1.418   .     A
C1243  C1264   1.413   .     A
C1244  C1262   1.418   .     A
C1245  N1286   1.384   .     A
C1245  C1254   1.518   .     S
C1246  N1285   1.384   .     A
C1246  C1255   1.518   .     S
C1246  C132    1.432   1_556 S
C1247  N1285   1.375   .     A
C1247  C1256   1.478   .     S
C1247  C129    1.432   1_556 S
C1248  C1257   1.478   .     S
C1248  N1286   1.375   .     A
C1249  C1262   1.493   .     S
C1249  O1302   1.224   .     D
C1249  O1288   1.397   .     S
C1250  C1263   1.493   .     S
C1250  O1290   1.397   .     S
C1250  O1289   1.224   .     D
C1251  H1281   1.110   .     S
C1251  H1280   1.109   .     S
C1251  C1264   1.519   .     S
C1251  H1282   1.110   .     S
C1252  O1297   1.303   .     A
C1252  O1295   1.312   .     A
C1253  H1268   1.110   .     S
C1253  H1283   1.109   .     S
C1253  H1284   1.110   .     S
C1254  H1271   1.092   .     S
C1254  H1270   1.107   .     S
C1254  H1269   1.110   .     S
C1255  H1274   1.107   .     S
C1255  H1272   1.110   .     S
C1255  H1273   1.092   .     S
C1256  O1291   1.221   .     D
C1256  O1292   1.396   .     S
C1257  O1293   1.221   .     D
C1257  O1294   1.396   .     S
C1258  O1300   1.300   .     A
C1258  C1260   1.433   .     S
C1258  O1298   1.296   .     A
C1259  O1299   1.296   .     A
C1259  O1301   1.300   .     A
C1259  C1261   1.433   .     S
C1261  C1136   1.334   1_655 S
C1261  H1153   1.085   1_655 S
C1262  C1636   1.402   1_545 S
C1263  C1428   1.402   .     S
C1264  C1448   1.402   .     S
Cu1265 N1285   2.040   .     S
Cu1265 O1287   1.957   .     S
Cu1265 Cu1266  2.714   .     S
Cu1265 O1301   1.955   .     S
Cu1265 O1297   1.969   .     S
Cu1265 O1298   1.957   .     S
Cu1266 O1295   1.957   .     S
Cu1266 N1286   2.040   .     S
Cu1266 O1300   1.955   .     S
Cu1266 O1299   1.957   .     S
Cu1266 O1296   1.969   .     S
H1267  C1136   1.085   1_655 S
H1275  O1292   1.014   .     S
H1276  O1294   1.014   .     S
H1278  O1288   1.014   .     S
H1279  O1290   1.014   .     S
C1303  C1306   1.475   .     S
C1303  O1358   1.303   .     A
C1303  O1349   1.312   .     A
C1304  C1306   1.413   .     A
C1304  C1315   1.519   .     S
C1305  C1314   1.475   .     S
C1305  C1325   1.418   .     A
C1305  C1326   1.413   .     A
C1306  C1324   1.418   .     A
C1307  N1348   1.384   .     A
C1307  C1316   1.518   .     S
C1308  N1347   1.384   .     A
C1308  C1317   1.518   .     S
C1308  C194    1.432   1_556 S
C1309  N1347   1.375   .     A
C1309  C1318   1.478   .     S
C1309  C191    1.432   1_556 S
C1310  C1319   1.478   .     S
C1310  N1348   1.375   .     A
C1311  C1324   1.493   .     S
C1311  O1364   1.224   .     D
C1311  O1350   1.397   .     S
C1312  C1325   1.493   .     S
C1312  O1352   1.397   .     S
C1312  O1351   1.224   .     D
C1313  H1343   1.110   .     S
C1313  H1342   1.109   .     S
C1313  C1326   1.519   .     S
C1313  H1344   1.110   .     S
C1314  O1359   1.303   .     A
C1314  O1357   1.312   .     A
C1315  H1330   1.110   .     S
C1315  H1345   1.109   .     S
C1315  H1346   1.110   .     S
C1316  H1333   1.092   .     S
C1316  H1332   1.107   .     S
C1316  H1331   1.110   .     S
C1317  H1336   1.107   .     S
C1317  H1334   1.110   .     S
C1317  H1335   1.092   .     S
C1318  O1353   1.221   .     D
C1318  O1354   1.396   .     S
C1319  O1355   1.221   .     D
C1319  O1356   1.396   .     S
C1320  O1362   1.300   .     A
C1320  C1322   1.433   .     S
C1320  O1360   1.296   .     A
C1321  O1361   1.296   .     A
C1321  O1363   1.300   .     A
C1321  C1323   1.433   .     S
C1322  C1447   1.334   1_455 S
C1322  H1453   1.085   1_455 S
C1323  C1384   1.334   .     S
C1323  H1401   1.085   .     S
C1325  C1490   1.402   .     S
C1326  C1510   1.402   .     S
Cu1327 N1347   2.040   .     S
Cu1327 O1349   1.957   .     S
Cu1327 Cu1328  2.714   .     S
Cu1327 O1363   1.955   .     S
Cu1327 O1359   1.969   .     S
Cu1327 O1360   1.957   .     S
Cu1328 O1357   1.957   .     S
Cu1328 N1348   2.040   .     S
Cu1328 O1362   1.955   .     S
Cu1328 O1361   1.957   .     S
Cu1328 O1358   1.969   .     S
H1329  C1384   1.085   .     S
H1337  O1354   1.014   .     S
H1338  O1356   1.014   .     S
H1339  C1447   1.085   1_455 S
H1340  O1350   1.014   .     S
H1341  O1352   1.014   .     S
C1365  C1368   1.475   .     S
C1365  O1420   1.303   .     A
C1365  O1411   1.312   .     A
C1366  C1368   1.413   .     A
C1366  C1377   1.519   .     S
C1367  C1376   1.475   .     S
C1367  C1387   1.418   .     A
C1367  C1388   1.413   .     A
C1368  C1386   1.418   .     A
C1369  N1410   1.384   .     A
C1369  C1378   1.518   .     S
C1370  N1409   1.384   .     A
C1370  C1379   1.518   .     S
C1370  C256    1.432   1_556 S
C1371  N1409   1.375   .     A
C1371  C1380   1.478   .     S
C1371  C253    1.432   1_556 S
C1372  C1381   1.478   .     S
C1372  N1410   1.375   .     A
C1373  C1386   1.493   .     S
C1373  O1426   1.224   .     D
C1373  O1412   1.397   .     S
C1374  C1387   1.493   .     S
C1374  O1414   1.397   .     S
C1374  O1413   1.224   .     D
C1375  H1405   1.110   .     S
C1375  H1404   1.109   .     S
C1375  C1388   1.519   .     S
C1375  H1406   1.110   .     S
C1376  O1421   1.303   .     A
C1376  O1419   1.312   .     A
C1377  H1392   1.110   .     S
C1377  H1407   1.109   .     S
C1377  H1408   1.110   .     S
C1378  H1395   1.092   .     S
C1378  H1394   1.107   .     S
C1378  H1393   1.110   .     S
C1379  H1398   1.107   .     S
C1379  H1396   1.110   .     S
C1379  H1397   1.092   .     S
C1380  O1415   1.221   .     D
C1380  O1416   1.396   .     S
C1381  O1417   1.221   .     D
C1381  O1418   1.396   .     S
C1382  O1424   1.300   .     A
C1382  C1384   1.433   .     S
C1382  O1422   1.296   .     A
C1383  O1423   1.296   .     A
C1383  O1425   1.300   .     A
C1383  C1385   1.433   .     S
C1385  C1446   1.334   .     S
C1385  H1463   1.085   .     S
C1387  C1552   1.402   .     S
C1388  C1572   1.402   .     S
Cu1389 N1409   2.040   .     S
Cu1389 O1411   1.957   .     S
Cu1389 Cu1390  2.714   .     S
Cu1389 O1425   1.955   .     S
Cu1389 O1421   1.969   .     S
Cu1389 O1422   1.957   .     S
Cu1390 O1419   1.957   .     S
Cu1390 N1410   2.040   .     S
Cu1390 O1424   1.955   .     S
Cu1390 O1423   1.957   .     S
Cu1390 O1420   1.969   .     S
H1391  C1446   1.085   .     S
H1399  O1416   1.014   .     S
H1400  O1418   1.014   .     S
H1402  O1412   1.014   .     S
H1403  O1414   1.014   .     S
C1427  C1430   1.475   .     S
C1427  O1482   1.303   .     A
C1427  O1473   1.312   .     A
C1428  C1430   1.413   .     A
C1428  C1439   1.519   .     S
C1429  C1438   1.475   .     S
C1429  C1449   1.418   .     A
C1429  C1450   1.413   .     A
C1430  C1448   1.418   .     A
C1431  N1472   1.384   .     A
C1431  C1440   1.518   .     S
C1432  N1471   1.384   .     A
C1432  C1441   1.518   .     S
C1432  C318    1.432   1_556 S
C1433  N1471   1.375   .     A
C1433  C1442   1.478   .     S
C1433  C315    1.432   1_556 S
C1434  C1443   1.478   .     S
C1434  N1472   1.375   .     A
C1435  C1448   1.493   .     S
C1435  O1488   1.224   .     D
C1435  O1474   1.397   .     S
C1436  C1449   1.493   .     S
C1436  O1476   1.397   .     S
C1436  O1475   1.224   .     D
C1437  H1467   1.110   .     S
C1437  H1466   1.109   .     S
C1437  C1450   1.519   .     S
C1437  H1468   1.110   .     S
C1438  O1483   1.303   .     A
C1438  O1481   1.312   .     A
C1439  H1454   1.110   .     S
C1439  H1469   1.109   .     S
C1439  H1470   1.110   .     S
C1440  H1457   1.092   .     S
C1440  H1456   1.107   .     S
C1440  H1455   1.110   .     S
C1441  H1460   1.107   .     S
C1441  H1458   1.110   .     S
C1441  H1459   1.092   .     S
C1442  O1477   1.221   .     D
C1442  O1478   1.396   .     S
C1443  O1479   1.221   .     D
C1443  O1480   1.396   .     S
C1444  O1486   1.300   .     A
C1444  C1446   1.433   .     S
C1444  O1484   1.296   .     A
C1445  O1485   1.296   .     A
C1445  O1487   1.300   .     A
C1445  C1447   1.433   .     S
C1447  C1322   1.334   1_655 S
C1447  H1339   1.085   1_655 S
C1449  C1614   1.402   .     S
C1450  C1634   1.402   .     S
Cu1451 N1471   2.040   .     S
Cu1451 O1473   1.957   .     S
Cu1451 Cu1452  2.714   .     S
Cu1451 O1487   1.955   .     S
Cu1451 O1483   1.969   .     S
Cu1451 O1484   1.957   .     S
Cu1452 O1481   1.957   .     S
Cu1452 N1472   2.040   .     S
Cu1452 O1486   1.955   .     S
Cu1452 O1485   1.957   .     S
Cu1452 O1482   1.969   .     S
H1453  C1322   1.085   1_655 S
H1461  O1478   1.014   .     S
H1462  O1480   1.014   .     S
H1464  O1474   1.014   .     S
H1465  O1476   1.014   .     S
C1489  C1492   1.475   .     S
C1489  O1544   1.303   .     A
C1489  O1535   1.312   .     A
C1490  C1492   1.413   .     A
C1490  C1501   1.519   .     S
C1491  C1500   1.475   .     S
C1491  C1511   1.418   .     A
C1491  C1512   1.413   .     A
C1492  C1510   1.418   .     A
C1493  N1534   1.384   .     A
C1493  C1502   1.518   .     S
C1494  N1533   1.384   .     A
C1494  C1503   1.518   .     S
C1494  C380    1.432   1_556 S
C1495  N1533   1.375   .     A
C1495  C1504   1.478   .     S
C1495  C377    1.432   1_556 S
C1496  C1505   1.478   .     S
C1496  N1534   1.375   .     A
C1497  C1510   1.493   .     S
C1497  O1550   1.224   .     D
C1497  O1536   1.397   .     S
C1498  C1511   1.493   .     S
C1498  O1538   1.397   .     S
C1498  O1537   1.224   .     D
C1499  H1529   1.110   .     S
C1499  H1528   1.109   .     S
C1499  C1512   1.519   .     S
C1499  H1530   1.110   .     S
C1500  O1545   1.303   .     A
C1500  O1543   1.312   .     A
C1501  H1516   1.110   .     S
C1501  H1531   1.109   .     S
C1501  H1532   1.110   .     S
C1502  H1519   1.092   .     S
C1502  H1518   1.107   .     S
C1502  H1517   1.110   .     S
C1503  H1522   1.107   .     S
C1503  H1520   1.110   .     S
C1503  H1521   1.092   .     S
C1504  O1539   1.221   .     D
C1504  O1540   1.396   .     S
C1505  O1541   1.221   .     D
C1505  O1542   1.396   .     S
C1506  O1548   1.300   .     A
C1506  C1508   1.433   .     S
C1506  O1546   1.296   .     A
C1507  O1547   1.296   .     A
C1507  O1549   1.300   .     A
C1507  C1509   1.433   .     S
C1508  C1633   1.334   1_455 S
C1508  H1639   1.085   1_455 S
C1509  C1570   1.334   .     S
C1509  H1587   1.085   .     S
C1511  C1118   1.402   1_565 S
C1512  C1138   1.402   1_565 S
Cu1513 N1533   2.040   .     S
Cu1513 O1535   1.957   .     S
Cu1513 Cu1514  2.714   .     S
Cu1513 O1549   1.955   .     S
Cu1513 O1545   1.969   .     S
Cu1513 O1546   1.957   .     S
Cu1514 O1543   1.957   .     S
Cu1514 N1534   2.040   .     S
Cu1514 O1548   1.955   .     S
Cu1514 O1547   1.957   .     S
Cu1514 O1544   1.969   .     S
H1515  C1570   1.085   .     S
H1523  O1540   1.014   .     S
H1524  O1542   1.014   .     S
H1525  C1633   1.085   1_455 S
H1526  O1536   1.014   .     S
H1527  O1538   1.014   .     S
C1551  C1554   1.475   .     S
C1551  O1606   1.303   .     A
C1551  O1597   1.312   .     A
C1552  C1554   1.413   .     A
C1552  C1563   1.519   .     S
C1553  C1562   1.475   .     S
C1553  C1573   1.418   .     A
C1553  C1574   1.413   .     A
C1554  C1572   1.418   .     A
C1555  N1596   1.384   .     A
C1555  C1564   1.518   .     S
C1556  N1595   1.384   .     A
C1556  C1565   1.518   .     S
C1556  C442    1.432   1_556 S
C1557  N1595   1.375   .     A
C1557  C1566   1.478   .     S
C1557  C439    1.432   1_556 S
C1558  C1567   1.478   .     S
C1558  N1596   1.375   .     A
C1559  C1572   1.493   .     S
C1559  O1612   1.224   .     D
C1559  O1598   1.397   .     S
C1560  C1573   1.493   .     S
C1560  O1600   1.397   .     S
C1560  O1599   1.224   .     D
C1561  H1591   1.110   .     S
C1561  H1590   1.109   .     S
C1561  C1574   1.519   .     S
C1561  H1592   1.110   .     S
C1562  O1607   1.303   .     A
C1562  O1605   1.312   .     A
C1563  H1578   1.110   .     S
C1563  H1593   1.109   .     S
C1563  H1594   1.110   .     S
C1564  H1581   1.092   .     S
C1564  H1580   1.107   .     S
C1564  H1579   1.110   .     S
C1565  H1584   1.107   .     S
C1565  H1582   1.110   .     S
C1565  H1583   1.092   .     S
C1566  O1601   1.221   .     D
C1566  O1602   1.396   .     S
C1567  O1603   1.221   .     D
C1567  O1604   1.396   .     S
C1568  O1610   1.300   .     A
C1568  C1570   1.433   .     S
C1568  O1608   1.296   .     A
C1569  O1609   1.296   .     A
C1569  O1611   1.300   .     A
C1569  C1571   1.433   .     S
C1571  C1632   1.334   .     S
C1571  H1649   1.085   .     S
C1573  C1180   1.402   1_565 S
C1574  C1200   1.402   1_565 S
Cu1575 N1595   2.040   .     S
Cu1575 O1597   1.957   .     S
Cu1575 Cu1576  2.714   .     S
Cu1575 O1611   1.955   .     S
Cu1575 O1607   1.969   .     S
Cu1575 O1608   1.957   .     S
Cu1576 O1605   1.957   .     S
Cu1576 N1596   2.040   .     S
Cu1576 O1610   1.955   .     S
Cu1576 O1609   1.957   .     S
Cu1576 O1606   1.969   .     S
H1577  C1632   1.085   .     S
H1585  O1602   1.014   .     S
H1586  O1604   1.014   .     S
H1588  O1598   1.014   .     S
H1589  O1600   1.014   .     S
C1613  C1616   1.475   .     S
C1613  O1668   1.303   .     A
C1613  O1659   1.312   .     A
C1614  C1616   1.413   .     A
C1614  C1625   1.519   .     S
C1615  C1624   1.475   .     S
C1615  C1635   1.418   .     A
C1615  C1636   1.413   .     A
C1616  C1634   1.418   .     A
C1617  N1658   1.384   .     A
C1617  C1626   1.518   .     S
C1618  N1657   1.384   .     A
C1618  C1627   1.518   .     S
C1618  C504    1.432   1_556 S
C1619  N1657   1.375   .     A
C1619  C1628   1.478   .     S
C1619  C501    1.432   1_556 S
C1620  C1629   1.478   .     S
C1620  N1658   1.375   .     A
C1621  C1634   1.493   .     S
C1621  O1674   1.224   .     D
C1621  O1660   1.397   .     S
C1622  C1635   1.493   .     S
C1622  O1662   1.397   .     S
C1622  O1661   1.224   .     D
C1623  H1653   1.110   .     S
C1623  H1652   1.109   .     S
C1623  C1636   1.519   .     S
C1623  H1654   1.110   .     S
C1624  O1669   1.303   .     A
C1624  O1667   1.312   .     A
C1625  H1640   1.110   .     S
C1625  H1655   1.109   .     S
C1625  H1656   1.110   .     S
C1626  H1643   1.092   .     S
C1626  H1642   1.107   .     S
C1626  H1641   1.110   .     S
C1627  H1646   1.107   .     S
C1627  H1644   1.110   .     S
C1627  H1645   1.092   .     S
C1628  O1663   1.221   .     D
C1628  O1664   1.396   .     S
C1629  O1665   1.221   .     D
C1629  O1666   1.396   .     S
C1630  O1672   1.300   .     A
C1630  C1632   1.433   .     S
C1630  O1670   1.296   .     A
C1631  O1671   1.296   .     A
C1631  O1673   1.300   .     A
C1631  C1633   1.433   .     S
C1633  C1508   1.334   1_655 S
C1633  H1525   1.085   1_655 S
C1635  C1242   1.402   1_565 S
C1636  C1262   1.402   1_565 S
Cu1637 N1657   2.040   .     S
Cu1637 O1659   1.957   .     S
Cu1637 Cu1638  2.714   .     S
Cu1637 O1673   1.955   .     S
Cu1637 O1669   1.969   .     S
Cu1637 O1670   1.957   .     S
Cu1638 O1667   1.957   .     S
Cu1638 N1658   2.040   .     S
Cu1638 O1672   1.955   .     S
Cu1638 O1671   1.957   .     S
Cu1638 O1668   1.969   .     S
H1639  C1508   1.085   1_655 S
H1647  O1664   1.014   .     S
H1648  O1666   1.014   .     S
H1650  O1660   1.014   .     S
H1651  O1662   1.014   .     S
