data_str_m2_o1_o18_pcu_sym.109
_audit_creation_date              2020-01-03
_audit_creation_method            'Materials Studio'
_symmetry_space_group_name_H-M    'P1'
_symmetry_Int_Tables_number       1
_symmetry_cell_setting            triclinic
loop_
_symmetry_equiv_pos_as_xyz
  x,y,z
_cell_length_a                    29.0808
_cell_length_b                    32.4683
_cell_length_c                    31.5288
_cell_angle_alpha                 89.9215
_cell_angle_beta                  71.4184
_cell_angle_gamma                 90.0112
loop_
_atom_site_label
_atom_site_type_symbol
_atom_site_fract_x
_atom_site_fract_y
_atom_site_fract_z
_atom_site_U_iso_or_equiv
_atom_site_adp_type
_atom_site_occupancy
C1     C     0.33331   0.08754   0.25002   0.00000  Uiso   1.00
C2     C     0.00002   0.24580   0.24998   0.00000  Uiso   1.00
C3     C     0.19368   0.20322   0.04564   0.00000  Uiso   1.00
C4     C     0.13970   0.20335   0.45433   0.00000  Uiso   1.00
C5     C     0.24194   0.19501   0.02258   0.00000  Uiso   1.00
C6     C     0.09144   0.19506   0.47741   0.00000  Uiso   1.00
C7     C     0.29160   0.02129   0.24985   0.00000  Uiso   1.00
C8     C     0.04173   0.31203   0.25015   0.00000  Uiso   1.00
C9     C     0.29163   0.31201   0.24981   0.00000  Uiso   1.00
C10    C     0.04171   0.02132   0.25019   0.00000  Uiso   1.00
C11    C     0.00002   0.29051   0.24997   0.00000  Uiso   1.00
C12    C     0.33331   0.04282   0.25003   0.00000  Uiso   1.00
C13    C     0.18067   0.14426   0.28065   0.00000  Uiso   1.00
C14    C     0.15266   0.18908   0.21935   0.00000  Uiso   1.00
C15    C     0.13149   0.14425   0.28063   0.00000  Uiso   1.00
C16    C     0.20184   0.18909   0.21937   0.00000  Uiso   1.00
C17    C     0.30498   0.16744   0.33569   0.00000  Uiso   1.00
C18    C     0.02835   0.16746   0.16432   0.00000  Uiso   1.00
C19    C     0.28725   0.17134   0.38438   0.00000  Uiso   1.00
C20    C     0.04610   0.17135   0.11563   0.00000  Uiso   1.00
C21    C     0.29853   0.16294   0.45604   0.00000  Uiso   1.00
C22    C     0.03493   0.16277   0.04397   0.00000  Uiso   1.00
C23    C     0.31454   0.15661   0.41013   0.00000  Uiso   1.00
C24    C     0.01892   0.15643   0.08990   0.00000  Uiso   1.00
C25    C     0.24178   0.18901   0.40541   0.00000  Uiso   1.00
C26    C     0.09152   0.18916   0.09458   0.00000  Uiso   1.00
C27    C     0.22407   0.19339   0.45236   0.00000  Uiso   1.00
C28    C     0.10930   0.19344   0.04761   0.00000  Uiso   1.00
C29    C     0.25570   0.18454   0.47701   0.00000  Uiso   1.00
C30    C     0.07770   0.18452   0.02298   0.00000  Uiso   1.00
C31    C     0.17465   0.20115   0.47616   0.00000  Uiso   1.00
C32    C     0.15875   0.20114   0.02380   0.00000  Uiso   1.00
Cu33   Cu    0.04689   0.16667   0.25000   0.00000  Uiso   1.00
Cu34   Cu    0.28645   0.16666   0.25000   0.00000  Uiso   1.00
H35    H     0.11218   0.19920   0.11557   0.00000  Uiso   1.00
H36    H     0.22101   0.19882   0.38442   0.00000  Uiso   1.00
H37    H     0.31874   0.13982   0.10525   0.00000  Uiso   1.00
H38    H     0.01481   0.14015   0.39481   0.00000  Uiso   1.00
H39    H     0.31878   0.14907   0.47493   0.00000  Uiso   1.00
H40    H     0.01478   0.14876   0.02509   0.00000  Uiso   1.00
H41    H     0.18457   0.20863   0.08106   0.00000  Uiso   1.00
H42    H     0.14878   0.20901   0.41894   0.00000  Uiso   1.00
H43    H     0.25895   0.03727   0.24973   0.00000  Uiso   1.00
H44    H     0.07439   0.29606   0.25026   0.00000  Uiso   1.00
H45    H     0.25899   0.29601   0.24966   0.00000  Uiso   1.00
H46    H     0.07435   0.03731   0.25034   0.00000  Uiso   1.00
H47    H     0.19024   0.12609   0.30537   0.00000  Uiso   1.00
H48    H     0.14310   0.20724   0.19461   0.00000  Uiso   1.00
H49    H     0.10485   0.12605   0.30533   0.00000  Uiso   1.00
H50    H     0.22848   0.20729   0.19465   0.00000  Uiso   1.00
N51    N     0.11736   0.16668   0.24999   0.00000  Uiso   1.00
N52    N     0.21597   0.16666   0.25001   0.00000  Uiso   1.00
O53    O     0.03958   0.10655   0.25000   0.00000  Uiso   1.00
O54    O     0.29375   0.22678   0.25000   0.00000  Uiso   1.00
O55    O     0.29372   0.10654   0.25000   0.00000  Uiso   1.00
O56    O     0.03961   0.22679   0.24999   0.00000  Uiso   1.00
O57    O     0.01852   0.16668   0.31491   0.00000  Uiso   1.00
O58    O     0.31481   0.16666   0.18508   0.00000  Uiso   1.00
O59    O     0.27267   0.16667   0.31492   0.00000  Uiso   1.00
O60    O     0.06067   0.16667   0.18508   0.00000  Uiso   1.00
N61    N     0.27619   0.19750   0.04581   0.00000  Uiso   1.00
H62    H     0.26652   0.17906   0.07393   0.00000  Uiso   1.00
C63    C     0.28610   0.23922   0.05665   0.00000  Uiso   1.00
H64    H     0.25461   0.25182   0.08365   0.00000  Uiso   1.00
H65    H     0.29367   0.25946   0.02680   0.00000  Uiso   1.00
H66    H     0.31817   0.23944   0.06849   0.00000  Uiso   1.00
N67    N     0.05710   0.19794   0.45432   0.00000  Uiso   1.00
H68    H     0.06705   0.18043   0.42556   0.00000  Uiso   1.00
C69    C     0.04631   0.23990   0.44500   0.00000  Uiso   1.00
H70    H     0.01446   0.24024   0.43285   0.00000  Uiso   1.00
H71    H     0.07769   0.25365   0.41873   0.00000  Uiso   1.00
H72    H     0.03799   0.25905   0.47565   0.00000  Uiso   1.00
C73    C     0.66664   0.08754   0.25002   0.00000  Uiso   1.00
C74    C     0.33336   0.24580   0.24998   0.00000  Uiso   1.00
C75    C     0.52701   0.20322   0.04564   0.00000  Uiso   1.00
C76    C     0.47303   0.20335   0.45433   0.00000  Uiso   1.00
C77    C     0.57528   0.19501   0.02258   0.00000  Uiso   1.00
C78    C     0.42477   0.19506   0.47741   0.00000  Uiso   1.00
C79    C     0.62494   0.02129   0.24985   0.00000  Uiso   1.00
C80    C     0.37506   0.31203   0.25015   0.00000  Uiso   1.00
C81    C     0.62496   0.31201   0.24981   0.00000  Uiso   1.00
C82    C     0.37504   0.02132   0.25019   0.00000  Uiso   1.00
C83    C     0.33335   0.29051   0.24997   0.00000  Uiso   1.00
C84    C     0.66665   0.04282   0.25003   0.00000  Uiso   1.00
C85    C     0.51401   0.14426   0.28065   0.00000  Uiso   1.00
C86    C     0.48599   0.18908   0.21935   0.00000  Uiso   1.00
C87    C     0.46482   0.14425   0.28063   0.00000  Uiso   1.00
C88    C     0.53518   0.18909   0.21937   0.00000  Uiso   1.00
C89    C     0.63831   0.16744   0.33569   0.00000  Uiso   1.00
C90    C     0.36169   0.16746   0.16432   0.00000  Uiso   1.00
C91    C     0.62059   0.17134   0.38438   0.00000  Uiso   1.00
C92    C     0.37943   0.17135   0.11563   0.00000  Uiso   1.00
C93    C     0.63186   0.16294   0.45604   0.00000  Uiso   1.00
C94    C     0.36827   0.16277   0.04397   0.00000  Uiso   1.00
C95    C     0.64788   0.15661   0.41013   0.00000  Uiso   1.00
C96    C     0.35225   0.15643   0.08990   0.00000  Uiso   1.00
C97    C     0.57512   0.18901   0.40541   0.00000  Uiso   1.00
C98    C     0.42485   0.18916   0.09458   0.00000  Uiso   1.00
C99    C     0.55741   0.19339   0.45236   0.00000  Uiso   1.00
C100   C     0.44263   0.19344   0.04761   0.00000  Uiso   1.00
C101   C     0.58903   0.18454   0.47701   0.00000  Uiso   1.00
C102   C     0.41103   0.18452   0.02298   0.00000  Uiso   1.00
C103   C     0.50798   0.20115   0.47616   0.00000  Uiso   1.00
C104   C     0.49208   0.20114   0.02380   0.00000  Uiso   1.00
Cu105  Cu    0.38022   0.16667   0.25000   0.00000  Uiso   1.00
Cu106  Cu    0.61978   0.16666   0.25000   0.00000  Uiso   1.00
H107   H     0.44551   0.19920   0.11557   0.00000  Uiso   1.00
H108   H     0.55435   0.19882   0.38442   0.00000  Uiso   1.00
H109   H     0.65207   0.13982   0.10525   0.00000  Uiso   1.00
H110   H     0.34814   0.14015   0.39481   0.00000  Uiso   1.00
H111   H     0.65212   0.14907   0.47493   0.00000  Uiso   1.00
H112   H     0.34812   0.14876   0.02509   0.00000  Uiso   1.00
H113   H     0.51790   0.20863   0.08106   0.00000  Uiso   1.00
H114   H     0.48212   0.20901   0.41894   0.00000  Uiso   1.00
H115   H     0.59228   0.03727   0.24973   0.00000  Uiso   1.00
H116   H     0.40772   0.29606   0.25026   0.00000  Uiso   1.00
H117   H     0.59232   0.29601   0.24966   0.00000  Uiso   1.00
H118   H     0.40768   0.03731   0.25034   0.00000  Uiso   1.00
H119   H     0.52358   0.12609   0.30537   0.00000  Uiso   1.00
H120   H     0.47643   0.20724   0.19461   0.00000  Uiso   1.00
H121   H     0.43818   0.12605   0.30533   0.00000  Uiso   1.00
H122   H     0.56181   0.20729   0.19465   0.00000  Uiso   1.00
N123   N     0.45069   0.16668   0.24999   0.00000  Uiso   1.00
N124   N     0.54931   0.16666   0.25001   0.00000  Uiso   1.00
O125   O     0.37291   0.10655   0.25000   0.00000  Uiso   1.00
O126   O     0.62709   0.22678   0.25000   0.00000  Uiso   1.00
O127   O     0.62706   0.10654   0.25000   0.00000  Uiso   1.00
O128   O     0.37294   0.22679   0.24999   0.00000  Uiso   1.00
O129   O     0.35186   0.16668   0.31491   0.00000  Uiso   1.00
O130   O     0.64814   0.16666   0.18508   0.00000  Uiso   1.00
O131   O     0.60600   0.16667   0.31492   0.00000  Uiso   1.00
O132   O     0.39400   0.16667   0.18508   0.00000  Uiso   1.00
N133   N     0.60952   0.19750   0.04581   0.00000  Uiso   1.00
H134   H     0.59986   0.17906   0.07393   0.00000  Uiso   1.00
C135   C     0.61944   0.23922   0.05665   0.00000  Uiso   1.00
H136   H     0.58794   0.25182   0.08365   0.00000  Uiso   1.00
H137   H     0.62700   0.25946   0.02680   0.00000  Uiso   1.00
H138   H     0.65150   0.23944   0.06849   0.00000  Uiso   1.00
N139   N     0.39043   0.19794   0.45432   0.00000  Uiso   1.00
H140   H     0.40038   0.18043   0.42556   0.00000  Uiso   1.00
C141   C     0.37964   0.23990   0.44500   0.00000  Uiso   1.00
H142   H     0.34779   0.24024   0.43285   0.00000  Uiso   1.00
H143   H     0.41102   0.25365   0.41873   0.00000  Uiso   1.00
H144   H     0.37133   0.25905   0.47565   0.00000  Uiso   1.00
C145   C     0.99998   0.08754   0.25002   0.00000  Uiso   1.00
C146   C     0.66669   0.24580   0.24998   0.00000  Uiso   1.00
C147   C     0.86035   0.20322   0.04564   0.00000  Uiso   1.00
C148   C     0.80636   0.20335   0.45433   0.00000  Uiso   1.00
C149   C     0.90861   0.19501   0.02258   0.00000  Uiso   1.00
C150   C     0.75810   0.19506   0.47741   0.00000  Uiso   1.00
C151   C     0.95827   0.02129   0.24985   0.00000  Uiso   1.00
C152   C     0.70840   0.31203   0.25015   0.00000  Uiso   1.00
C153   C     0.95829   0.31201   0.24981   0.00000  Uiso   1.00
C154   C     0.70837   0.02132   0.25019   0.00000  Uiso   1.00
C155   C     0.66669   0.29051   0.24997   0.00000  Uiso   1.00
C156   C     0.99998   0.04282   0.25003   0.00000  Uiso   1.00
C157   C     0.84734   0.14426   0.28065   0.00000  Uiso   1.00
C158   C     0.81933   0.18908   0.21935   0.00000  Uiso   1.00
C159   C     0.79816   0.14425   0.28063   0.00000  Uiso   1.00
C160   C     0.86851   0.18909   0.21937   0.00000  Uiso   1.00
C161   C     0.97165   0.16744   0.33569   0.00000  Uiso   1.00
C162   C     0.69502   0.16746   0.16432   0.00000  Uiso   1.00
C163   C     0.95392   0.17134   0.38438   0.00000  Uiso   1.00
C164   C     0.71276   0.17135   0.11563   0.00000  Uiso   1.00
C165   C     0.96520   0.16294   0.45604   0.00000  Uiso   1.00
C166   C     0.70160   0.16277   0.04397   0.00000  Uiso   1.00
C167   C     0.98121   0.15661   0.41013   0.00000  Uiso   1.00
C168   C     0.68559   0.15643   0.08990   0.00000  Uiso   1.00
C169   C     0.90845   0.18901   0.40541   0.00000  Uiso   1.00
C170   C     0.75818   0.18916   0.09458   0.00000  Uiso   1.00
C171   C     0.89074   0.19339   0.45236   0.00000  Uiso   1.00
C172   C     0.77596   0.19344   0.04761   0.00000  Uiso   1.00
C173   C     0.92237   0.18454   0.47701   0.00000  Uiso   1.00
C174   C     0.74437   0.18452   0.02298   0.00000  Uiso   1.00
C175   C     0.84131   0.20115   0.47616   0.00000  Uiso   1.00
C176   C     0.82541   0.20114   0.02380   0.00000  Uiso   1.00
Cu177  Cu    0.71355   0.16667   0.25000   0.00000  Uiso   1.00
Cu178  Cu    0.95311   0.16666   0.25000   0.00000  Uiso   1.00
H179   H     0.77884   0.19920   0.11557   0.00000  Uiso   1.00
H180   H     0.88768   0.19882   0.38442   0.00000  Uiso   1.00
H181   H     0.98541   0.13982   0.10525   0.00000  Uiso   1.00
H182   H     0.68147   0.14015   0.39481   0.00000  Uiso   1.00
H183   H     0.98545   0.14907   0.47493   0.00000  Uiso   1.00
H184   H     0.68145   0.14876   0.02509   0.00000  Uiso   1.00
H185   H     0.85124   0.20863   0.08106   0.00000  Uiso   1.00
H186   H     0.81545   0.20901   0.41894   0.00000  Uiso   1.00
H187   H     0.92562   0.03727   0.24973   0.00000  Uiso   1.00
H188   H     0.74105   0.29606   0.25026   0.00000  Uiso   1.00
H189   H     0.92565   0.29601   0.24966   0.00000  Uiso   1.00
H190   H     0.74101   0.03731   0.25034   0.00000  Uiso   1.00
H191   H     0.85691   0.12609   0.30537   0.00000  Uiso   1.00
H192   H     0.80976   0.20724   0.19461   0.00000  Uiso   1.00
H193   H     0.77152   0.12605   0.30533   0.00000  Uiso   1.00
H194   H     0.89515   0.20729   0.19465   0.00000  Uiso   1.00
N195   N     0.78403   0.16668   0.24999   0.00000  Uiso   1.00
N196   N     0.88264   0.16666   0.25001   0.00000  Uiso   1.00
O197   O     0.70625   0.10655   0.25000   0.00000  Uiso   1.00
O198   O     0.96042   0.22678   0.25000   0.00000  Uiso   1.00
O199   O     0.96039   0.10654   0.25000   0.00000  Uiso   1.00
O200   O     0.70628   0.22679   0.24999   0.00000  Uiso   1.00
O201   O     0.68519   0.16668   0.31491   0.00000  Uiso   1.00
O202   O     0.98148   0.16666   0.18508   0.00000  Uiso   1.00
O203   O     0.93933   0.16667   0.31492   0.00000  Uiso   1.00
O204   O     0.72733   0.16667   0.18508   0.00000  Uiso   1.00
N205   N     0.94286   0.19750   0.04581   0.00000  Uiso   1.00
H206   H     0.93319   0.17906   0.07393   0.00000  Uiso   1.00
C207   C     0.95277   0.23922   0.05665   0.00000  Uiso   1.00
H208   H     0.92127   0.25182   0.08365   0.00000  Uiso   1.00
H209   H     0.96033   0.25946   0.02680   0.00000  Uiso   1.00
H210   H     0.98484   0.23944   0.06849   0.00000  Uiso   1.00
N211   N     0.72376   0.19794   0.45432   0.00000  Uiso   1.00
H212   H     0.73371   0.18043   0.42556   0.00000  Uiso   1.00
C213   C     0.71298   0.23990   0.44500   0.00000  Uiso   1.00
H214   H     0.68112   0.24024   0.43285   0.00000  Uiso   1.00
H215   H     0.74436   0.25365   0.41873   0.00000  Uiso   1.00
H216   H     0.70466   0.25905   0.47565   0.00000  Uiso   1.00
C217   C     0.33331   0.42087   0.25002   0.00000  Uiso   1.00
C218   C     0.00002   0.57913   0.24998   0.00000  Uiso   1.00
C219   C     0.19368   0.53656   0.04564   0.00000  Uiso   1.00
C220   C     0.13970   0.53668   0.45433   0.00000  Uiso   1.00
C221   C     0.24194   0.52834   0.02258   0.00000  Uiso   1.00
C222   C     0.09144   0.52839   0.47741   0.00000  Uiso   1.00
C223   C     0.29160   0.35463   0.24985   0.00000  Uiso   1.00
C224   C     0.04173   0.64537   0.25015   0.00000  Uiso   1.00
C225   C     0.29163   0.64534   0.24981   0.00000  Uiso   1.00
C226   C     0.04171   0.35465   0.25019   0.00000  Uiso   1.00
C227   C     0.00002   0.62384   0.24997   0.00000  Uiso   1.00
C228   C     0.33331   0.37615   0.25003   0.00000  Uiso   1.00
C229   C     0.18067   0.47759   0.28065   0.00000  Uiso   1.00
C230   C     0.15266   0.52242   0.21935   0.00000  Uiso   1.00
C231   C     0.13149   0.47758   0.28063   0.00000  Uiso   1.00
C232   C     0.20184   0.52242   0.21937   0.00000  Uiso   1.00
C233   C     0.30498   0.50078   0.33569   0.00000  Uiso   1.00
C234   C     0.02835   0.50079   0.16432   0.00000  Uiso   1.00
C235   C     0.28725   0.50467   0.38438   0.00000  Uiso   1.00
C236   C     0.04610   0.50469   0.11563   0.00000  Uiso   1.00
C237   C     0.29853   0.49627   0.45604   0.00000  Uiso   1.00
C238   C     0.03493   0.49610   0.04397   0.00000  Uiso   1.00
C239   C     0.31454   0.48995   0.41013   0.00000  Uiso   1.00
C240   C     0.01892   0.48976   0.08990   0.00000  Uiso   1.00
C241   C     0.24178   0.52234   0.40541   0.00000  Uiso   1.00
C242   C     0.09152   0.52250   0.09458   0.00000  Uiso   1.00
C243   C     0.22407   0.52673   0.45236   0.00000  Uiso   1.00
C244   C     0.10930   0.52677   0.04761   0.00000  Uiso   1.00
C245   C     0.25570   0.51787   0.47701   0.00000  Uiso   1.00
C246   C     0.07770   0.51785   0.02298   0.00000  Uiso   1.00
C247   C     0.17465   0.53448   0.47616   0.00000  Uiso   1.00
C248   C     0.15875   0.53447   0.02380   0.00000  Uiso   1.00
Cu249  Cu    0.04689   0.50001   0.25000   0.00000  Uiso   1.00
Cu250  Cu    0.28645   0.49999   0.25000   0.00000  Uiso   1.00
H251   H     0.11218   0.53253   0.11557   0.00000  Uiso   1.00
H252   H     0.22101   0.53216   0.38442   0.00000  Uiso   1.00
H253   H     0.31874   0.47315   0.10525   0.00000  Uiso   1.00
H254   H     0.01481   0.47348   0.39481   0.00000  Uiso   1.00
H255   H     0.31878   0.48240   0.47493   0.00000  Uiso   1.00
H256   H     0.01478   0.48209   0.02509   0.00000  Uiso   1.00
H257   H     0.18457   0.54196   0.08106   0.00000  Uiso   1.00
H258   H     0.14878   0.54235   0.41894   0.00000  Uiso   1.00
H259   H     0.25895   0.37060   0.24973   0.00000  Uiso   1.00
H260   H     0.07439   0.62939   0.25026   0.00000  Uiso   1.00
H261   H     0.25899   0.62935   0.24966   0.00000  Uiso   1.00
H262   H     0.07435   0.37064   0.25034   0.00000  Uiso   1.00
H263   H     0.19024   0.45942   0.30537   0.00000  Uiso   1.00
H264   H     0.14310   0.54058   0.19461   0.00000  Uiso   1.00
H265   H     0.10485   0.45938   0.30533   0.00000  Uiso   1.00
H266   H     0.22848   0.54062   0.19465   0.00000  Uiso   1.00
N267   N     0.11736   0.50001   0.24999   0.00000  Uiso   1.00
N268   N     0.21597   0.49999   0.25001   0.00000  Uiso   1.00
O269   O     0.03958   0.43989   0.25000   0.00000  Uiso   1.00
O270   O     0.29375   0.56011   0.25000   0.00000  Uiso   1.00
O271   O     0.29372   0.43988   0.25000   0.00000  Uiso   1.00
O272   O     0.03961   0.56012   0.24999   0.00000  Uiso   1.00
O273   O     0.01852   0.50001   0.31491   0.00000  Uiso   1.00
O274   O     0.31481   0.49999   0.18508   0.00000  Uiso   1.00
O275   O     0.27267   0.50000   0.31492   0.00000  Uiso   1.00
O276   O     0.06067   0.50000   0.18508   0.00000  Uiso   1.00
N277   N     0.27619   0.53083   0.04581   0.00000  Uiso   1.00
H278   H     0.26652   0.51239   0.07393   0.00000  Uiso   1.00
C279   C     0.28610   0.57255   0.05665   0.00000  Uiso   1.00
H280   H     0.25461   0.58515   0.08365   0.00000  Uiso   1.00
H281   H     0.29367   0.59279   0.02680   0.00000  Uiso   1.00
H282   H     0.31817   0.57278   0.06849   0.00000  Uiso   1.00
N283   N     0.05710   0.53128   0.45432   0.00000  Uiso   1.00
H284   H     0.06705   0.51377   0.42556   0.00000  Uiso   1.00
C285   C     0.04631   0.57323   0.44500   0.00000  Uiso   1.00
H286   H     0.01446   0.57357   0.43285   0.00000  Uiso   1.00
H287   H     0.07769   0.58699   0.41873   0.00000  Uiso   1.00
H288   H     0.03799   0.59239   0.47565   0.00000  Uiso   1.00
C289   C     0.66664   0.42087   0.25002   0.00000  Uiso   1.00
C290   C     0.33336   0.57913   0.24998   0.00000  Uiso   1.00
C291   C     0.52701   0.53656   0.04564   0.00000  Uiso   1.00
C292   C     0.47303   0.53668   0.45433   0.00000  Uiso   1.00
C293   C     0.57528   0.52834   0.02258   0.00000  Uiso   1.00
C294   C     0.42477   0.52839   0.47741   0.00000  Uiso   1.00
C295   C     0.62494   0.35463   0.24985   0.00000  Uiso   1.00
C296   C     0.37506   0.64537   0.25015   0.00000  Uiso   1.00
C297   C     0.62496   0.64534   0.24981   0.00000  Uiso   1.00
C298   C     0.37504   0.35465   0.25019   0.00000  Uiso   1.00
C299   C     0.33335   0.62384   0.24997   0.00000  Uiso   1.00
C300   C     0.66665   0.37615   0.25003   0.00000  Uiso   1.00
C301   C     0.51401   0.47759   0.28065   0.00000  Uiso   1.00
C302   C     0.48599   0.52242   0.21935   0.00000  Uiso   1.00
C303   C     0.46482   0.47758   0.28063   0.00000  Uiso   1.00
C304   C     0.53518   0.52242   0.21937   0.00000  Uiso   1.00
C305   C     0.63831   0.50078   0.33569   0.00000  Uiso   1.00
C306   C     0.36169   0.50079   0.16432   0.00000  Uiso   1.00
C307   C     0.62059   0.50467   0.38438   0.00000  Uiso   1.00
C308   C     0.37943   0.50469   0.11563   0.00000  Uiso   1.00
C309   C     0.63186   0.49627   0.45604   0.00000  Uiso   1.00
C310   C     0.36827   0.49610   0.04397   0.00000  Uiso   1.00
C311   C     0.64788   0.48995   0.41013   0.00000  Uiso   1.00
C312   C     0.35225   0.48976   0.08990   0.00000  Uiso   1.00
C313   C     0.57512   0.52234   0.40541   0.00000  Uiso   1.00
C314   C     0.42485   0.52250   0.09458   0.00000  Uiso   1.00
C315   C     0.55741   0.52673   0.45236   0.00000  Uiso   1.00
C316   C     0.44263   0.52677   0.04761   0.00000  Uiso   1.00
C317   C     0.58903   0.51787   0.47701   0.00000  Uiso   1.00
C318   C     0.41103   0.51785   0.02298   0.00000  Uiso   1.00
C319   C     0.50798   0.53448   0.47616   0.00000  Uiso   1.00
C320   C     0.49208   0.53447   0.02380   0.00000  Uiso   1.00
Cu321  Cu    0.38022   0.50001   0.25000   0.00000  Uiso   1.00
Cu322  Cu    0.61978   0.49999   0.25000   0.00000  Uiso   1.00
H323   H     0.44551   0.53253   0.11557   0.00000  Uiso   1.00
H324   H     0.55435   0.53216   0.38442   0.00000  Uiso   1.00
H325   H     0.65207   0.47315   0.10525   0.00000  Uiso   1.00
H326   H     0.34814   0.47348   0.39481   0.00000  Uiso   1.00
H327   H     0.65212   0.48240   0.47493   0.00000  Uiso   1.00
H328   H     0.34812   0.48209   0.02509   0.00000  Uiso   1.00
H329   H     0.51790   0.54196   0.08106   0.00000  Uiso   1.00
H330   H     0.48212   0.54235   0.41894   0.00000  Uiso   1.00
H331   H     0.59228   0.37060   0.24973   0.00000  Uiso   1.00
H332   H     0.40772   0.62939   0.25026   0.00000  Uiso   1.00
H333   H     0.59232   0.62935   0.24966   0.00000  Uiso   1.00
H334   H     0.40768   0.37064   0.25034   0.00000  Uiso   1.00
H335   H     0.52358   0.45942   0.30537   0.00000  Uiso   1.00
H336   H     0.47643   0.54058   0.19461   0.00000  Uiso   1.00
H337   H     0.43818   0.45938   0.30533   0.00000  Uiso   1.00
H338   H     0.56181   0.54062   0.19465   0.00000  Uiso   1.00
N339   N     0.45069   0.50001   0.24999   0.00000  Uiso   1.00
N340   N     0.54931   0.49999   0.25001   0.00000  Uiso   1.00
O341   O     0.37291   0.43989   0.25000   0.00000  Uiso   1.00
O342   O     0.62709   0.56011   0.25000   0.00000  Uiso   1.00
O343   O     0.62706   0.43988   0.25000   0.00000  Uiso   1.00
O344   O     0.37294   0.56012   0.24999   0.00000  Uiso   1.00
O345   O     0.35186   0.50001   0.31491   0.00000  Uiso   1.00
O346   O     0.64814   0.49999   0.18508   0.00000  Uiso   1.00
O347   O     0.60600   0.50000   0.31492   0.00000  Uiso   1.00
O348   O     0.39400   0.50000   0.18508   0.00000  Uiso   1.00
N349   N     0.60952   0.53083   0.04581   0.00000  Uiso   1.00
H350   H     0.59986   0.51239   0.07393   0.00000  Uiso   1.00
C351   C     0.61944   0.57255   0.05665   0.00000  Uiso   1.00
H352   H     0.58794   0.58515   0.08365   0.00000  Uiso   1.00
H353   H     0.62700   0.59279   0.02680   0.00000  Uiso   1.00
H354   H     0.65150   0.57278   0.06849   0.00000  Uiso   1.00
N355   N     0.39043   0.53128   0.45432   0.00000  Uiso   1.00
H356   H     0.40038   0.51377   0.42556   0.00000  Uiso   1.00
C357   C     0.37964   0.57323   0.44500   0.00000  Uiso   1.00
H358   H     0.34779   0.57357   0.43285   0.00000  Uiso   1.00
H359   H     0.41102   0.58699   0.41873   0.00000  Uiso   1.00
H360   H     0.37133   0.59239   0.47565   0.00000  Uiso   1.00
C361   C     0.99998   0.42087   0.25002   0.00000  Uiso   1.00
C362   C     0.66669   0.57913   0.24998   0.00000  Uiso   1.00
C363   C     0.86035   0.53656   0.04564   0.00000  Uiso   1.00
C364   C     0.80636   0.53668   0.45433   0.00000  Uiso   1.00
C365   C     0.90861   0.52834   0.02258   0.00000  Uiso   1.00
C366   C     0.75810   0.52839   0.47741   0.00000  Uiso   1.00
C367   C     0.95827   0.35463   0.24985   0.00000  Uiso   1.00
C368   C     0.70840   0.64537   0.25015   0.00000  Uiso   1.00
C369   C     0.95829   0.64534   0.24981   0.00000  Uiso   1.00
C370   C     0.70837   0.35465   0.25019   0.00000  Uiso   1.00
C371   C     0.66669   0.62384   0.24997   0.00000  Uiso   1.00
C372   C     0.99998   0.37615   0.25003   0.00000  Uiso   1.00
C373   C     0.84734   0.47759   0.28065   0.00000  Uiso   1.00
C374   C     0.81933   0.52242   0.21935   0.00000  Uiso   1.00
C375   C     0.79816   0.47758   0.28063   0.00000  Uiso   1.00
C376   C     0.86851   0.52242   0.21937   0.00000  Uiso   1.00
C377   C     0.97165   0.50078   0.33569   0.00000  Uiso   1.00
C378   C     0.69502   0.50079   0.16432   0.00000  Uiso   1.00
C379   C     0.95392   0.50467   0.38438   0.00000  Uiso   1.00
C380   C     0.71276   0.50469   0.11563   0.00000  Uiso   1.00
C381   C     0.96520   0.49627   0.45604   0.00000  Uiso   1.00
C382   C     0.70160   0.49610   0.04397   0.00000  Uiso   1.00
C383   C     0.98121   0.48995   0.41013   0.00000  Uiso   1.00
C384   C     0.68559   0.48976   0.08990   0.00000  Uiso   1.00
C385   C     0.90845   0.52234   0.40541   0.00000  Uiso   1.00
C386   C     0.75818   0.52250   0.09458   0.00000  Uiso   1.00
C387   C     0.89074   0.52673   0.45236   0.00000  Uiso   1.00
C388   C     0.77596   0.52677   0.04761   0.00000  Uiso   1.00
C389   C     0.92237   0.51787   0.47701   0.00000  Uiso   1.00
C390   C     0.74437   0.51785   0.02298   0.00000  Uiso   1.00
C391   C     0.84131   0.53448   0.47616   0.00000  Uiso   1.00
C392   C     0.82541   0.53447   0.02380   0.00000  Uiso   1.00
Cu393  Cu    0.71355   0.50001   0.25000   0.00000  Uiso   1.00
Cu394  Cu    0.95311   0.49999   0.25000   0.00000  Uiso   1.00
H395   H     0.77884   0.53253   0.11557   0.00000  Uiso   1.00
H396   H     0.88768   0.53216   0.38442   0.00000  Uiso   1.00
H397   H     0.98541   0.47315   0.10525   0.00000  Uiso   1.00
H398   H     0.68147   0.47348   0.39481   0.00000  Uiso   1.00
H399   H     0.98545   0.48240   0.47493   0.00000  Uiso   1.00
H400   H     0.68145   0.48209   0.02509   0.00000  Uiso   1.00
H401   H     0.85124   0.54196   0.08106   0.00000  Uiso   1.00
H402   H     0.81545   0.54235   0.41894   0.00000  Uiso   1.00
H403   H     0.92562   0.37060   0.24973   0.00000  Uiso   1.00
H404   H     0.74105   0.62939   0.25026   0.00000  Uiso   1.00
H405   H     0.92565   0.62935   0.24966   0.00000  Uiso   1.00
H406   H     0.74101   0.37064   0.25034   0.00000  Uiso   1.00
H407   H     0.85691   0.45942   0.30537   0.00000  Uiso   1.00
H408   H     0.80976   0.54058   0.19461   0.00000  Uiso   1.00
H409   H     0.77152   0.45938   0.30533   0.00000  Uiso   1.00
H410   H     0.89515   0.54062   0.19465   0.00000  Uiso   1.00
N411   N     0.78403   0.50001   0.24999   0.00000  Uiso   1.00
N412   N     0.88264   0.49999   0.25001   0.00000  Uiso   1.00
O413   O     0.70625   0.43989   0.25000   0.00000  Uiso   1.00
O414   O     0.96042   0.56011   0.25000   0.00000  Uiso   1.00
O415   O     0.96039   0.43988   0.25000   0.00000  Uiso   1.00
O416   O     0.70628   0.56012   0.24999   0.00000  Uiso   1.00
O417   O     0.68519   0.50001   0.31491   0.00000  Uiso   1.00
O418   O     0.98148   0.49999   0.18508   0.00000  Uiso   1.00
O419   O     0.93933   0.50000   0.31492   0.00000  Uiso   1.00
O420   O     0.72733   0.50000   0.18508   0.00000  Uiso   1.00
N421   N     0.94286   0.53083   0.04581   0.00000  Uiso   1.00
H422   H     0.93319   0.51239   0.07393   0.00000  Uiso   1.00
C423   C     0.95277   0.57255   0.05665   0.00000  Uiso   1.00
H424   H     0.92127   0.58515   0.08365   0.00000  Uiso   1.00
H425   H     0.96033   0.59279   0.02680   0.00000  Uiso   1.00
H426   H     0.98484   0.57278   0.06849   0.00000  Uiso   1.00
N427   N     0.72376   0.53128   0.45432   0.00000  Uiso   1.00
H428   H     0.73371   0.51377   0.42556   0.00000  Uiso   1.00
C429   C     0.71298   0.57323   0.44500   0.00000  Uiso   1.00
H430   H     0.68112   0.57357   0.43285   0.00000  Uiso   1.00
H431   H     0.74436   0.58699   0.41873   0.00000  Uiso   1.00
H432   H     0.70466   0.59239   0.47565   0.00000  Uiso   1.00
C433   C     0.33331   0.75420   0.25002   0.00000  Uiso   1.00
C434   C     0.00002   0.91246   0.24998   0.00000  Uiso   1.00
C435   C     0.19368   0.86989   0.04564   0.00000  Uiso   1.00
C436   C     0.13970   0.87002   0.45433   0.00000  Uiso   1.00
C437   C     0.24194   0.86167   0.02258   0.00000  Uiso   1.00
C438   C     0.09144   0.86173   0.47741   0.00000  Uiso   1.00
C439   C     0.29160   0.68796   0.24985   0.00000  Uiso   1.00
C440   C     0.04173   0.97870   0.25015   0.00000  Uiso   1.00
C441   C     0.29163   0.97868   0.24981   0.00000  Uiso   1.00
C442   C     0.04171   0.68798   0.25019   0.00000  Uiso   1.00
C443   C     0.00002   0.95718   0.24997   0.00000  Uiso   1.00
C444   C     0.33331   0.70949   0.25003   0.00000  Uiso   1.00
C445   C     0.18067   0.81092   0.28065   0.00000  Uiso   1.00
C446   C     0.15266   0.85575   0.21935   0.00000  Uiso   1.00
C447   C     0.13149   0.81092   0.28063   0.00000  Uiso   1.00
C448   C     0.20184   0.85576   0.21937   0.00000  Uiso   1.00
C449   C     0.30498   0.83411   0.33569   0.00000  Uiso   1.00
C450   C     0.02835   0.83413   0.16432   0.00000  Uiso   1.00
C451   C     0.28725   0.83801   0.38438   0.00000  Uiso   1.00
C452   C     0.04610   0.83802   0.11563   0.00000  Uiso   1.00
C453   C     0.29853   0.82961   0.45604   0.00000  Uiso   1.00
C454   C     0.03493   0.82944   0.04397   0.00000  Uiso   1.00
C455   C     0.31454   0.82328   0.41013   0.00000  Uiso   1.00
C456   C     0.01892   0.82309   0.08990   0.00000  Uiso   1.00
C457   C     0.24178   0.85567   0.40541   0.00000  Uiso   1.00
C458   C     0.09152   0.85583   0.09458   0.00000  Uiso   1.00
C459   C     0.22407   0.86006   0.45236   0.00000  Uiso   1.00
C460   C     0.10930   0.86010   0.04761   0.00000  Uiso   1.00
C461   C     0.25570   0.85121   0.47701   0.00000  Uiso   1.00
C462   C     0.07770   0.85118   0.02298   0.00000  Uiso   1.00
C463   C     0.17465   0.86781   0.47616   0.00000  Uiso   1.00
C464   C     0.15875   0.86781   0.02380   0.00000  Uiso   1.00
Cu465  Cu    0.04689   0.83334   0.25000   0.00000  Uiso   1.00
Cu466  Cu    0.28645   0.83333   0.25000   0.00000  Uiso   1.00
H467   H     0.11218   0.86587   0.11557   0.00000  Uiso   1.00
H468   H     0.22101   0.86549   0.38442   0.00000  Uiso   1.00
H469   H     0.31874   0.80648   0.10525   0.00000  Uiso   1.00
H470   H     0.01481   0.80682   0.39481   0.00000  Uiso   1.00
H471   H     0.31878   0.81573   0.47493   0.00000  Uiso   1.00
H472   H     0.01478   0.81543   0.02509   0.00000  Uiso   1.00
H473   H     0.18457   0.87529   0.08106   0.00000  Uiso   1.00
H474   H     0.14878   0.87568   0.41894   0.00000  Uiso   1.00
H475   H     0.25895   0.70393   0.24973   0.00000  Uiso   1.00
H476   H     0.07439   0.96272   0.25026   0.00000  Uiso   1.00
H477   H     0.25899   0.96268   0.24966   0.00000  Uiso   1.00
H478   H     0.07435   0.70398   0.25034   0.00000  Uiso   1.00
H479   H     0.19024   0.79276   0.30537   0.00000  Uiso   1.00
H480   H     0.14310   0.87391   0.19461   0.00000  Uiso   1.00
H481   H     0.10485   0.79271   0.30533   0.00000  Uiso   1.00
H482   H     0.22848   0.87395   0.19465   0.00000  Uiso   1.00
N483   N     0.11736   0.83334   0.24999   0.00000  Uiso   1.00
N484   N     0.21597   0.83332   0.25001   0.00000  Uiso   1.00
O485   O     0.03958   0.77322   0.25000   0.00000  Uiso   1.00
O486   O     0.29375   0.89345   0.25000   0.00000  Uiso   1.00
O487   O     0.29372   0.77321   0.25000   0.00000  Uiso   1.00
O488   O     0.03961   0.89346   0.24999   0.00000  Uiso   1.00
O489   O     0.01852   0.83334   0.31491   0.00000  Uiso   1.00
O490   O     0.31481   0.83332   0.18508   0.00000  Uiso   1.00
O491   O     0.27267   0.83333   0.31492   0.00000  Uiso   1.00
O492   O     0.06067   0.83333   0.18508   0.00000  Uiso   1.00
N493   N     0.27619   0.86416   0.04581   0.00000  Uiso   1.00
H494   H     0.26652   0.84573   0.07393   0.00000  Uiso   1.00
C495   C     0.28610   0.90588   0.05665   0.00000  Uiso   1.00
H496   H     0.25461   0.91849   0.08365   0.00000  Uiso   1.00
H497   H     0.29367   0.92612   0.02680   0.00000  Uiso   1.00
H498   H     0.31817   0.90611   0.06849   0.00000  Uiso   1.00
N499   N     0.05710   0.86461   0.45432   0.00000  Uiso   1.00
H500   H     0.06705   0.84710   0.42556   0.00000  Uiso   1.00
C501   C     0.04631   0.90657   0.44500   0.00000  Uiso   1.00
H502   H     0.01446   0.90691   0.43285   0.00000  Uiso   1.00
H503   H     0.07769   0.92032   0.41873   0.00000  Uiso   1.00
H504   H     0.03799   0.92572   0.47565   0.00000  Uiso   1.00
C505   C     0.66664   0.75420   0.25002   0.00000  Uiso   1.00
C506   C     0.33336   0.91246   0.24998   0.00000  Uiso   1.00
C507   C     0.52701   0.86989   0.04564   0.00000  Uiso   1.00
C508   C     0.47303   0.87002   0.45433   0.00000  Uiso   1.00
C509   C     0.57528   0.86167   0.02258   0.00000  Uiso   1.00
C510   C     0.42477   0.86173   0.47741   0.00000  Uiso   1.00
C511   C     0.62494   0.68796   0.24985   0.00000  Uiso   1.00
C512   C     0.37506   0.97870   0.25015   0.00000  Uiso   1.00
C513   C     0.62496   0.97868   0.24981   0.00000  Uiso   1.00
C514   C     0.37504   0.68798   0.25019   0.00000  Uiso   1.00
C515   C     0.33335   0.95718   0.24997   0.00000  Uiso   1.00
C516   C     0.66665   0.70949   0.25003   0.00000  Uiso   1.00
C517   C     0.51401   0.81092   0.28065   0.00000  Uiso   1.00
C518   C     0.48599   0.85575   0.21935   0.00000  Uiso   1.00
C519   C     0.46482   0.81092   0.28063   0.00000  Uiso   1.00
C520   C     0.53518   0.85576   0.21937   0.00000  Uiso   1.00
C521   C     0.63831   0.83411   0.33569   0.00000  Uiso   1.00
C522   C     0.36169   0.83413   0.16432   0.00000  Uiso   1.00
C523   C     0.62059   0.83801   0.38438   0.00000  Uiso   1.00
C524   C     0.37943   0.83802   0.11563   0.00000  Uiso   1.00
C525   C     0.63186   0.82961   0.45604   0.00000  Uiso   1.00
C526   C     0.36827   0.82944   0.04397   0.00000  Uiso   1.00
C527   C     0.64788   0.82328   0.41013   0.00000  Uiso   1.00
C528   C     0.35225   0.82309   0.08990   0.00000  Uiso   1.00
C529   C     0.57512   0.85567   0.40541   0.00000  Uiso   1.00
C530   C     0.42485   0.85583   0.09458   0.00000  Uiso   1.00
C531   C     0.55741   0.86006   0.45236   0.00000  Uiso   1.00
C532   C     0.44263   0.86010   0.04761   0.00000  Uiso   1.00
C533   C     0.58903   0.85121   0.47701   0.00000  Uiso   1.00
C534   C     0.41103   0.85118   0.02298   0.00000  Uiso   1.00
C535   C     0.50798   0.86781   0.47616   0.00000  Uiso   1.00
C536   C     0.49208   0.86781   0.02380   0.00000  Uiso   1.00
Cu537  Cu    0.38022   0.83334   0.25000   0.00000  Uiso   1.00
Cu538  Cu    0.61978   0.83333   0.25000   0.00000  Uiso   1.00
H539   H     0.44551   0.86587   0.11557   0.00000  Uiso   1.00
H540   H     0.55435   0.86549   0.38442   0.00000  Uiso   1.00
H541   H     0.65207   0.80648   0.10525   0.00000  Uiso   1.00
H542   H     0.34814   0.80682   0.39481   0.00000  Uiso   1.00
H543   H     0.65212   0.81573   0.47493   0.00000  Uiso   1.00
H544   H     0.34812   0.81543   0.02509   0.00000  Uiso   1.00
H545   H     0.51790   0.87529   0.08106   0.00000  Uiso   1.00
H546   H     0.48212   0.87568   0.41894   0.00000  Uiso   1.00
H547   H     0.59228   0.70393   0.24973   0.00000  Uiso   1.00
H548   H     0.40772   0.96272   0.25026   0.00000  Uiso   1.00
H549   H     0.59232   0.96268   0.24966   0.00000  Uiso   1.00
H550   H     0.40768   0.70398   0.25034   0.00000  Uiso   1.00
H551   H     0.52358   0.79276   0.30537   0.00000  Uiso   1.00
H552   H     0.47643   0.87391   0.19461   0.00000  Uiso   1.00
H553   H     0.43818   0.79271   0.30533   0.00000  Uiso   1.00
H554   H     0.56181   0.87395   0.19465   0.00000  Uiso   1.00
N555   N     0.45069   0.83334   0.24999   0.00000  Uiso   1.00
N556   N     0.54931   0.83332   0.25001   0.00000  Uiso   1.00
O557   O     0.37291   0.77322   0.25000   0.00000  Uiso   1.00
O558   O     0.62709   0.89345   0.25000   0.00000  Uiso   1.00
O559   O     0.62706   0.77321   0.25000   0.00000  Uiso   1.00
O560   O     0.37294   0.89346   0.24999   0.00000  Uiso   1.00
O561   O     0.35186   0.83334   0.31491   0.00000  Uiso   1.00
O562   O     0.64814   0.83332   0.18508   0.00000  Uiso   1.00
O563   O     0.60600   0.83333   0.31492   0.00000  Uiso   1.00
O564   O     0.39400   0.83333   0.18508   0.00000  Uiso   1.00
N565   N     0.60952   0.86416   0.04581   0.00000  Uiso   1.00
H566   H     0.59986   0.84573   0.07393   0.00000  Uiso   1.00
C567   C     0.61944   0.90588   0.05665   0.00000  Uiso   1.00
H568   H     0.58794   0.91849   0.08365   0.00000  Uiso   1.00
H569   H     0.62700   0.92612   0.02680   0.00000  Uiso   1.00
H570   H     0.65150   0.90611   0.06849   0.00000  Uiso   1.00
N571   N     0.39043   0.86461   0.45432   0.00000  Uiso   1.00
H572   H     0.40038   0.84710   0.42556   0.00000  Uiso   1.00
C573   C     0.37964   0.90657   0.44500   0.00000  Uiso   1.00
H574   H     0.34779   0.90691   0.43285   0.00000  Uiso   1.00
H575   H     0.41102   0.92032   0.41873   0.00000  Uiso   1.00
H576   H     0.37133   0.92572   0.47565   0.00000  Uiso   1.00
C577   C     0.99998   0.75420   0.25002   0.00000  Uiso   1.00
C578   C     0.66669   0.91246   0.24998   0.00000  Uiso   1.00
C579   C     0.86035   0.86989   0.04564   0.00000  Uiso   1.00
C580   C     0.80636   0.87002   0.45433   0.00000  Uiso   1.00
C581   C     0.90861   0.86167   0.02258   0.00000  Uiso   1.00
C582   C     0.75810   0.86173   0.47741   0.00000  Uiso   1.00
C583   C     0.95827   0.68796   0.24985   0.00000  Uiso   1.00
C584   C     0.70840   0.97870   0.25015   0.00000  Uiso   1.00
C585   C     0.95829   0.97868   0.24981   0.00000  Uiso   1.00
C586   C     0.70837   0.68798   0.25019   0.00000  Uiso   1.00
C587   C     0.66669   0.95718   0.24997   0.00000  Uiso   1.00
C588   C     0.99998   0.70949   0.25003   0.00000  Uiso   1.00
C589   C     0.84734   0.81092   0.28065   0.00000  Uiso   1.00
C590   C     0.81933   0.85575   0.21935   0.00000  Uiso   1.00
C591   C     0.79816   0.81092   0.28063   0.00000  Uiso   1.00
C592   C     0.86851   0.85576   0.21937   0.00000  Uiso   1.00
C593   C     0.97165   0.83411   0.33569   0.00000  Uiso   1.00
C594   C     0.69502   0.83413   0.16432   0.00000  Uiso   1.00
C595   C     0.95392   0.83801   0.38438   0.00000  Uiso   1.00
C596   C     0.71276   0.83802   0.11563   0.00000  Uiso   1.00
C597   C     0.96520   0.82961   0.45604   0.00000  Uiso   1.00
C598   C     0.70160   0.82944   0.04397   0.00000  Uiso   1.00
C599   C     0.98121   0.82328   0.41013   0.00000  Uiso   1.00
C600   C     0.68559   0.82309   0.08990   0.00000  Uiso   1.00
C601   C     0.90845   0.85567   0.40541   0.00000  Uiso   1.00
C602   C     0.75818   0.85583   0.09458   0.00000  Uiso   1.00
C603   C     0.89074   0.86006   0.45236   0.00000  Uiso   1.00
C604   C     0.77596   0.86010   0.04761   0.00000  Uiso   1.00
C605   C     0.92237   0.85121   0.47701   0.00000  Uiso   1.00
C606   C     0.74437   0.85118   0.02298   0.00000  Uiso   1.00
C607   C     0.84131   0.86781   0.47616   0.00000  Uiso   1.00
C608   C     0.82541   0.86781   0.02380   0.00000  Uiso   1.00
Cu609  Cu    0.71355   0.83334   0.25000   0.00000  Uiso   1.00
Cu610  Cu    0.95311   0.83333   0.25000   0.00000  Uiso   1.00
H611   H     0.77884   0.86587   0.11557   0.00000  Uiso   1.00
H612   H     0.88768   0.86549   0.38442   0.00000  Uiso   1.00
H613   H     0.98541   0.80648   0.10525   0.00000  Uiso   1.00
H614   H     0.68147   0.80682   0.39481   0.00000  Uiso   1.00
H615   H     0.98545   0.81573   0.47493   0.00000  Uiso   1.00
H616   H     0.68145   0.81543   0.02509   0.00000  Uiso   1.00
H617   H     0.85124   0.87529   0.08106   0.00000  Uiso   1.00
H618   H     0.81545   0.87568   0.41894   0.00000  Uiso   1.00
H619   H     0.92562   0.70393   0.24973   0.00000  Uiso   1.00
H620   H     0.74105   0.96272   0.25026   0.00000  Uiso   1.00
H621   H     0.92565   0.96268   0.24966   0.00000  Uiso   1.00
H622   H     0.74101   0.70398   0.25034   0.00000  Uiso   1.00
H623   H     0.85691   0.79276   0.30537   0.00000  Uiso   1.00
H624   H     0.80976   0.87391   0.19461   0.00000  Uiso   1.00
H625   H     0.77152   0.79271   0.30533   0.00000  Uiso   1.00
H626   H     0.89515   0.87395   0.19465   0.00000  Uiso   1.00
N627   N     0.78403   0.83334   0.24999   0.00000  Uiso   1.00
N628   N     0.88264   0.83332   0.25001   0.00000  Uiso   1.00
O629   O     0.70625   0.77322   0.25000   0.00000  Uiso   1.00
O630   O     0.96042   0.89345   0.25000   0.00000  Uiso   1.00
O631   O     0.96039   0.77321   0.25000   0.00000  Uiso   1.00
O632   O     0.70628   0.89346   0.24999   0.00000  Uiso   1.00
O633   O     0.68519   0.83334   0.31491   0.00000  Uiso   1.00
O634   O     0.98148   0.83332   0.18508   0.00000  Uiso   1.00
O635   O     0.93933   0.83333   0.31492   0.00000  Uiso   1.00
O636   O     0.72733   0.83333   0.18508   0.00000  Uiso   1.00
N637   N     0.94286   0.86416   0.04581   0.00000  Uiso   1.00
H638   H     0.93319   0.84573   0.07393   0.00000  Uiso   1.00
C639   C     0.95277   0.90588   0.05665   0.00000  Uiso   1.00
H640   H     0.92127   0.91849   0.08365   0.00000  Uiso   1.00
H641   H     0.96033   0.92612   0.02680   0.00000  Uiso   1.00
H642   H     0.98484   0.90611   0.06849   0.00000  Uiso   1.00
N643   N     0.72376   0.86461   0.45432   0.00000  Uiso   1.00
H644   H     0.73371   0.84710   0.42556   0.00000  Uiso   1.00
C645   C     0.71298   0.90657   0.44500   0.00000  Uiso   1.00
H646   H     0.68112   0.90691   0.43285   0.00000  Uiso   1.00
H647   H     0.74436   0.92032   0.41873   0.00000  Uiso   1.00
H648   H     0.70466   0.92572   0.47565   0.00000  Uiso   1.00
C649   C     0.33331   0.08754   0.75002   0.00000  Uiso   1.00
C650   C     0.00002   0.24580   0.74998   0.00000  Uiso   1.00
C651   C     0.19368   0.20322   0.54564   0.00000  Uiso   1.00
C652   C     0.13970   0.20335   0.95433   0.00000  Uiso   1.00
C653   C     0.24194   0.19501   0.52258   0.00000  Uiso   1.00
C654   C     0.09144   0.19506   0.97741   0.00000  Uiso   1.00
C655   C     0.29160   0.02129   0.74985   0.00000  Uiso   1.00
C656   C     0.04173   0.31203   0.75015   0.00000  Uiso   1.00
C657   C     0.29163   0.31201   0.74981   0.00000  Uiso   1.00
C658   C     0.04171   0.02132   0.75019   0.00000  Uiso   1.00
C659   C     0.00002   0.29051   0.74997   0.00000  Uiso   1.00
C660   C     0.33331   0.04282   0.75003   0.00000  Uiso   1.00
C661   C     0.18067   0.14426   0.78065   0.00000  Uiso   1.00
C662   C     0.15266   0.18908   0.71935   0.00000  Uiso   1.00
C663   C     0.13149   0.14425   0.78063   0.00000  Uiso   1.00
C664   C     0.20184   0.18909   0.71937   0.00000  Uiso   1.00
C665   C     0.30498   0.16744   0.83569   0.00000  Uiso   1.00
C666   C     0.02835   0.16746   0.66432   0.00000  Uiso   1.00
C667   C     0.28725   0.17134   0.88438   0.00000  Uiso   1.00
C668   C     0.04610   0.17135   0.61563   0.00000  Uiso   1.00
C669   C     0.29853   0.16294   0.95604   0.00000  Uiso   1.00
C670   C     0.03493   0.16277   0.54397   0.00000  Uiso   1.00
C671   C     0.31454   0.15661   0.91013   0.00000  Uiso   1.00
C672   C     0.01892   0.15643   0.58990   0.00000  Uiso   1.00
C673   C     0.24178   0.18901   0.90541   0.00000  Uiso   1.00
C674   C     0.09152   0.18916   0.59458   0.00000  Uiso   1.00
C675   C     0.22407   0.19339   0.95236   0.00000  Uiso   1.00
C676   C     0.10930   0.19344   0.54761   0.00000  Uiso   1.00
C677   C     0.25570   0.18454   0.97701   0.00000  Uiso   1.00
C678   C     0.07770   0.18452   0.52298   0.00000  Uiso   1.00
C679   C     0.17465   0.20115   0.97616   0.00000  Uiso   1.00
C680   C     0.15875   0.20114   0.52380   0.00000  Uiso   1.00
Cu681  Cu    0.04689   0.16667   0.75000   0.00000  Uiso   1.00
Cu682  Cu    0.28645   0.16666   0.75000   0.00000  Uiso   1.00
H683   H     0.11218   0.19920   0.61557   0.00000  Uiso   1.00
H684   H     0.22101   0.19882   0.88442   0.00000  Uiso   1.00
H685   H     0.31874   0.13982   0.60525   0.00000  Uiso   1.00
H686   H     0.01481   0.14015   0.89481   0.00000  Uiso   1.00
H687   H     0.31878   0.14907   0.97493   0.00000  Uiso   1.00
H688   H     0.01478   0.14876   0.52509   0.00000  Uiso   1.00
H689   H     0.18457   0.20863   0.58106   0.00000  Uiso   1.00
H690   H     0.14878   0.20901   0.91894   0.00000  Uiso   1.00
H691   H     0.25895   0.03727   0.74973   0.00000  Uiso   1.00
H692   H     0.07439   0.29606   0.75026   0.00000  Uiso   1.00
H693   H     0.25899   0.29601   0.74966   0.00000  Uiso   1.00
H694   H     0.07435   0.03731   0.75034   0.00000  Uiso   1.00
H695   H     0.19024   0.12609   0.80537   0.00000  Uiso   1.00
H696   H     0.14310   0.20724   0.69461   0.00000  Uiso   1.00
H697   H     0.10485   0.12605   0.80533   0.00000  Uiso   1.00
H698   H     0.22848   0.20729   0.69465   0.00000  Uiso   1.00
N699   N     0.11736   0.16668   0.74999   0.00000  Uiso   1.00
N700   N     0.21597   0.16666   0.75001   0.00000  Uiso   1.00
O701   O     0.03958   0.10655   0.75000   0.00000  Uiso   1.00
O702   O     0.29375   0.22678   0.75000   0.00000  Uiso   1.00
O703   O     0.29372   0.10654   0.75000   0.00000  Uiso   1.00
O704   O     0.03961   0.22679   0.74999   0.00000  Uiso   1.00
O705   O     0.01852   0.16668   0.81491   0.00000  Uiso   1.00
O706   O     0.31481   0.16666   0.68508   0.00000  Uiso   1.00
O707   O     0.27267   0.16667   0.81492   0.00000  Uiso   1.00
O708   O     0.06067   0.16667   0.68508   0.00000  Uiso   1.00
N709   N     0.27619   0.19750   0.54581   0.00000  Uiso   1.00
H710   H     0.26652   0.17906   0.57393   0.00000  Uiso   1.00
C711   C     0.28610   0.23922   0.55665   0.00000  Uiso   1.00
H712   H     0.25461   0.25182   0.58365   0.00000  Uiso   1.00
H713   H     0.29367   0.25946   0.52680   0.00000  Uiso   1.00
H714   H     0.31817   0.23944   0.56849   0.00000  Uiso   1.00
N715   N     0.05710   0.19794   0.95432   0.00000  Uiso   1.00
H716   H     0.06705   0.18043   0.92556   0.00000  Uiso   1.00
C717   C     0.04631   0.23990   0.94500   0.00000  Uiso   1.00
H718   H     0.01446   0.24024   0.93285   0.00000  Uiso   1.00
H719   H     0.07769   0.25365   0.91873   0.00000  Uiso   1.00
H720   H     0.03799   0.25905   0.97565   0.00000  Uiso   1.00
C721   C     0.66664   0.08754   0.75002   0.00000  Uiso   1.00
C722   C     0.33336   0.24580   0.74998   0.00000  Uiso   1.00
C723   C     0.52701   0.20322   0.54564   0.00000  Uiso   1.00
C724   C     0.47303   0.20335   0.95433   0.00000  Uiso   1.00
C725   C     0.57528   0.19501   0.52258   0.00000  Uiso   1.00
C726   C     0.42477   0.19506   0.97741   0.00000  Uiso   1.00
C727   C     0.62494   0.02129   0.74985   0.00000  Uiso   1.00
C728   C     0.37506   0.31203   0.75015   0.00000  Uiso   1.00
C729   C     0.62496   0.31201   0.74981   0.00000  Uiso   1.00
C730   C     0.37504   0.02132   0.75019   0.00000  Uiso   1.00
C731   C     0.33335   0.29051   0.74997   0.00000  Uiso   1.00
C732   C     0.66665   0.04282   0.75003   0.00000  Uiso   1.00
C733   C     0.51401   0.14426   0.78065   0.00000  Uiso   1.00
C734   C     0.48599   0.18908   0.71935   0.00000  Uiso   1.00
C735   C     0.46482   0.14425   0.78063   0.00000  Uiso   1.00
C736   C     0.53518   0.18909   0.71937   0.00000  Uiso   1.00
C737   C     0.63831   0.16744   0.83569   0.00000  Uiso   1.00
C738   C     0.36169   0.16746   0.66432   0.00000  Uiso   1.00
C739   C     0.62059   0.17134   0.88438   0.00000  Uiso   1.00
C740   C     0.37943   0.17135   0.61563   0.00000  Uiso   1.00
C741   C     0.63186   0.16294   0.95604   0.00000  Uiso   1.00
C742   C     0.36827   0.16277   0.54397   0.00000  Uiso   1.00
C743   C     0.64788   0.15661   0.91013   0.00000  Uiso   1.00
C744   C     0.35225   0.15643   0.58990   0.00000  Uiso   1.00
C745   C     0.57512   0.18901   0.90541   0.00000  Uiso   1.00
C746   C     0.42485   0.18916   0.59458   0.00000  Uiso   1.00
C747   C     0.55741   0.19339   0.95236   0.00000  Uiso   1.00
C748   C     0.44263   0.19344   0.54761   0.00000  Uiso   1.00
C749   C     0.58903   0.18454   0.97701   0.00000  Uiso   1.00
C750   C     0.41103   0.18452   0.52298   0.00000  Uiso   1.00
C751   C     0.50798   0.20115   0.97616   0.00000  Uiso   1.00
C752   C     0.49208   0.20114   0.52380   0.00000  Uiso   1.00
Cu753  Cu    0.38022   0.16667   0.75000   0.00000  Uiso   1.00
Cu754  Cu    0.61978   0.16666   0.75000   0.00000  Uiso   1.00
H755   H     0.44551   0.19920   0.61557   0.00000  Uiso   1.00
H756   H     0.55435   0.19882   0.88442   0.00000  Uiso   1.00
H757   H     0.65207   0.13982   0.60525   0.00000  Uiso   1.00
H758   H     0.34814   0.14015   0.89481   0.00000  Uiso   1.00
H759   H     0.65212   0.14907   0.97493   0.00000  Uiso   1.00
H760   H     0.34812   0.14876   0.52509   0.00000  Uiso   1.00
H761   H     0.51790   0.20863   0.58106   0.00000  Uiso   1.00
H762   H     0.48212   0.20901   0.91894   0.00000  Uiso   1.00
H763   H     0.59228   0.03727   0.74973   0.00000  Uiso   1.00
H764   H     0.40772   0.29606   0.75026   0.00000  Uiso   1.00
H765   H     0.59232   0.29601   0.74966   0.00000  Uiso   1.00
H766   H     0.40768   0.03731   0.75034   0.00000  Uiso   1.00
H767   H     0.52358   0.12609   0.80537   0.00000  Uiso   1.00
H768   H     0.47643   0.20724   0.69461   0.00000  Uiso   1.00
H769   H     0.43818   0.12605   0.80533   0.00000  Uiso   1.00
H770   H     0.56181   0.20729   0.69465   0.00000  Uiso   1.00
N771   N     0.45069   0.16668   0.74999   0.00000  Uiso   1.00
N772   N     0.54931   0.16666   0.75001   0.00000  Uiso   1.00
O773   O     0.37291   0.10655   0.75000   0.00000  Uiso   1.00
O774   O     0.62709   0.22678   0.75000   0.00000  Uiso   1.00
O775   O     0.62706   0.10654   0.75000   0.00000  Uiso   1.00
O776   O     0.37294   0.22679   0.74999   0.00000  Uiso   1.00
O777   O     0.35186   0.16668   0.81491   0.00000  Uiso   1.00
O778   O     0.64814   0.16666   0.68508   0.00000  Uiso   1.00
O779   O     0.60600   0.16667   0.81492   0.00000  Uiso   1.00
O780   O     0.39400   0.16667   0.68508   0.00000  Uiso   1.00
N781   N     0.60952   0.19750   0.54581   0.00000  Uiso   1.00
H782   H     0.59986   0.17906   0.57393   0.00000  Uiso   1.00
C783   C     0.61944   0.23922   0.55665   0.00000  Uiso   1.00
H784   H     0.58794   0.25182   0.58365   0.00000  Uiso   1.00
H785   H     0.62700   0.25946   0.52680   0.00000  Uiso   1.00
H786   H     0.65150   0.23944   0.56849   0.00000  Uiso   1.00
N787   N     0.39043   0.19794   0.95432   0.00000  Uiso   1.00
H788   H     0.40038   0.18043   0.92556   0.00000  Uiso   1.00
C789   C     0.37964   0.23990   0.94500   0.00000  Uiso   1.00
H790   H     0.34779   0.24024   0.93285   0.00000  Uiso   1.00
H791   H     0.41102   0.25365   0.91873   0.00000  Uiso   1.00
H792   H     0.37133   0.25905   0.97565   0.00000  Uiso   1.00
C793   C     0.99998   0.08754   0.75002   0.00000  Uiso   1.00
C794   C     0.66669   0.24580   0.74998   0.00000  Uiso   1.00
C795   C     0.86035   0.20322   0.54564   0.00000  Uiso   1.00
C796   C     0.80636   0.20335   0.95433   0.00000  Uiso   1.00
C797   C     0.90861   0.19501   0.52258   0.00000  Uiso   1.00
C798   C     0.75810   0.19506   0.97741   0.00000  Uiso   1.00
C799   C     0.95827   0.02129   0.74985   0.00000  Uiso   1.00
C800   C     0.70840   0.31203   0.75015   0.00000  Uiso   1.00
C801   C     0.95829   0.31201   0.74981   0.00000  Uiso   1.00
C802   C     0.70837   0.02132   0.75019   0.00000  Uiso   1.00
C803   C     0.66669   0.29051   0.74997   0.00000  Uiso   1.00
C804   C     0.99998   0.04282   0.75003   0.00000  Uiso   1.00
C805   C     0.84734   0.14426   0.78065   0.00000  Uiso   1.00
C806   C     0.81933   0.18908   0.71935   0.00000  Uiso   1.00
C807   C     0.79816   0.14425   0.78063   0.00000  Uiso   1.00
C808   C     0.86851   0.18909   0.71937   0.00000  Uiso   1.00
C809   C     0.97165   0.16744   0.83569   0.00000  Uiso   1.00
C810   C     0.69502   0.16746   0.66432   0.00000  Uiso   1.00
C811   C     0.95392   0.17134   0.88438   0.00000  Uiso   1.00
C812   C     0.71276   0.17135   0.61563   0.00000  Uiso   1.00
C813   C     0.96520   0.16294   0.95604   0.00000  Uiso   1.00
C814   C     0.70160   0.16277   0.54397   0.00000  Uiso   1.00
C815   C     0.98121   0.15661   0.91013   0.00000  Uiso   1.00
C816   C     0.68559   0.15643   0.58990   0.00000  Uiso   1.00
C817   C     0.90845   0.18901   0.90541   0.00000  Uiso   1.00
C818   C     0.75818   0.18916   0.59458   0.00000  Uiso   1.00
C819   C     0.89074   0.19339   0.95236   0.00000  Uiso   1.00
C820   C     0.77596   0.19344   0.54761   0.00000  Uiso   1.00
C821   C     0.92237   0.18454   0.97701   0.00000  Uiso   1.00
C822   C     0.74437   0.18452   0.52298   0.00000  Uiso   1.00
C823   C     0.84131   0.20115   0.97616   0.00000  Uiso   1.00
C824   C     0.82541   0.20114   0.52380   0.00000  Uiso   1.00
Cu825  Cu    0.71355   0.16667   0.75000   0.00000  Uiso   1.00
Cu826  Cu    0.95311   0.16666   0.75000   0.00000  Uiso   1.00
H827   H     0.77884   0.19920   0.61557   0.00000  Uiso   1.00
H828   H     0.88768   0.19882   0.88442   0.00000  Uiso   1.00
H829   H     0.98541   0.13982   0.60525   0.00000  Uiso   1.00
H830   H     0.68147   0.14015   0.89481   0.00000  Uiso   1.00
H831   H     0.98545   0.14907   0.97493   0.00000  Uiso   1.00
H832   H     0.68145   0.14876   0.52509   0.00000  Uiso   1.00
H833   H     0.85124   0.20863   0.58106   0.00000  Uiso   1.00
H834   H     0.81545   0.20901   0.91894   0.00000  Uiso   1.00
H835   H     0.92562   0.03727   0.74973   0.00000  Uiso   1.00
H836   H     0.74105   0.29606   0.75026   0.00000  Uiso   1.00
H837   H     0.92565   0.29601   0.74966   0.00000  Uiso   1.00
H838   H     0.74101   0.03731   0.75034   0.00000  Uiso   1.00
H839   H     0.85691   0.12609   0.80537   0.00000  Uiso   1.00
H840   H     0.80976   0.20724   0.69461   0.00000  Uiso   1.00
H841   H     0.77152   0.12605   0.80533   0.00000  Uiso   1.00
H842   H     0.89515   0.20729   0.69465   0.00000  Uiso   1.00
N843   N     0.78403   0.16668   0.74999   0.00000  Uiso   1.00
N844   N     0.88264   0.16666   0.75001   0.00000  Uiso   1.00
O845   O     0.70625   0.10655   0.75000   0.00000  Uiso   1.00
O846   O     0.96042   0.22678   0.75000   0.00000  Uiso   1.00
O847   O     0.96039   0.10654   0.75000   0.00000  Uiso   1.00
O848   O     0.70628   0.22679   0.74999   0.00000  Uiso   1.00
O849   O     0.68519   0.16668   0.81491   0.00000  Uiso   1.00
O850   O     0.98148   0.16666   0.68508   0.00000  Uiso   1.00
O851   O     0.93933   0.16667   0.81492   0.00000  Uiso   1.00
O852   O     0.72733   0.16667   0.68508   0.00000  Uiso   1.00
N853   N     0.94286   0.19750   0.54581   0.00000  Uiso   1.00
H854   H     0.93319   0.17906   0.57393   0.00000  Uiso   1.00
C855   C     0.95277   0.23922   0.55665   0.00000  Uiso   1.00
H856   H     0.92127   0.25182   0.58365   0.00000  Uiso   1.00
H857   H     0.96033   0.25946   0.52680   0.00000  Uiso   1.00
H858   H     0.98484   0.23944   0.56849   0.00000  Uiso   1.00
N859   N     0.72376   0.19794   0.95432   0.00000  Uiso   1.00
H860   H     0.73371   0.18043   0.92556   0.00000  Uiso   1.00
C861   C     0.71298   0.23990   0.94500   0.00000  Uiso   1.00
H862   H     0.68112   0.24024   0.93285   0.00000  Uiso   1.00
H863   H     0.74436   0.25365   0.91873   0.00000  Uiso   1.00
H864   H     0.70466   0.25905   0.97565   0.00000  Uiso   1.00
C865   C     0.33331   0.42087   0.75002   0.00000  Uiso   1.00
C866   C     0.00002   0.57913   0.74998   0.00000  Uiso   1.00
C867   C     0.19368   0.53656   0.54564   0.00000  Uiso   1.00
C868   C     0.13970   0.53668   0.95433   0.00000  Uiso   1.00
C869   C     0.24194   0.52834   0.52258   0.00000  Uiso   1.00
C870   C     0.09144   0.52839   0.97741   0.00000  Uiso   1.00
C871   C     0.29160   0.35463   0.74985   0.00000  Uiso   1.00
C872   C     0.04173   0.64537   0.75015   0.00000  Uiso   1.00
C873   C     0.29163   0.64534   0.74981   0.00000  Uiso   1.00
C874   C     0.04171   0.35465   0.75019   0.00000  Uiso   1.00
C875   C     0.00002   0.62384   0.74997   0.00000  Uiso   1.00
C876   C     0.33331   0.37615   0.75003   0.00000  Uiso   1.00
C877   C     0.18067   0.47759   0.78065   0.00000  Uiso   1.00
C878   C     0.15266   0.52242   0.71935   0.00000  Uiso   1.00
C879   C     0.13149   0.47758   0.78063   0.00000  Uiso   1.00
C880   C     0.20184   0.52242   0.71937   0.00000  Uiso   1.00
C881   C     0.30498   0.50078   0.83569   0.00000  Uiso   1.00
C882   C     0.02835   0.50079   0.66432   0.00000  Uiso   1.00
C883   C     0.28725   0.50467   0.88438   0.00000  Uiso   1.00
C884   C     0.04610   0.50469   0.61563   0.00000  Uiso   1.00
C885   C     0.29853   0.49627   0.95604   0.00000  Uiso   1.00
C886   C     0.03493   0.49610   0.54397   0.00000  Uiso   1.00
C887   C     0.31454   0.48995   0.91013   0.00000  Uiso   1.00
C888   C     0.01892   0.48976   0.58990   0.00000  Uiso   1.00
C889   C     0.24178   0.52234   0.90541   0.00000  Uiso   1.00
C890   C     0.09152   0.52250   0.59458   0.00000  Uiso   1.00
C891   C     0.22407   0.52673   0.95236   0.00000  Uiso   1.00
C892   C     0.10930   0.52677   0.54761   0.00000  Uiso   1.00
C893   C     0.25570   0.51787   0.97701   0.00000  Uiso   1.00
C894   C     0.07770   0.51785   0.52298   0.00000  Uiso   1.00
C895   C     0.17465   0.53448   0.97616   0.00000  Uiso   1.00
C896   C     0.15875   0.53447   0.52380   0.00000  Uiso   1.00
Cu897  Cu    0.04689   0.50001   0.75000   0.00000  Uiso   1.00
Cu898  Cu    0.28645   0.49999   0.75000   0.00000  Uiso   1.00
H899   H     0.11218   0.53253   0.61557   0.00000  Uiso   1.00
H900   H     0.22101   0.53216   0.88442   0.00000  Uiso   1.00
H901   H     0.31874   0.47315   0.60525   0.00000  Uiso   1.00
H902   H     0.01481   0.47348   0.89481   0.00000  Uiso   1.00
H903   H     0.31878   0.48240   0.97493   0.00000  Uiso   1.00
H904   H     0.01478   0.48209   0.52509   0.00000  Uiso   1.00
H905   H     0.18457   0.54196   0.58106   0.00000  Uiso   1.00
H906   H     0.14878   0.54235   0.91894   0.00000  Uiso   1.00
H907   H     0.25895   0.37060   0.74973   0.00000  Uiso   1.00
H908   H     0.07439   0.62939   0.75026   0.00000  Uiso   1.00
H909   H     0.25899   0.62935   0.74966   0.00000  Uiso   1.00
H910   H     0.07435   0.37064   0.75034   0.00000  Uiso   1.00
H911   H     0.19024   0.45942   0.80537   0.00000  Uiso   1.00
H912   H     0.14310   0.54058   0.69461   0.00000  Uiso   1.00
H913   H     0.10485   0.45938   0.80533   0.00000  Uiso   1.00
H914   H     0.22848   0.54062   0.69465   0.00000  Uiso   1.00
N915   N     0.11736   0.50001   0.74999   0.00000  Uiso   1.00
N916   N     0.21597   0.49999   0.75001   0.00000  Uiso   1.00
O917   O     0.03958   0.43989   0.75000   0.00000  Uiso   1.00
O918   O     0.29375   0.56011   0.75000   0.00000  Uiso   1.00
O919   O     0.29372   0.43988   0.75000   0.00000  Uiso   1.00
O920   O     0.03961   0.56012   0.74999   0.00000  Uiso   1.00
O921   O     0.01852   0.50001   0.81491   0.00000  Uiso   1.00
O922   O     0.31481   0.49999   0.68508   0.00000  Uiso   1.00
O923   O     0.27267   0.50000   0.81492   0.00000  Uiso   1.00
O924   O     0.06067   0.50000   0.68508   0.00000  Uiso   1.00
N925   N     0.27619   0.53083   0.54581   0.00000  Uiso   1.00
H926   H     0.26652   0.51239   0.57393   0.00000  Uiso   1.00
C927   C     0.28610   0.57255   0.55665   0.00000  Uiso   1.00
H928   H     0.25461   0.58515   0.58365   0.00000  Uiso   1.00
H929   H     0.29367   0.59279   0.52680   0.00000  Uiso   1.00
H930   H     0.31817   0.57278   0.56849   0.00000  Uiso   1.00
N931   N     0.05710   0.53128   0.95432   0.00000  Uiso   1.00
H932   H     0.06705   0.51377   0.92556   0.00000  Uiso   1.00
C933   C     0.04631   0.57323   0.94500   0.00000  Uiso   1.00
H934   H     0.01446   0.57357   0.93285   0.00000  Uiso   1.00
H935   H     0.07769   0.58699   0.91873   0.00000  Uiso   1.00
H936   H     0.03799   0.59239   0.97565   0.00000  Uiso   1.00
C937   C     0.66664   0.42087   0.75002   0.00000  Uiso   1.00
C938   C     0.33336   0.57913   0.74998   0.00000  Uiso   1.00
C939   C     0.52701   0.53656   0.54564   0.00000  Uiso   1.00
C940   C     0.47303   0.53668   0.95433   0.00000  Uiso   1.00
C941   C     0.57528   0.52834   0.52258   0.00000  Uiso   1.00
C942   C     0.42477   0.52839   0.97741   0.00000  Uiso   1.00
C943   C     0.62494   0.35463   0.74985   0.00000  Uiso   1.00
C944   C     0.37506   0.64537   0.75015   0.00000  Uiso   1.00
C945   C     0.62496   0.64534   0.74981   0.00000  Uiso   1.00
C946   C     0.37504   0.35465   0.75019   0.00000  Uiso   1.00
C947   C     0.33335   0.62384   0.74997   0.00000  Uiso   1.00
C948   C     0.66665   0.37615   0.75003   0.00000  Uiso   1.00
C949   C     0.51401   0.47759   0.78065   0.00000  Uiso   1.00
C950   C     0.48599   0.52242   0.71935   0.00000  Uiso   1.00
C951   C     0.46482   0.47758   0.78063   0.00000  Uiso   1.00
C952   C     0.53518   0.52242   0.71937   0.00000  Uiso   1.00
C953   C     0.63831   0.50078   0.83569   0.00000  Uiso   1.00
C954   C     0.36169   0.50079   0.66432   0.00000  Uiso   1.00
C955   C     0.62059   0.50467   0.88438   0.00000  Uiso   1.00
C956   C     0.37943   0.50469   0.61563   0.00000  Uiso   1.00
C957   C     0.63186   0.49627   0.95604   0.00000  Uiso   1.00
C958   C     0.36827   0.49610   0.54397   0.00000  Uiso   1.00
C959   C     0.64788   0.48995   0.91013   0.00000  Uiso   1.00
C960   C     0.35225   0.48976   0.58990   0.00000  Uiso   1.00
C961   C     0.57512   0.52234   0.90541   0.00000  Uiso   1.00
C962   C     0.42485   0.52250   0.59458   0.00000  Uiso   1.00
C963   C     0.55741   0.52673   0.95236   0.00000  Uiso   1.00
C964   C     0.44263   0.52677   0.54761   0.00000  Uiso   1.00
C965   C     0.58903   0.51787   0.97701   0.00000  Uiso   1.00
C966   C     0.41103   0.51785   0.52298   0.00000  Uiso   1.00
C967   C     0.50798   0.53448   0.97616   0.00000  Uiso   1.00
C968   C     0.49208   0.53447   0.52380   0.00000  Uiso   1.00
Cu969  Cu    0.38022   0.50001   0.75000   0.00000  Uiso   1.00
Cu970  Cu    0.61978   0.49999   0.75000   0.00000  Uiso   1.00
H971   H     0.44551   0.53253   0.61557   0.00000  Uiso   1.00
H972   H     0.55435   0.53216   0.88442   0.00000  Uiso   1.00
H973   H     0.65207   0.47315   0.60525   0.00000  Uiso   1.00
H974   H     0.34814   0.47348   0.89481   0.00000  Uiso   1.00
H975   H     0.65212   0.48240   0.97493   0.00000  Uiso   1.00
H976   H     0.34812   0.48209   0.52509   0.00000  Uiso   1.00
H977   H     0.51790   0.54196   0.58106   0.00000  Uiso   1.00
H978   H     0.48212   0.54235   0.91894   0.00000  Uiso   1.00
H979   H     0.59228   0.37060   0.74973   0.00000  Uiso   1.00
H980   H     0.40772   0.62939   0.75026   0.00000  Uiso   1.00
H981   H     0.59232   0.62935   0.74966   0.00000  Uiso   1.00
H982   H     0.40768   0.37064   0.75034   0.00000  Uiso   1.00
H983   H     0.52358   0.45942   0.80537   0.00000  Uiso   1.00
H984   H     0.47643   0.54058   0.69461   0.00000  Uiso   1.00
H985   H     0.43818   0.45938   0.80533   0.00000  Uiso   1.00
H986   H     0.56181   0.54062   0.69465   0.00000  Uiso   1.00
N987   N     0.45069   0.50001   0.74999   0.00000  Uiso   1.00
N988   N     0.54931   0.49999   0.75001   0.00000  Uiso   1.00
O989   O     0.37291   0.43989   0.75000   0.00000  Uiso   1.00
O990   O     0.62709   0.56011   0.75000   0.00000  Uiso   1.00
O991   O     0.62706   0.43988   0.75000   0.00000  Uiso   1.00
O992   O     0.37294   0.56012   0.74999   0.00000  Uiso   1.00
O993   O     0.35186   0.50001   0.81491   0.00000  Uiso   1.00
O994   O     0.64814   0.49999   0.68508   0.00000  Uiso   1.00
O995   O     0.60600   0.50000   0.81492   0.00000  Uiso   1.00
O996   O     0.39400   0.50000   0.68508   0.00000  Uiso   1.00
N997   N     0.60952   0.53083   0.54581   0.00000  Uiso   1.00
H998   H     0.59986   0.51239   0.57393   0.00000  Uiso   1.00
C999   C     0.61944   0.57255   0.55665   0.00000  Uiso   1.00
H1000  H     0.58794   0.58515   0.58365   0.00000  Uiso   1.00
H1001  H     0.62700   0.59279   0.52680   0.00000  Uiso   1.00
H1002  H     0.65150   0.57278   0.56849   0.00000  Uiso   1.00
N1003  N     0.39043   0.53128   0.95432   0.00000  Uiso   1.00
H1004  H     0.40038   0.51377   0.92556   0.00000  Uiso   1.00
C1005  C     0.37964   0.57323   0.94500   0.00000  Uiso   1.00
H1006  H     0.34779   0.57357   0.93285   0.00000  Uiso   1.00
H1007  H     0.41102   0.58699   0.91873   0.00000  Uiso   1.00
H1008  H     0.37133   0.59239   0.97565   0.00000  Uiso   1.00
C1009  C     0.99998   0.42087   0.75002   0.00000  Uiso   1.00
C1010  C     0.66669   0.57913   0.74998   0.00000  Uiso   1.00
C1011  C     0.86035   0.53656   0.54564   0.00000  Uiso   1.00
C1012  C     0.80636   0.53668   0.95433   0.00000  Uiso   1.00
C1013  C     0.90861   0.52834   0.52258   0.00000  Uiso   1.00
C1014  C     0.75810   0.52839   0.97741   0.00000  Uiso   1.00
C1015  C     0.95827   0.35463   0.74985   0.00000  Uiso   1.00
C1016  C     0.70840   0.64537   0.75015   0.00000  Uiso   1.00
C1017  C     0.95829   0.64534   0.74981   0.00000  Uiso   1.00
C1018  C     0.70837   0.35465   0.75019   0.00000  Uiso   1.00
C1019  C     0.66669   0.62384   0.74997   0.00000  Uiso   1.00
C1020  C     0.99998   0.37615   0.75003   0.00000  Uiso   1.00
C1021  C     0.84734   0.47759   0.78065   0.00000  Uiso   1.00
C1022  C     0.81933   0.52242   0.71935   0.00000  Uiso   1.00
C1023  C     0.79816   0.47758   0.78063   0.00000  Uiso   1.00
C1024  C     0.86851   0.52242   0.71937   0.00000  Uiso   1.00
C1025  C     0.97165   0.50078   0.83569   0.00000  Uiso   1.00
C1026  C     0.69502   0.50079   0.66432   0.00000  Uiso   1.00
C1027  C     0.95392   0.50467   0.88438   0.00000  Uiso   1.00
C1028  C     0.71276   0.50469   0.61563   0.00000  Uiso   1.00
C1029  C     0.96520   0.49627   0.95604   0.00000  Uiso   1.00
C1030  C     0.70160   0.49610   0.54397   0.00000  Uiso   1.00
C1031  C     0.98121   0.48995   0.91013   0.00000  Uiso   1.00
C1032  C     0.68559   0.48976   0.58990   0.00000  Uiso   1.00
C1033  C     0.90845   0.52234   0.90541   0.00000  Uiso   1.00
C1034  C     0.75818   0.52250   0.59458   0.00000  Uiso   1.00
C1035  C     0.89074   0.52673   0.95236   0.00000  Uiso   1.00
C1036  C     0.77596   0.52677   0.54761   0.00000  Uiso   1.00
C1037  C     0.92237   0.51787   0.97701   0.00000  Uiso   1.00
C1038  C     0.74437   0.51785   0.52298   0.00000  Uiso   1.00
C1039  C     0.84131   0.53448   0.97616   0.00000  Uiso   1.00
C1040  C     0.82541   0.53447   0.52380   0.00000  Uiso   1.00
Cu1041 Cu    0.71355   0.50001   0.75000   0.00000  Uiso   1.00
Cu1042 Cu    0.95311   0.49999   0.75000   0.00000  Uiso   1.00
H1043  H     0.77884   0.53253   0.61557   0.00000  Uiso   1.00
H1044  H     0.88768   0.53216   0.88442   0.00000  Uiso   1.00
H1045  H     0.98541   0.47315   0.60525   0.00000  Uiso   1.00
H1046  H     0.68147   0.47348   0.89481   0.00000  Uiso   1.00
H1047  H     0.98545   0.48240   0.97493   0.00000  Uiso   1.00
H1048  H     0.68145   0.48209   0.52509   0.00000  Uiso   1.00
H1049  H     0.85124   0.54196   0.58106   0.00000  Uiso   1.00
H1050  H     0.81545   0.54235   0.91894   0.00000  Uiso   1.00
H1051  H     0.92562   0.37060   0.74973   0.00000  Uiso   1.00
H1052  H     0.74105   0.62939   0.75026   0.00000  Uiso   1.00
H1053  H     0.92565   0.62935   0.74966   0.00000  Uiso   1.00
H1054  H     0.74101   0.37064   0.75034   0.00000  Uiso   1.00
H1055  H     0.85691   0.45942   0.80537   0.00000  Uiso   1.00
H1056  H     0.80976   0.54058   0.69461   0.00000  Uiso   1.00
H1057  H     0.77152   0.45938   0.80533   0.00000  Uiso   1.00
H1058  H     0.89515   0.54062   0.69465   0.00000  Uiso   1.00
N1059  N     0.78403   0.50001   0.74999   0.00000  Uiso   1.00
N1060  N     0.88264   0.49999   0.75001   0.00000  Uiso   1.00
O1061  O     0.70625   0.43989   0.75000   0.00000  Uiso   1.00
O1062  O     0.96042   0.56011   0.75000   0.00000  Uiso   1.00
O1063  O     0.96039   0.43988   0.75000   0.00000  Uiso   1.00
O1064  O     0.70628   0.56012   0.74999   0.00000  Uiso   1.00
O1065  O     0.68519   0.50001   0.81491   0.00000  Uiso   1.00
O1066  O     0.98148   0.49999   0.68508   0.00000  Uiso   1.00
O1067  O     0.93933   0.50000   0.81492   0.00000  Uiso   1.00
O1068  O     0.72733   0.50000   0.68508   0.00000  Uiso   1.00
N1069  N     0.94286   0.53083   0.54581   0.00000  Uiso   1.00
H1070  H     0.93319   0.51239   0.57393   0.00000  Uiso   1.00
C1071  C     0.95277   0.57255   0.55665   0.00000  Uiso   1.00
H1072  H     0.92127   0.58515   0.58365   0.00000  Uiso   1.00
H1073  H     0.96033   0.59279   0.52680   0.00000  Uiso   1.00
H1074  H     0.98484   0.57278   0.56849   0.00000  Uiso   1.00
N1075  N     0.72376   0.53128   0.95432   0.00000  Uiso   1.00
H1076  H     0.73371   0.51377   0.92556   0.00000  Uiso   1.00
C1077  C     0.71298   0.57323   0.94500   0.00000  Uiso   1.00
H1078  H     0.68112   0.57357   0.93285   0.00000  Uiso   1.00
H1079  H     0.74436   0.58699   0.91873   0.00000  Uiso   1.00
H1080  H     0.70466   0.59239   0.97565   0.00000  Uiso   1.00
C1081  C     0.33331   0.75420   0.75002   0.00000  Uiso   1.00
C1082  C     0.00002   0.91246   0.74998   0.00000  Uiso   1.00
C1083  C     0.19368   0.86989   0.54564   0.00000  Uiso   1.00
C1084  C     0.13970   0.87002   0.95433   0.00000  Uiso   1.00
C1085  C     0.24194   0.86167   0.52258   0.00000  Uiso   1.00
C1086  C     0.09144   0.86173   0.97741   0.00000  Uiso   1.00
C1087  C     0.29160   0.68796   0.74985   0.00000  Uiso   1.00
C1088  C     0.04173   0.97870   0.75015   0.00000  Uiso   1.00
C1089  C     0.29163   0.97868   0.74981   0.00000  Uiso   1.00
C1090  C     0.04171   0.68798   0.75019   0.00000  Uiso   1.00
C1091  C     0.00002   0.95718   0.74997   0.00000  Uiso   1.00
C1092  C     0.33331   0.70949   0.75003   0.00000  Uiso   1.00
C1093  C     0.18067   0.81092   0.78065   0.00000  Uiso   1.00
C1094  C     0.15266   0.85575   0.71935   0.00000  Uiso   1.00
C1095  C     0.13149   0.81092   0.78063   0.00000  Uiso   1.00
C1096  C     0.20184   0.85576   0.71937   0.00000  Uiso   1.00
C1097  C     0.30498   0.83411   0.83569   0.00000  Uiso   1.00
C1098  C     0.02835   0.83413   0.66432   0.00000  Uiso   1.00
C1099  C     0.28725   0.83801   0.88438   0.00000  Uiso   1.00
C1100  C     0.04610   0.83802   0.61563   0.00000  Uiso   1.00
C1101  C     0.29853   0.82961   0.95604   0.00000  Uiso   1.00
C1102  C     0.03493   0.82944   0.54397   0.00000  Uiso   1.00
C1103  C     0.31454   0.82328   0.91013   0.00000  Uiso   1.00
C1104  C     0.01892   0.82309   0.58990   0.00000  Uiso   1.00
C1105  C     0.24178   0.85567   0.90541   0.00000  Uiso   1.00
C1106  C     0.09152   0.85583   0.59458   0.00000  Uiso   1.00
C1107  C     0.22407   0.86006   0.95236   0.00000  Uiso   1.00
C1108  C     0.10930   0.86010   0.54761   0.00000  Uiso   1.00
C1109  C     0.25570   0.85121   0.97701   0.00000  Uiso   1.00
C1110  C     0.07770   0.85118   0.52298   0.00000  Uiso   1.00
C1111  C     0.17465   0.86781   0.97616   0.00000  Uiso   1.00
C1112  C     0.15875   0.86781   0.52380   0.00000  Uiso   1.00
Cu1113 Cu    0.04689   0.83334   0.75000   0.00000  Uiso   1.00
Cu1114 Cu    0.28645   0.83333   0.75000   0.00000  Uiso   1.00
H1115  H     0.11218   0.86587   0.61557   0.00000  Uiso   1.00
H1116  H     0.22101   0.86549   0.88442   0.00000  Uiso   1.00
H1117  H     0.31874   0.80648   0.60525   0.00000  Uiso   1.00
H1118  H     0.01481   0.80682   0.89481   0.00000  Uiso   1.00
H1119  H     0.31878   0.81573   0.97493   0.00000  Uiso   1.00
H1120  H     0.01478   0.81543   0.52509   0.00000  Uiso   1.00
H1121  H     0.18457   0.87529   0.58106   0.00000  Uiso   1.00
H1122  H     0.14878   0.87568   0.91894   0.00000  Uiso   1.00
H1123  H     0.25895   0.70393   0.74973   0.00000  Uiso   1.00
H1124  H     0.07439   0.96272   0.75026   0.00000  Uiso   1.00
H1125  H     0.25899   0.96268   0.74966   0.00000  Uiso   1.00
H1126  H     0.07435   0.70398   0.75034   0.00000  Uiso   1.00
H1127  H     0.19024   0.79276   0.80537   0.00000  Uiso   1.00
H1128  H     0.14310   0.87391   0.69461   0.00000  Uiso   1.00
H1129  H     0.10485   0.79271   0.80533   0.00000  Uiso   1.00
H1130  H     0.22848   0.87395   0.69465   0.00000  Uiso   1.00
N1131  N     0.11736   0.83334   0.74999   0.00000  Uiso   1.00
N1132  N     0.21597   0.83332   0.75001   0.00000  Uiso   1.00
O1133  O     0.03958   0.77322   0.75000   0.00000  Uiso   1.00
O1134  O     0.29375   0.89345   0.75000   0.00000  Uiso   1.00
O1135  O     0.29372   0.77321   0.75000   0.00000  Uiso   1.00
O1136  O     0.03961   0.89346   0.74999   0.00000  Uiso   1.00
O1137  O     0.01852   0.83334   0.81491   0.00000  Uiso   1.00
O1138  O     0.31481   0.83332   0.68508   0.00000  Uiso   1.00
O1139  O     0.27267   0.83333   0.81492   0.00000  Uiso   1.00
O1140  O     0.06067   0.83333   0.68508   0.00000  Uiso   1.00
N1141  N     0.27619   0.86416   0.54581   0.00000  Uiso   1.00
H1142  H     0.26652   0.84573   0.57393   0.00000  Uiso   1.00
C1143  C     0.28610   0.90588   0.55665   0.00000  Uiso   1.00
H1144  H     0.25461   0.91849   0.58365   0.00000  Uiso   1.00
H1145  H     0.29367   0.92612   0.52680   0.00000  Uiso   1.00
H1146  H     0.31817   0.90611   0.56849   0.00000  Uiso   1.00
N1147  N     0.05710   0.86461   0.95432   0.00000  Uiso   1.00
H1148  H     0.06705   0.84710   0.92556   0.00000  Uiso   1.00
C1149  C     0.04631   0.90657   0.94500   0.00000  Uiso   1.00
H1150  H     0.01446   0.90691   0.93285   0.00000  Uiso   1.00
H1151  H     0.07769   0.92032   0.91873   0.00000  Uiso   1.00
H1152  H     0.03799   0.92572   0.97565   0.00000  Uiso   1.00
C1153  C     0.66664   0.75420   0.75002   0.00000  Uiso   1.00
C1154  C     0.33336   0.91246   0.74998   0.00000  Uiso   1.00
C1155  C     0.52701   0.86989   0.54564   0.00000  Uiso   1.00
C1156  C     0.47303   0.87002   0.95433   0.00000  Uiso   1.00
C1157  C     0.57528   0.86167   0.52258   0.00000  Uiso   1.00
C1158  C     0.42477   0.86173   0.97741   0.00000  Uiso   1.00
C1159  C     0.62494   0.68796   0.74985   0.00000  Uiso   1.00
C1160  C     0.37506   0.97870   0.75015   0.00000  Uiso   1.00
C1161  C     0.62496   0.97868   0.74981   0.00000  Uiso   1.00
C1162  C     0.37504   0.68798   0.75019   0.00000  Uiso   1.00
C1163  C     0.33335   0.95718   0.74997   0.00000  Uiso   1.00
C1164  C     0.66665   0.70949   0.75003   0.00000  Uiso   1.00
C1165  C     0.51401   0.81092   0.78065   0.00000  Uiso   1.00
C1166  C     0.48599   0.85575   0.71935   0.00000  Uiso   1.00
C1167  C     0.46482   0.81092   0.78063   0.00000  Uiso   1.00
C1168  C     0.53518   0.85576   0.71937   0.00000  Uiso   1.00
C1169  C     0.63831   0.83411   0.83569   0.00000  Uiso   1.00
C1170  C     0.36169   0.83413   0.66432   0.00000  Uiso   1.00
C1171  C     0.62059   0.83801   0.88438   0.00000  Uiso   1.00
C1172  C     0.37943   0.83802   0.61563   0.00000  Uiso   1.00
C1173  C     0.63186   0.82961   0.95604   0.00000  Uiso   1.00
C1174  C     0.36827   0.82944   0.54397   0.00000  Uiso   1.00
C1175  C     0.64788   0.82328   0.91013   0.00000  Uiso   1.00
C1176  C     0.35225   0.82309   0.58990   0.00000  Uiso   1.00
C1177  C     0.57512   0.85567   0.90541   0.00000  Uiso   1.00
C1178  C     0.42485   0.85583   0.59458   0.00000  Uiso   1.00
C1179  C     0.55741   0.86006   0.95236   0.00000  Uiso   1.00
C1180  C     0.44263   0.86010   0.54761   0.00000  Uiso   1.00
C1181  C     0.58903   0.85121   0.97701   0.00000  Uiso   1.00
C1182  C     0.41103   0.85118   0.52298   0.00000  Uiso   1.00
C1183  C     0.50798   0.86781   0.97616   0.00000  Uiso   1.00
C1184  C     0.49208   0.86781   0.52380   0.00000  Uiso   1.00
Cu1185 Cu    0.38022   0.83334   0.75000   0.00000  Uiso   1.00
Cu1186 Cu    0.61978   0.83333   0.75000   0.00000  Uiso   1.00
H1187  H     0.44551   0.86587   0.61557   0.00000  Uiso   1.00
H1188  H     0.55435   0.86549   0.88442   0.00000  Uiso   1.00
H1189  H     0.65207   0.80648   0.60525   0.00000  Uiso   1.00
H1190  H     0.34814   0.80682   0.89481   0.00000  Uiso   1.00
H1191  H     0.65212   0.81573   0.97493   0.00000  Uiso   1.00
H1192  H     0.34812   0.81543   0.52509   0.00000  Uiso   1.00
H1193  H     0.51790   0.87529   0.58106   0.00000  Uiso   1.00
H1194  H     0.48212   0.87568   0.91894   0.00000  Uiso   1.00
H1195  H     0.59228   0.70393   0.74973   0.00000  Uiso   1.00
H1196  H     0.40772   0.96272   0.75026   0.00000  Uiso   1.00
H1197  H     0.59232   0.96268   0.74966   0.00000  Uiso   1.00
H1198  H     0.40768   0.70398   0.75034   0.00000  Uiso   1.00
H1199  H     0.52358   0.79276   0.80537   0.00000  Uiso   1.00
H1200  H     0.47643   0.87391   0.69461   0.00000  Uiso   1.00
H1201  H     0.43818   0.79271   0.80533   0.00000  Uiso   1.00
H1202  H     0.56181   0.87395   0.69465   0.00000  Uiso   1.00
N1203  N     0.45069   0.83334   0.74999   0.00000  Uiso   1.00
N1204  N     0.54931   0.83332   0.75001   0.00000  Uiso   1.00
O1205  O     0.37291   0.77322   0.75000   0.00000  Uiso   1.00
O1206  O     0.62709   0.89345   0.75000   0.00000  Uiso   1.00
O1207  O     0.62706   0.77321   0.75000   0.00000  Uiso   1.00
O1208  O     0.37294   0.89346   0.74999   0.00000  Uiso   1.00
O1209  O     0.35186   0.83334   0.81491   0.00000  Uiso   1.00
O1210  O     0.64814   0.83332   0.68508   0.00000  Uiso   1.00
O1211  O     0.60600   0.83333   0.81492   0.00000  Uiso   1.00
O1212  O     0.39400   0.83333   0.68508   0.00000  Uiso   1.00
N1213  N     0.60952   0.86416   0.54581   0.00000  Uiso   1.00
H1214  H     0.59986   0.84573   0.57393   0.00000  Uiso   1.00
C1215  C     0.61944   0.90588   0.55665   0.00000  Uiso   1.00
H1216  H     0.58794   0.91849   0.58365   0.00000  Uiso   1.00
H1217  H     0.62700   0.92612   0.52680   0.00000  Uiso   1.00
H1218  H     0.65150   0.90611   0.56849   0.00000  Uiso   1.00
N1219  N     0.39043   0.86461   0.95432   0.00000  Uiso   1.00
H1220  H     0.40038   0.84710   0.92556   0.00000  Uiso   1.00
C1221  C     0.37964   0.90657   0.94500   0.00000  Uiso   1.00
H1222  H     0.34779   0.90691   0.93285   0.00000  Uiso   1.00
H1223  H     0.41102   0.92032   0.91873   0.00000  Uiso   1.00
H1224  H     0.37133   0.92572   0.97565   0.00000  Uiso   1.00
C1225  C     0.99998   0.75420   0.75002   0.00000  Uiso   1.00
C1226  C     0.66669   0.91246   0.74998   0.00000  Uiso   1.00
C1227  C     0.86035   0.86989   0.54564   0.00000  Uiso   1.00
C1228  C     0.80636   0.87002   0.95433   0.00000  Uiso   1.00
C1229  C     0.90861   0.86167   0.52258   0.00000  Uiso   1.00
C1230  C     0.75810   0.86173   0.97741   0.00000  Uiso   1.00
C1231  C     0.95827   0.68796   0.74985   0.00000  Uiso   1.00
C1232  C     0.70840   0.97870   0.75015   0.00000  Uiso   1.00
C1233  C     0.95829   0.97868   0.74981   0.00000  Uiso   1.00
C1234  C     0.70837   0.68798   0.75019   0.00000  Uiso   1.00
C1235  C     0.66669   0.95718   0.74997   0.00000  Uiso   1.00
C1236  C     0.99998   0.70949   0.75003   0.00000  Uiso   1.00
C1237  C     0.84734   0.81092   0.78065   0.00000  Uiso   1.00
C1238  C     0.81933   0.85575   0.71935   0.00000  Uiso   1.00
C1239  C     0.79816   0.81092   0.78063   0.00000  Uiso   1.00
C1240  C     0.86851   0.85576   0.71937   0.00000  Uiso   1.00
C1241  C     0.97165   0.83411   0.83569   0.00000  Uiso   1.00
C1242  C     0.69502   0.83413   0.66432   0.00000  Uiso   1.00
C1243  C     0.95392   0.83801   0.88438   0.00000  Uiso   1.00
C1244  C     0.71276   0.83802   0.61563   0.00000  Uiso   1.00
C1245  C     0.96520   0.82961   0.95604   0.00000  Uiso   1.00
C1246  C     0.70160   0.82944   0.54397   0.00000  Uiso   1.00
C1247  C     0.98121   0.82328   0.91013   0.00000  Uiso   1.00
C1248  C     0.68559   0.82309   0.58990   0.00000  Uiso   1.00
C1249  C     0.90845   0.85567   0.90541   0.00000  Uiso   1.00
C1250  C     0.75818   0.85583   0.59458   0.00000  Uiso   1.00
C1251  C     0.89074   0.86006   0.95236   0.00000  Uiso   1.00
C1252  C     0.77596   0.86010   0.54761   0.00000  Uiso   1.00
C1253  C     0.92237   0.85121   0.97701   0.00000  Uiso   1.00
C1254  C     0.74437   0.85118   0.52298   0.00000  Uiso   1.00
C1255  C     0.84131   0.86781   0.97616   0.00000  Uiso   1.00
C1256  C     0.82541   0.86781   0.52380   0.00000  Uiso   1.00
Cu1257 Cu    0.71355   0.83334   0.75000   0.00000  Uiso   1.00
Cu1258 Cu    0.95311   0.83333   0.75000   0.00000  Uiso   1.00
H1259  H     0.77884   0.86587   0.61557   0.00000  Uiso   1.00
H1260  H     0.88768   0.86549   0.88442   0.00000  Uiso   1.00
H1261  H     0.98541   0.80648   0.60525   0.00000  Uiso   1.00
H1262  H     0.68147   0.80682   0.89481   0.00000  Uiso   1.00
H1263  H     0.98545   0.81573   0.97493   0.00000  Uiso   1.00
H1264  H     0.68145   0.81543   0.52509   0.00000  Uiso   1.00
H1265  H     0.85124   0.87529   0.58106   0.00000  Uiso   1.00
H1266  H     0.81545   0.87568   0.91894   0.00000  Uiso   1.00
H1267  H     0.92562   0.70393   0.74973   0.00000  Uiso   1.00
H1268  H     0.74105   0.96272   0.75026   0.00000  Uiso   1.00
H1269  H     0.92565   0.96268   0.74966   0.00000  Uiso   1.00
H1270  H     0.74101   0.70398   0.75034   0.00000  Uiso   1.00
H1271  H     0.85691   0.79276   0.80537   0.00000  Uiso   1.00
H1272  H     0.80976   0.87391   0.69461   0.00000  Uiso   1.00
H1273  H     0.77152   0.79271   0.80533   0.00000  Uiso   1.00
H1274  H     0.89515   0.87395   0.69465   0.00000  Uiso   1.00
N1275  N     0.78403   0.83334   0.74999   0.00000  Uiso   1.00
N1276  N     0.88264   0.83332   0.75001   0.00000  Uiso   1.00
O1277  O     0.70625   0.77322   0.75000   0.00000  Uiso   1.00
O1278  O     0.96042   0.89345   0.75000   0.00000  Uiso   1.00
O1279  O     0.96039   0.77321   0.75000   0.00000  Uiso   1.00
O1280  O     0.70628   0.89346   0.74999   0.00000  Uiso   1.00
O1281  O     0.68519   0.83334   0.81491   0.00000  Uiso   1.00
O1282  O     0.98148   0.83332   0.68508   0.00000  Uiso   1.00
O1283  O     0.93933   0.83333   0.81492   0.00000  Uiso   1.00
O1284  O     0.72733   0.83333   0.68508   0.00000  Uiso   1.00
N1285  N     0.94286   0.86416   0.54581   0.00000  Uiso   1.00
H1286  H     0.93319   0.84573   0.57393   0.00000  Uiso   1.00
C1287  C     0.95277   0.90588   0.55665   0.00000  Uiso   1.00
H1288  H     0.92127   0.91849   0.58365   0.00000  Uiso   1.00
H1289  H     0.96033   0.92612   0.52680   0.00000  Uiso   1.00
H1290  H     0.98484   0.90611   0.56849   0.00000  Uiso   1.00
N1291  N     0.72376   0.86461   0.95432   0.00000  Uiso   1.00
H1292  H     0.73371   0.84710   0.92556   0.00000  Uiso   1.00
C1293  C     0.71298   0.90657   0.94500   0.00000  Uiso   1.00
H1294  H     0.68112   0.90691   0.93285   0.00000  Uiso   1.00
H1295  H     0.74436   0.92032   0.91873   0.00000  Uiso   1.00
H1296  H     0.70466   0.92572   0.97565   0.00000  Uiso   1.00
loop_
_geom_bond_atom_site_label_1
_geom_bond_atom_site_label_2
_geom_bond_distance
_geom_bond_site_symmetry_2
_ccdc_geom_bond_type
C1     O55     1.306   .     A
C1     C12     1.452   .     S
C1     O125    1.306   .     S
C2     O56     1.306   .     A
C2     C11     1.452   .     S
C2     O198    1.306   1_455 S
C3     C32     1.399   .     A
C3     C5      1.386   .     A
C3     H41     1.077   .     S
C4     H42     1.077   .     S
C4     C31     1.399   .     A
C4     C6      1.386   .     A
C5     N61     1.414   .     S
C5     C677    1.405   1_554 S
C6     N67     1.414   .     S
C6     C678    1.405   .     S
C7     C12     1.401   .     A
C7     H43     1.083   .     S
C7     C441    1.384   1_545 S
C8     H44     1.083   .     S
C8     C11     1.401   .     A
C8     C226    1.384   .     S
C9     H45     1.083   .     S
C9     C223    1.384   .     S
C9     C83     1.401   .     S
C10    H46     1.083   .     S
C10    C440    1.384   1_545 S
C10    C156    1.401   1_455 S
C11    C153    1.401   1_455 S
C12    C82     1.401   .     S
C13    C15     1.430   .     A
C13    H47     1.082   .     S
C13    N52     1.372   .     A
C14    C16     1.431   .     A
C14    H48     1.082   .     S
C14    N51     1.372   .     A
C15    N51     1.372   .     A
C15    H49     1.082   .     S
C16    N52     1.372   .     A
C16    H50     1.082   .     S
C17    O59     1.306   .     A
C17    C19     1.461   .     S
C17    O129    1.311   .     S
C18    O60     1.305   .     A
C18    C20     1.461   .     S
C18    O202    1.311   1_455 S
C19    C23     1.388   .     A
C19    C25     1.400   .     A
C20    C24     1.388   .     A
C20    C26     1.400   .     A
C21    H39     1.062   .     S
C21    C23     1.388   .     A
C21    C29     1.399   .     A
C22    H40     1.062   .     S
C22    C24     1.388   .     A
C22    C30     1.399   .     A
C23    H110    1.083   .     S
C24    H181    1.083   1_455 S
C25    H36     1.076   .     S
C25    C27     1.411   .     A
C26    C28     1.411   .     A
C26    H35     1.077   .     S
C27    C29     1.410   .     A
C27    C31     1.416   .     A
C28    C30     1.409   .     A
C28    C32     1.416   .     A
C29    C653    1.405   .     S
C30    C654    1.405   1_554 S
C31    C680    1.424   .     S
C32    C679    1.424   1_554 S
Cu33   N51     2.049   .     S
Cu33   O57     1.948   .     S
Cu33   O56     1.963   .     S
Cu33   O60     1.956   .     S
Cu33   O53     1.963   .     S
Cu33   Cu178   2.727   1_455 S
Cu34   N52     2.049   .     S
Cu34   O55     1.963   .     S
Cu34   O59     1.956   .     S
Cu34   O54     1.963   .     S
Cu34   O58     1.948   .     S
Cu34   Cu105   2.727   .     S
H37    C96     1.083   .     S
H38    C167    1.083   1_455 S
O53    C145    1.306   1_455 S
O54    C74     1.306   .     S
O57    C161    1.311   1_455 S
O58    C90     1.311   .     S
N61    C63     1.449   .     S
N61    H62     1.031   .     S
C63    H65     1.110   .     S
C63    H66     1.109   .     S
C63    H64     1.111   .     S
N67    H68     1.031   .     S
N67    C69     1.448   .     S
C69    H72     1.110   .     S
C69    H70     1.110   .     S
C69    H71     1.111   .     S
C73    O127    1.306   .     A
C73    C84     1.452   .     S
C73    O197    1.306   .     S
C74    O128    1.306   .     A
C74    C83     1.452   .     S
C75    C104    1.399   .     A
C75    C77     1.386   .     A
C75    H113    1.077   .     S
C76    H114    1.077   .     S
C76    C103    1.399   .     A
C76    C78     1.386   .     A
C77    N133    1.414   .     S
C77    C749    1.405   1_554 S
C78    N139    1.414   .     S
C78    C750    1.405   .     S
C79    C84     1.401   .     A
C79    H115    1.083   .     S
C79    C513    1.384   1_545 S
C80    H116    1.083   .     S
C80    C83     1.401   .     A
C80    C298    1.384   .     S
C81    H117    1.083   .     S
C81    C295    1.384   .     S
C81    C155    1.401   .     S
C82    H118    1.083   .     S
C82    C512    1.384   1_545 S
C84    C154    1.401   .     S
C85    C87     1.430   .     A
C85    H119    1.082   .     S
C85    N124    1.372   .     A
C86    C88     1.431   .     A
C86    H120    1.082   .     S
C86    N123    1.372   .     A
C87    N123    1.372   .     A
C87    H121    1.082   .     S
C88    N124    1.372   .     A
C88    H122    1.082   .     S
C89    O131    1.306   .     A
C89    C91     1.461   .     S
C89    O201    1.311   .     S
C90    O132    1.305   .     A
C90    C92     1.461   .     S
C91    C95     1.388   .     A
C91    C97     1.400   .     A
C92    C96     1.388   .     A
C92    C98     1.400   .     A
C93    H111    1.062   .     S
C93    C95     1.388   .     A
C93    C101    1.399   .     A
C94    H112    1.062   .     S
C94    C96     1.388   .     A
C94    C102    1.399   .     A
C95    H182    1.083   .     S
C97    H108    1.076   .     S
C97    C99     1.411   .     A
C98    C100    1.411   .     A
C98    H107    1.077   .     S
C99    C101    1.410   .     A
C99    C103    1.416   .     A
C100   C102    1.409   .     A
C100   C104    1.416   .     A
C101   C725    1.405   .     S
C102   C726    1.405   1_554 S
C103   C752    1.424   .     S
C104   C751    1.424   1_554 S
Cu105  N123    2.049   .     S
Cu105  O129    1.948   .     S
Cu105  O128    1.963   .     S
Cu105  O132    1.956   .     S
Cu105  O125    1.963   .     S
Cu106  N124    2.049   .     S
Cu106  O127    1.963   .     S
Cu106  O131    1.956   .     S
Cu106  O126    1.963   .     S
Cu106  O130    1.948   .     S
Cu106  Cu177   2.727   .     S
H109   C168    1.083   .     S
O126   C146    1.306   .     S
O130   C162    1.311   .     S
N133   C135    1.449   .     S
N133   H134    1.031   .     S
C135   H137    1.110   .     S
C135   H138    1.109   .     S
C135   H136    1.111   .     S
N139   H140    1.031   .     S
N139   C141    1.448   .     S
C141   H144    1.110   .     S
C141   H142    1.110   .     S
C141   H143    1.111   .     S
C145   O199    1.306   .     A
C145   C156    1.452   .     S
C145   O53     1.306   1_655 S
C146   O200    1.306   .     A
C146   C155    1.452   .     S
C147   C176    1.399   .     A
C147   C149    1.386   .     A
C147   H185    1.077   .     S
C148   H186    1.077   .     S
C148   C175    1.399   .     A
C148   C150    1.386   .     A
C149   N205    1.414   .     S
C149   C821    1.405   1_554 S
C150   N211    1.414   .     S
C150   C822    1.405   .     S
C151   C156    1.401   .     A
C151   H187    1.083   .     S
C151   C585    1.384   1_545 S
C152   H188    1.083   .     S
C152   C155    1.401   .     A
C152   C370    1.384   .     S
C153   H189    1.083   .     S
C153   C367    1.384   .     S
C153   C11     1.401   1_655 S
C154   H190    1.083   .     S
C154   C584    1.384   1_545 S
C156   C10     1.401   1_655 S
C157   C159    1.430   .     A
C157   H191    1.082   .     S
C157   N196    1.372   .     A
C158   C160    1.431   .     A
C158   H192    1.082   .     S
C158   N195    1.372   .     A
C159   N195    1.372   .     A
C159   H193    1.082   .     S
C160   N196    1.372   .     A
C160   H194    1.082   .     S
C161   O203    1.306   .     A
C161   C163    1.461   .     S
C161   O57     1.311   1_655 S
C162   O204    1.305   .     A
C162   C164    1.461   .     S
C163   C167    1.388   .     A
C163   C169    1.400   .     A
C164   C168    1.388   .     A
C164   C170    1.400   .     A
C165   H183    1.062   .     S
C165   C167    1.388   .     A
C165   C173    1.399   .     A
C166   H184    1.062   .     S
C166   C168    1.388   .     A
C166   C174    1.399   .     A
C167   H38     1.083   1_655 S
C169   H180    1.076   .     S
C169   C171    1.411   .     A
C170   C172    1.411   .     A
C170   H179    1.077   .     S
C171   C173    1.410   .     A
C171   C175    1.416   .     A
C172   C174    1.409   .     A
C172   C176    1.416   .     A
C173   C797    1.405   .     S
C174   C798    1.405   1_554 S
C175   C824    1.424   .     S
C176   C823    1.424   1_554 S
Cu177  N195    2.049   .     S
Cu177  O201    1.948   .     S
Cu177  O200    1.963   .     S
Cu177  O204    1.956   .     S
Cu177  O197    1.963   .     S
Cu178  N196    2.049   .     S
Cu178  O199    1.963   .     S
Cu178  O203    1.956   .     S
Cu178  O198    1.963   .     S
Cu178  O202    1.948   .     S
Cu178  Cu33    2.727   1_655 S
H181   C24     1.083   1_655 S
O198   C2      1.306   1_655 S
O202   C18     1.311   1_655 S
N205   C207    1.449   .     S
N205   H206    1.031   .     S
C207   H209    1.110   .     S
C207   H210    1.109   .     S
C207   H208    1.111   .     S
N211   H212    1.031   .     S
N211   C213    1.448   .     S
C213   H216    1.110   .     S
C213   H214    1.110   .     S
C213   H215    1.111   .     S
C217   O271    1.306   .     A
C217   C228    1.452   .     S
C217   O341    1.306   .     S
C218   O272    1.306   .     A
C218   C227    1.452   .     S
C218   O414    1.306   1_455 S
C219   C248    1.399   .     A
C219   C221    1.386   .     A
C219   H257    1.077   .     S
C220   H258    1.077   .     S
C220   C247    1.399   .     A
C220   C222    1.386   .     A
C221   N277    1.414   .     S
C221   C893    1.405   1_554 S
C222   N283    1.414   .     S
C222   C894    1.405   .     S
C223   C228    1.401   .     A
C223   H259    1.083   .     S
C224   H260    1.083   .     S
C224   C227    1.401   .     A
C224   C442    1.384   .     S
C225   H261    1.083   .     S
C225   C439    1.384   .     S
C225   C299    1.401   .     S
C226   H262    1.083   .     S
C226   C372    1.401   1_455 S
C227   C369    1.401   1_455 S
C228   C298    1.401   .     S
C229   C231    1.430   .     A
C229   H263    1.082   .     S
C229   N268    1.372   .     A
C230   C232    1.431   .     A
C230   H264    1.082   .     S
C230   N267    1.372   .     A
C231   N267    1.372   .     A
C231   H265    1.082   .     S
C232   N268    1.372   .     A
C232   H266    1.082   .     S
C233   O275    1.306   .     A
C233   C235    1.461   .     S
C233   O345    1.311   .     S
C234   O276    1.305   .     A
C234   C236    1.461   .     S
C234   O418    1.311   1_455 S
C235   C239    1.388   .     A
C235   C241    1.400   .     A
C236   C240    1.388   .     A
C236   C242    1.400   .     A
C237   H255    1.062   .     S
C237   C239    1.388   .     A
C237   C245    1.399   .     A
C238   H256    1.062   .     S
C238   C240    1.388   .     A
C238   C246    1.399   .     A
C239   H326    1.083   .     S
C240   H397    1.083   1_455 S
C241   H252    1.076   .     S
C241   C243    1.411   .     A
C242   C244    1.411   .     A
C242   H251    1.077   .     S
C243   C245    1.410   .     A
C243   C247    1.416   .     A
C244   C246    1.409   .     A
C244   C248    1.416   .     A
C245   C869    1.405   .     S
C246   C870    1.405   1_554 S
C247   C896    1.424   .     S
C248   C895    1.424   1_554 S
Cu249  N267    2.049   .     S
Cu249  O273    1.948   .     S
Cu249  O272    1.963   .     S
Cu249  O276    1.956   .     S
Cu249  O269    1.963   .     S
Cu249  Cu394   2.727   1_455 S
Cu250  N268    2.049   .     S
Cu250  O271    1.963   .     S
Cu250  O275    1.956   .     S
Cu250  O270    1.963   .     S
Cu250  O274    1.948   .     S
Cu250  Cu321   2.727   .     S
H253   C312    1.083   .     S
H254   C383    1.083   1_455 S
O269   C361    1.306   1_455 S
O270   C290    1.306   .     S
O273   C377    1.311   1_455 S
O274   C306    1.311   .     S
N277   C279    1.449   .     S
N277   H278    1.031   .     S
C279   H281    1.110   .     S
C279   H282    1.109   .     S
C279   H280    1.111   .     S
N283   H284    1.031   .     S
N283   C285    1.448   .     S
C285   H288    1.110   .     S
C285   H286    1.110   .     S
C285   H287    1.111   .     S
C289   O343    1.306   .     A
C289   C300    1.452   .     S
C289   O413    1.306   .     S
C290   O344    1.306   .     A
C290   C299    1.452   .     S
C291   C320    1.399   .     A
C291   C293    1.386   .     A
C291   H329    1.077   .     S
C292   H330    1.077   .     S
C292   C319    1.399   .     A
C292   C294    1.386   .     A
C293   N349    1.414   .     S
C293   C965    1.405   1_554 S
C294   N355    1.414   .     S
C294   C966    1.405   .     S
C295   C300    1.401   .     A
C295   H331    1.083   .     S
C296   H332    1.083   .     S
C296   C299    1.401   .     A
C296   C514    1.384   .     S
C297   H333    1.083   .     S
C297   C511    1.384   .     S
C297   C371    1.401   .     S
C298   H334    1.083   .     S
C300   C370    1.401   .     S
C301   C303    1.430   .     A
C301   H335    1.082   .     S
C301   N340    1.372   .     A
C302   C304    1.431   .     A
C302   H336    1.082   .     S
C302   N339    1.372   .     A
C303   N339    1.372   .     A
C303   H337    1.082   .     S
C304   N340    1.372   .     A
C304   H338    1.082   .     S
C305   O347    1.306   .     A
C305   C307    1.461   .     S
C305   O417    1.311   .     S
C306   O348    1.305   .     A
C306   C308    1.461   .     S
C307   C311    1.388   .     A
C307   C313    1.400   .     A
C308   C312    1.388   .     A
C308   C314    1.400   .     A
C309   H327    1.062   .     S
C309   C311    1.388   .     A
C309   C317    1.399   .     A
C310   H328    1.062   .     S
C310   C312    1.388   .     A
C310   C318    1.399   .     A
C311   H398    1.083   .     S
C313   H324    1.076   .     S
C313   C315    1.411   .     A
C314   C316    1.411   .     A
C314   H323    1.077   .     S
C315   C317    1.410   .     A
C315   C319    1.416   .     A
C316   C318    1.409   .     A
C316   C320    1.416   .     A
C317   C941    1.405   .     S
C318   C942    1.405   1_554 S
C319   C968    1.424   .     S
C320   C967    1.424   1_554 S
Cu321  N339    2.049   .     S
Cu321  O345    1.948   .     S
Cu321  O344    1.963   .     S
Cu321  O348    1.956   .     S
Cu321  O341    1.963   .     S
Cu322  N340    2.049   .     S
Cu322  O343    1.963   .     S
Cu322  O347    1.956   .     S
Cu322  O342    1.963   .     S
Cu322  O346    1.948   .     S
Cu322  Cu393   2.727   .     S
H325   C384    1.083   .     S
O342   C362    1.306   .     S
O346   C378    1.311   .     S
N349   C351    1.449   .     S
N349   H350    1.031   .     S
C351   H353    1.110   .     S
C351   H354    1.109   .     S
C351   H352    1.111   .     S
N355   H356    1.031   .     S
N355   C357    1.448   .     S
C357   H360    1.110   .     S
C357   H358    1.110   .     S
C357   H359    1.111   .     S
C361   O415    1.306   .     A
C361   C372    1.452   .     S
C361   O269    1.306   1_655 S
C362   O416    1.306   .     A
C362   C371    1.452   .     S
C363   C392    1.399   .     A
C363   C365    1.386   .     A
C363   H401    1.077   .     S
C364   H402    1.077   .     S
C364   C391    1.399   .     A
C364   C366    1.386   .     A
C365   N421    1.414   .     S
C365   C1037   1.405   1_554 S
C366   N427    1.414   .     S
C366   C1038   1.405   .     S
C367   C372    1.401   .     A
C367   H403    1.083   .     S
C368   H404    1.083   .     S
C368   C371    1.401   .     A
C368   C586    1.384   .     S
C369   H405    1.083   .     S
C369   C583    1.384   .     S
C369   C227    1.401   1_655 S
C370   H406    1.083   .     S
C372   C226    1.401   1_655 S
C373   C375    1.430   .     A
C373   H407    1.082   .     S
C373   N412    1.372   .     A
C374   C376    1.431   .     A
C374   H408    1.082   .     S
C374   N411    1.372   .     A
C375   N411    1.372   .     A
C375   H409    1.082   .     S
C376   N412    1.372   .     A
C376   H410    1.082   .     S
C377   O419    1.306   .     A
C377   C379    1.461   .     S
C377   O273    1.311   1_655 S
C378   O420    1.305   .     A
C378   C380    1.461   .     S
C379   C383    1.388   .     A
C379   C385    1.400   .     A
C380   C384    1.388   .     A
C380   C386    1.400   .     A
C381   H399    1.062   .     S
C381   C383    1.388   .     A
C381   C389    1.399   .     A
C382   H400    1.062   .     S
C382   C384    1.388   .     A
C382   C390    1.399   .     A
C383   H254    1.083   1_655 S
C385   H396    1.076   .     S
C385   C387    1.411   .     A
C386   C388    1.411   .     A
C386   H395    1.077   .     S
C387   C389    1.410   .     A
C387   C391    1.416   .     A
C388   C390    1.409   .     A
C388   C392    1.416   .     A
C389   C1013   1.405   .     S
C390   C1014   1.405   1_554 S
C391   C1040   1.424   .     S
C392   C1039   1.424   1_554 S
Cu393  N411    2.049   .     S
Cu393  O417    1.948   .     S
Cu393  O416    1.963   .     S
Cu393  O420    1.956   .     S
Cu393  O413    1.963   .     S
Cu394  N412    2.049   .     S
Cu394  O415    1.963   .     S
Cu394  O419    1.956   .     S
Cu394  O414    1.963   .     S
Cu394  O418    1.948   .     S
Cu394  Cu249   2.727   1_655 S
H397   C240    1.083   1_655 S
O414   C218    1.306   1_655 S
O418   C234    1.311   1_655 S
N421   C423    1.449   .     S
N421   H422    1.031   .     S
C423   H425    1.110   .     S
C423   H426    1.109   .     S
C423   H424    1.111   .     S
N427   H428    1.031   .     S
N427   C429    1.448   .     S
C429   H432    1.110   .     S
C429   H430    1.110   .     S
C429   H431    1.111   .     S
C433   O487    1.306   .     A
C433   C444    1.452   .     S
C433   O557    1.306   .     S
C434   O488    1.306   .     A
C434   C443    1.452   .     S
C434   O630    1.306   1_455 S
C435   C464    1.399   .     A
C435   C437    1.386   .     A
C435   H473    1.077   .     S
C436   H474    1.077   .     S
C436   C463    1.399   .     A
C436   C438    1.386   .     A
C437   N493    1.414   .     S
C437   C1109   1.405   1_554 S
C438   N499    1.414   .     S
C438   C1110   1.405   .     S
C439   C444    1.401   .     A
C439   H475    1.083   .     S
C440   H476    1.083   .     S
C440   C443    1.401   .     A
C440   C10     1.384   1_565 S
C441   H477    1.083   .     S
C441   C7      1.384   1_565 S
C441   C515    1.401   .     S
C442   H478    1.083   .     S
C442   C588    1.401   1_455 S
C443   C585    1.401   1_455 S
C444   C514    1.401   .     S
C445   C447    1.430   .     A
C445   H479    1.082   .     S
C445   N484    1.372   .     A
C446   C448    1.431   .     A
C446   H480    1.082   .     S
C446   N483    1.372   .     A
C447   N483    1.372   .     A
C447   H481    1.082   .     S
C448   N484    1.372   .     A
C448   H482    1.082   .     S
C449   O491    1.306   .     A
C449   C451    1.461   .     S
C449   O561    1.311   .     S
C450   O492    1.305   .     A
C450   C452    1.461   .     S
C450   O634    1.311   1_455 S
C451   C455    1.388   .     A
C451   C457    1.400   .     A
C452   C456    1.388   .     A
C452   C458    1.400   .     A
C453   H471    1.062   .     S
C453   C455    1.388   .     A
C453   C461    1.399   .     A
C454   H472    1.062   .     S
C454   C456    1.388   .     A
C454   C462    1.399   .     A
C455   H542    1.083   .     S
C456   H613    1.083   1_455 S
C457   H468    1.076   .     S
C457   C459    1.411   .     A
C458   C460    1.411   .     A
C458   H467    1.077   .     S
C459   C461    1.410   .     A
C459   C463    1.416   .     A
C460   C462    1.409   .     A
C460   C464    1.416   .     A
C461   C1085   1.405   .     S
C462   C1086   1.405   1_554 S
C463   C1112   1.424   .     S
C464   C1111   1.424   1_554 S
Cu465  N483    2.049   .     S
Cu465  O489    1.948   .     S
Cu465  O488    1.963   .     S
Cu465  O492    1.956   .     S
Cu465  O485    1.963   .     S
Cu465  Cu610   2.727   1_455 S
Cu466  N484    2.049   .     S
Cu466  O487    1.963   .     S
Cu466  O491    1.956   .     S
Cu466  O486    1.963   .     S
Cu466  O490    1.948   .     S
Cu466  Cu537   2.727   .     S
H469   C528    1.083   .     S
H470   C599    1.083   1_455 S
O485   C577    1.306   1_455 S
O486   C506    1.306   .     S
O489   C593    1.311   1_455 S
O490   C522    1.311   .     S
N493   C495    1.449   .     S
N493   H494    1.031   .     S
C495   H497    1.110   .     S
C495   H498    1.109   .     S
C495   H496    1.111   .     S
N499   H500    1.031   .     S
N499   C501    1.448   .     S
C501   H504    1.110   .     S
C501   H502    1.110   .     S
C501   H503    1.111   .     S
C505   O559    1.306   .     A
C505   C516    1.452   .     S
C505   O629    1.306   .     S
C506   O560    1.306   .     A
C506   C515    1.452   .     S
C507   C536    1.399   .     A
C507   C509    1.386   .     A
C507   H545    1.077   .     S
C508   H546    1.077   .     S
C508   C535    1.399   .     A
C508   C510    1.386   .     A
C509   N565    1.414   .     S
C509   C1181   1.405   1_554 S
C510   N571    1.414   .     S
C510   C1182   1.405   .     S
C511   C516    1.401   .     A
C511   H547    1.083   .     S
C512   H548    1.083   .     S
C512   C515    1.401   .     A
C512   C82     1.384   1_565 S
C513   H549    1.083   .     S
C513   C79     1.384   1_565 S
C513   C587    1.401   .     S
C514   H550    1.083   .     S
C516   C586    1.401   .     S
C517   C519    1.430   .     A
C517   H551    1.082   .     S
C517   N556    1.372   .     A
C518   C520    1.431   .     A
C518   H552    1.082   .     S
C518   N555    1.372   .     A
C519   N555    1.372   .     A
C519   H553    1.082   .     S
C520   N556    1.372   .     A
C520   H554    1.082   .     S
C521   O563    1.306   .     A
C521   C523    1.461   .     S
C521   O633    1.311   .     S
C522   O564    1.305   .     A
C522   C524    1.461   .     S
C523   C527    1.388   .     A
C523   C529    1.400   .     A
C524   C528    1.388   .     A
C524   C530    1.400   .     A
C525   H543    1.062   .     S
C525   C527    1.388   .     A
C525   C533    1.399   .     A
C526   H544    1.062   .     S
C526   C528    1.388   .     A
C526   C534    1.399   .     A
C527   H614    1.083   .     S
C529   H540    1.076   .     S
C529   C531    1.411   .     A
C530   C532    1.411   .     A
C530   H539    1.077   .     S
C531   C533    1.410   .     A
C531   C535    1.416   .     A
C532   C534    1.409   .     A
C532   C536    1.416   .     A
C533   C1157   1.405   .     S
C534   C1158   1.405   1_554 S
C535   C1184   1.424   .     S
C536   C1183   1.424   1_554 S
Cu537  N555    2.049   .     S
Cu537  O561    1.948   .     S
Cu537  O560    1.963   .     S
Cu537  O564    1.956   .     S
Cu537  O557    1.963   .     S
Cu538  N556    2.049   .     S
Cu538  O559    1.963   .     S
Cu538  O563    1.956   .     S
Cu538  O558    1.963   .     S
Cu538  O562    1.948   .     S
Cu538  Cu609   2.727   .     S
H541   C600    1.083   .     S
O558   C578    1.306   .     S
O562   C594    1.311   .     S
N565   C567    1.449   .     S
N565   H566    1.031   .     S
C567   H569    1.110   .     S
C567   H570    1.109   .     S
C567   H568    1.111   .     S
N571   H572    1.031   .     S
N571   C573    1.448   .     S
C573   H576    1.110   .     S
C573   H574    1.110   .     S
C573   H575    1.111   .     S
C577   O631    1.306   .     A
C577   C588    1.452   .     S
C577   O485    1.306   1_655 S
C578   O632    1.306   .     A
C578   C587    1.452   .     S
C579   C608    1.399   .     A
C579   C581    1.386   .     A
C579   H617    1.077   .     S
C580   H618    1.077   .     S
C580   C607    1.399   .     A
C580   C582    1.386   .     A
C581   N637    1.414   .     S
C581   C1253   1.405   1_554 S
C582   N643    1.414   .     S
C582   C1254   1.405   .     S
C583   C588    1.401   .     A
C583   H619    1.083   .     S
C584   H620    1.083   .     S
C584   C587    1.401   .     A
C584   C154    1.384   1_565 S
C585   H621    1.083   .     S
C585   C151    1.384   1_565 S
C585   C443    1.401   1_655 S
C586   H622    1.083   .     S
C588   C442    1.401   1_655 S
C589   C591    1.430   .     A
C589   H623    1.082   .     S
C589   N628    1.372   .     A
C590   C592    1.431   .     A
C590   H624    1.082   .     S
C590   N627    1.372   .     A
C591   N627    1.372   .     A
C591   H625    1.082   .     S
C592   N628    1.372   .     A
C592   H626    1.082   .     S
C593   O635    1.306   .     A
C593   C595    1.461   .     S
C593   O489    1.311   1_655 S
C594   O636    1.305   .     A
C594   C596    1.461   .     S
C595   C599    1.388   .     A
C595   C601    1.400   .     A
C596   C600    1.388   .     A
C596   C602    1.400   .     A
C597   H615    1.062   .     S
C597   C599    1.388   .     A
C597   C605    1.399   .     A
C598   H616    1.062   .     S
C598   C600    1.388   .     A
C598   C606    1.399   .     A
C599   H470    1.083   1_655 S
C601   H612    1.076   .     S
C601   C603    1.411   .     A
C602   C604    1.411   .     A
C602   H611    1.077   .     S
C603   C605    1.410   .     A
C603   C607    1.416   .     A
C604   C606    1.409   .     A
C604   C608    1.416   .     A
C605   C1229   1.405   .     S
C606   C1230   1.405   1_554 S
C607   C1256   1.424   .     S
C608   C1255   1.424   1_554 S
Cu609  N627    2.049   .     S
Cu609  O633    1.948   .     S
Cu609  O632    1.963   .     S
Cu609  O636    1.956   .     S
Cu609  O629    1.963   .     S
Cu610  N628    2.049   .     S
Cu610  O631    1.963   .     S
Cu610  O635    1.956   .     S
Cu610  O630    1.963   .     S
Cu610  O634    1.948   .     S
Cu610  Cu465   2.727   1_655 S
H613   C456    1.083   1_655 S
O630   C434    1.306   1_655 S
O634   C450    1.311   1_655 S
N637   C639    1.449   .     S
N637   H638    1.031   .     S
C639   H641    1.110   .     S
C639   H642    1.109   .     S
C639   H640    1.111   .     S
N643   H644    1.031   .     S
N643   C645    1.448   .     S
C645   H648    1.110   .     S
C645   H646    1.110   .     S
C645   H647    1.111   .     S
C649   O703    1.306   .     A
C649   C660    1.452   .     S
C649   O773    1.306   .     S
C650   O704    1.306   .     A
C650   C659    1.452   .     S
C650   O846    1.306   1_455 S
C651   C680    1.399   .     A
C651   C653    1.386   .     A
C651   H689    1.077   .     S
C652   H690    1.077   .     S
C652   C679    1.399   .     A
C652   C654    1.386   .     A
C653   N709    1.414   .     S
C654   N715    1.414   .     S
C654   C30     1.405   1_556 S
C655   C660    1.401   .     A
C655   H691    1.083   .     S
C655   C1089   1.384   1_545 S
C656   H692    1.083   .     S
C656   C659    1.401   .     A
C656   C874    1.384   .     S
C657   H693    1.083   .     S
C657   C871    1.384   .     S
C657   C731    1.401   .     S
C658   H694    1.083   .     S
C658   C1088   1.384   1_545 S
C658   C804    1.401   1_455 S
C659   C801    1.401   1_455 S
C660   C730    1.401   .     S
C661   C663    1.430   .     A
C661   H695    1.082   .     S
C661   N700    1.372   .     A
C662   C664    1.431   .     A
C662   H696    1.082   .     S
C662   N699    1.372   .     A
C663   N699    1.372   .     A
C663   H697    1.082   .     S
C664   N700    1.372   .     A
C664   H698    1.082   .     S
C665   O707    1.306   .     A
C665   C667    1.461   .     S
C665   O777    1.311   .     S
C666   O708    1.305   .     A
C666   C668    1.461   .     S
C666   O850    1.311   1_455 S
C667   C671    1.388   .     A
C667   C673    1.400   .     A
C668   C672    1.388   .     A
C668   C674    1.400   .     A
C669   H687    1.062   .     S
C669   C671    1.388   .     A
C669   C677    1.399   .     A
C670   H688    1.062   .     S
C670   C672    1.388   .     A
C670   C678    1.399   .     A
C671   H758    1.083   .     S
C672   H829    1.083   1_455 S
C673   H684    1.076   .     S
C673   C675    1.411   .     A
C674   C676    1.411   .     A
C674   H683    1.077   .     S
C675   C677    1.410   .     A
C675   C679    1.416   .     A
C676   C678    1.409   .     A
C676   C680    1.416   .     A
C677   C5      1.405   1_556 S
C679   C32     1.424   1_556 S
Cu681  N699    2.049   .     S
Cu681  O705    1.948   .     S
Cu681  O704    1.963   .     S
Cu681  O708    1.956   .     S
Cu681  O701    1.963   .     S
Cu681  Cu826   2.727   1_455 S
Cu682  N700    2.049   .     S
Cu682  O703    1.963   .     S
Cu682  O707    1.956   .     S
Cu682  O702    1.963   .     S
Cu682  O706    1.948   .     S
Cu682  Cu753   2.727   .     S
H685   C744    1.083   .     S
H686   C815    1.083   1_455 S
O701   C793    1.306   1_455 S
O702   C722    1.306   .     S
O705   C809    1.311   1_455 S
O706   C738    1.311   .     S
N709   C711    1.449   .     S
N709   H710    1.031   .     S
C711   H713    1.110   .     S
C711   H714    1.109   .     S
C711   H712    1.111   .     S
N715   H716    1.031   .     S
N715   C717    1.448   .     S
C717   H720    1.110   .     S
C717   H718    1.110   .     S
C717   H719    1.111   .     S
C721   O775    1.306   .     A
C721   C732    1.452   .     S
C721   O845    1.306   .     S
C722   O776    1.306   .     A
C722   C731    1.452   .     S
C723   C752    1.399   .     A
C723   C725    1.386   .     A
C723   H761    1.077   .     S
C724   H762    1.077   .     S
C724   C751    1.399   .     A
C724   C726    1.386   .     A
C725   N781    1.414   .     S
C726   N787    1.414   .     S
C726   C102    1.405   1_556 S
C727   C732    1.401   .     A
C727   H763    1.083   .     S
C727   C1161   1.384   1_545 S
C728   H764    1.083   .     S
C728   C731    1.401   .     A
C728   C946    1.384   .     S
C729   H765    1.083   .     S
C729   C943    1.384   .     S
C729   C803    1.401   .     S
C730   H766    1.083   .     S
C730   C1160   1.384   1_545 S
C732   C802    1.401   .     S
C733   C735    1.430   .     A
C733   H767    1.082   .     S
C733   N772    1.372   .     A
C734   C736    1.431   .     A
C734   H768    1.082   .     S
C734   N771    1.372   .     A
C735   N771    1.372   .     A
C735   H769    1.082   .     S
C736   N772    1.372   .     A
C736   H770    1.082   .     S
C737   O779    1.306   .     A
C737   C739    1.461   .     S
C737   O849    1.311   .     S
C738   O780    1.305   .     A
C738   C740    1.461   .     S
C739   C743    1.388   .     A
C739   C745    1.400   .     A
C740   C744    1.388   .     A
C740   C746    1.400   .     A
C741   H759    1.062   .     S
C741   C743    1.388   .     A
C741   C749    1.399   .     A
C742   H760    1.062   .     S
C742   C744    1.388   .     A
C742   C750    1.399   .     A
C743   H830    1.083   .     S
C745   H756    1.076   .     S
C745   C747    1.411   .     A
C746   C748    1.411   .     A
C746   H755    1.077   .     S
C747   C749    1.410   .     A
C747   C751    1.416   .     A
C748   C750    1.409   .     A
C748   C752    1.416   .     A
C749   C77     1.405   1_556 S
C751   C104    1.424   1_556 S
Cu753  N771    2.049   .     S
Cu753  O777    1.948   .     S
Cu753  O776    1.963   .     S
Cu753  O780    1.956   .     S
Cu753  O773    1.963   .     S
Cu754  N772    2.049   .     S
Cu754  O775    1.963   .     S
Cu754  O779    1.956   .     S
Cu754  O774    1.963   .     S
Cu754  O778    1.948   .     S
Cu754  Cu825   2.727   .     S
H757   C816    1.083   .     S
O774   C794    1.306   .     S
O778   C810    1.311   .     S
N781   C783    1.449   .     S
N781   H782    1.031   .     S
C783   H785    1.110   .     S
C783   H786    1.109   .     S
C783   H784    1.111   .     S
N787   H788    1.031   .     S
N787   C789    1.448   .     S
C789   H792    1.110   .     S
C789   H790    1.110   .     S
C789   H791    1.111   .     S
C793   O847    1.306   .     A
C793   C804    1.452   .     S
C793   O701    1.306   1_655 S
C794   O848    1.306   .     A
C794   C803    1.452   .     S
C795   C824    1.399   .     A
C795   C797    1.386   .     A
C795   H833    1.077   .     S
C796   H834    1.077   .     S
C796   C823    1.399   .     A
C796   C798    1.386   .     A
C797   N853    1.414   .     S
C798   N859    1.414   .     S
C798   C174    1.405   1_556 S
C799   C804    1.401   .     A
C799   H835    1.083   .     S
C799   C1233   1.384   1_545 S
C800   H836    1.083   .     S
C800   C803    1.401   .     A
C800   C1018   1.384   .     S
C801   H837    1.083   .     S
C801   C1015   1.384   .     S
C801   C659    1.401   1_655 S
C802   H838    1.083   .     S
C802   C1232   1.384   1_545 S
C804   C658    1.401   1_655 S
C805   C807    1.430   .     A
C805   H839    1.082   .     S
C805   N844    1.372   .     A
C806   C808    1.431   .     A
C806   H840    1.082   .     S
C806   N843    1.372   .     A
C807   N843    1.372   .     A
C807   H841    1.082   .     S
C808   N844    1.372   .     A
C808   H842    1.082   .     S
C809   O851    1.306   .     A
C809   C811    1.461   .     S
C809   O705    1.311   1_655 S
C810   O852    1.305   .     A
C810   C812    1.461   .     S
C811   C815    1.388   .     A
C811   C817    1.400   .     A
C812   C816    1.388   .     A
C812   C818    1.400   .     A
C813   H831    1.062   .     S
C813   C815    1.388   .     A
C813   C821    1.399   .     A
C814   H832    1.062   .     S
C814   C816    1.388   .     A
C814   C822    1.399   .     A
C815   H686    1.083   1_655 S
C817   H828    1.076   .     S
C817   C819    1.411   .     A
C818   C820    1.411   .     A
C818   H827    1.077   .     S
C819   C821    1.410   .     A
C819   C823    1.416   .     A
C820   C822    1.409   .     A
C820   C824    1.416   .     A
C821   C149    1.405   1_556 S
C823   C176    1.424   1_556 S
Cu825  N843    2.049   .     S
Cu825  O849    1.948   .     S
Cu825  O848    1.963   .     S
Cu825  O852    1.956   .     S
Cu825  O845    1.963   .     S
Cu826  N844    2.049   .     S
Cu826  O847    1.963   .     S
Cu826  O851    1.956   .     S
Cu826  O846    1.963   .     S
Cu826  O850    1.948   .     S
Cu826  Cu681   2.727   1_655 S
H829   C672    1.083   1_655 S
O846   C650    1.306   1_655 S
O850   C666    1.311   1_655 S
N853   C855    1.449   .     S
N853   H854    1.031   .     S
C855   H857    1.110   .     S
C855   H858    1.109   .     S
C855   H856    1.111   .     S
N859   H860    1.031   .     S
N859   C861    1.448   .     S
C861   H864    1.110   .     S
C861   H862    1.110   .     S
C861   H863    1.111   .     S
C865   O919    1.306   .     A
C865   C876    1.452   .     S
C865   O989    1.306   .     S
C866   O920    1.306   .     A
C866   C875    1.452   .     S
C866   O1062   1.306   1_455 S
C867   C896    1.399   .     A
C867   C869    1.386   .     A
C867   H905    1.077   .     S
C868   H906    1.077   .     S
C868   C895    1.399   .     A
C868   C870    1.386   .     A
C869   N925    1.414   .     S
C870   N931    1.414   .     S
C870   C246    1.405   1_556 S
C871   C876    1.401   .     A
C871   H907    1.083   .     S
C872   H908    1.083   .     S
C872   C875    1.401   .     A
C872   C1090   1.384   .     S
C873   H909    1.083   .     S
C873   C1087   1.384   .     S
C873   C947    1.401   .     S
C874   H910    1.083   .     S
C874   C1020   1.401   1_455 S
C875   C1017   1.401   1_455 S
C876   C946    1.401   .     S
C877   C879    1.430   .     A
C877   H911    1.082   .     S
C877   N916    1.372   .     A
C878   C880    1.431   .     A
C878   H912    1.082   .     S
C878   N915    1.372   .     A
C879   N915    1.372   .     A
C879   H913    1.082   .     S
C880   N916    1.372   .     A
C880   H914    1.082   .     S
C881   O923    1.306   .     A
C881   C883    1.461   .     S
C881   O993    1.311   .     S
C882   O924    1.305   .     A
C882   C884    1.461   .     S
C882   O1066   1.311   1_455 S
C883   C887    1.388   .     A
C883   C889    1.400   .     A
C884   C888    1.388   .     A
C884   C890    1.400   .     A
C885   H903    1.062   .     S
C885   C887    1.388   .     A
C885   C893    1.399   .     A
C886   H904    1.062   .     S
C886   C888    1.388   .     A
C886   C894    1.399   .     A
C887   H974    1.083   .     S
C888   H1045   1.083   1_455 S
C889   H900    1.076   .     S
C889   C891    1.411   .     A
C890   C892    1.411   .     A
C890   H899    1.077   .     S
C891   C893    1.410   .     A
C891   C895    1.416   .     A
C892   C894    1.409   .     A
C892   C896    1.416   .     A
C893   C221    1.405   1_556 S
C895   C248    1.424   1_556 S
Cu897  N915    2.049   .     S
Cu897  O921    1.948   .     S
Cu897  O920    1.963   .     S
Cu897  O924    1.956   .     S
Cu897  O917    1.963   .     S
Cu897  Cu1042  2.727   1_455 S
Cu898  N916    2.049   .     S
Cu898  O919    1.963   .     S
Cu898  O923    1.956   .     S
Cu898  O918    1.963   .     S
Cu898  O922    1.948   .     S
Cu898  Cu969   2.727   .     S
H901   C960    1.083   .     S
H902   C1031   1.083   1_455 S
O917   C1009   1.306   1_455 S
O918   C938    1.306   .     S
O921   C1025   1.311   1_455 S
O922   C954    1.311   .     S
N925   C927    1.449   .     S
N925   H926    1.031   .     S
C927   H929    1.110   .     S
C927   H930    1.109   .     S
C927   H928    1.111   .     S
N931   H932    1.031   .     S
N931   C933    1.448   .     S
C933   H936    1.110   .     S
C933   H934    1.110   .     S
C933   H935    1.111   .     S
C937   O991    1.306   .     A
C937   C948    1.452   .     S
C937   O1061   1.306   .     S
C938   O992    1.306   .     A
C938   C947    1.452   .     S
C939   C968    1.399   .     A
C939   C941    1.386   .     A
C939   H977    1.077   .     S
C940   H978    1.077   .     S
C940   C967    1.399   .     A
C940   C942    1.386   .     A
C941   N997    1.414   .     S
C942   N1003   1.414   .     S
C942   C318    1.405   1_556 S
C943   C948    1.401   .     A
C943   H979    1.083   .     S
C944   H980    1.083   .     S
C944   C947    1.401   .     A
C944   C1162   1.384   .     S
C945   H981    1.083   .     S
C945   C1159   1.384   .     S
C945   C1019   1.401   .     S
C946   H982    1.083   .     S
C948   C1018   1.401   .     S
C949   C951    1.430   .     A
C949   H983    1.082   .     S
C949   N988    1.372   .     A
C950   C952    1.431   .     A
C950   H984    1.082   .     S
C950   N987    1.372   .     A
C951   N987    1.372   .     A
C951   H985    1.082   .     S
C952   N988    1.372   .     A
C952   H986    1.082   .     S
C953   O995    1.306   .     A
C953   C955    1.461   .     S
C953   O1065   1.311   .     S
C954   O996    1.305   .     A
C954   C956    1.461   .     S
C955   C959    1.388   .     A
C955   C961    1.400   .     A
C956   C960    1.388   .     A
C956   C962    1.400   .     A
C957   H975    1.062   .     S
C957   C959    1.388   .     A
C957   C965    1.399   .     A
C958   H976    1.062   .     S
C958   C960    1.388   .     A
C958   C966    1.399   .     A
C959   H1046   1.083   .     S
C961   H972    1.076   .     S
C961   C963    1.411   .     A
C962   C964    1.411   .     A
C962   H971    1.077   .     S
C963   C965    1.410   .     A
C963   C967    1.416   .     A
C964   C966    1.409   .     A
C964   C968    1.416   .     A
C965   C293    1.405   1_556 S
C967   C320    1.424   1_556 S
Cu969  N987    2.049   .     S
Cu969  O993    1.948   .     S
Cu969  O992    1.963   .     S
Cu969  O996    1.956   .     S
Cu969  O989    1.963   .     S
Cu970  N988    2.049   .     S
Cu970  O991    1.963   .     S
Cu970  O995    1.956   .     S
Cu970  O990    1.963   .     S
Cu970  O994    1.948   .     S
Cu970  Cu1041  2.727   .     S
H973   C1032   1.083   .     S
O990   C1010   1.306   .     S
O994   C1026   1.311   .     S
N997   C999    1.449   .     S
N997   H998    1.031   .     S
C999   H1001   1.110   .     S
C999   H1002   1.109   .     S
C999   H1000   1.111   .     S
N1003  H1004   1.031   .     S
N1003  C1005   1.448   .     S
C1005  H1008   1.110   .     S
C1005  H1006   1.110   .     S
C1005  H1007   1.111   .     S
C1009  O1063   1.306   .     A
C1009  C1020   1.452   .     S
C1009  O917    1.306   1_655 S
C1010  O1064   1.306   .     A
C1010  C1019   1.452   .     S
C1011  C1040   1.399   .     A
C1011  C1013   1.386   .     A
C1011  H1049   1.077   .     S
C1012  H1050   1.077   .     S
C1012  C1039   1.399   .     A
C1012  C1014   1.386   .     A
C1013  N1069   1.414   .     S
C1014  N1075   1.414   .     S
C1014  C390    1.405   1_556 S
C1015  C1020   1.401   .     A
C1015  H1051   1.083   .     S
C1016  H1052   1.083   .     S
C1016  C1019   1.401   .     A
C1016  C1234   1.384   .     S
C1017  H1053   1.083   .     S
C1017  C1231   1.384   .     S
C1017  C875    1.401   1_655 S
C1018  H1054   1.083   .     S
C1020  C874    1.401   1_655 S
C1021  C1023   1.430   .     A
C1021  H1055   1.082   .     S
C1021  N1060   1.372   .     A
C1022  C1024   1.431   .     A
C1022  H1056   1.082   .     S
C1022  N1059   1.372   .     A
C1023  N1059   1.372   .     A
C1023  H1057   1.082   .     S
C1024  N1060   1.372   .     A
C1024  H1058   1.082   .     S
C1025  O1067   1.306   .     A
C1025  C1027   1.461   .     S
C1025  O921    1.311   1_655 S
C1026  O1068   1.305   .     A
C1026  C1028   1.461   .     S
C1027  C1031   1.388   .     A
C1027  C1033   1.400   .     A
C1028  C1032   1.388   .     A
C1028  C1034   1.400   .     A
C1029  H1047   1.062   .     S
C1029  C1031   1.388   .     A
C1029  C1037   1.399   .     A
C1030  H1048   1.062   .     S
C1030  C1032   1.388   .     A
C1030  C1038   1.399   .     A
C1031  H902    1.083   1_655 S
C1033  H1044   1.076   .     S
C1033  C1035   1.411   .     A
C1034  C1036   1.411   .     A
C1034  H1043   1.077   .     S
C1035  C1037   1.410   .     A
C1035  C1039   1.416   .     A
C1036  C1038   1.409   .     A
C1036  C1040   1.416   .     A
C1037  C365    1.405   1_556 S
C1039  C392    1.424   1_556 S
Cu1041 N1059   2.049   .     S
Cu1041 O1065   1.948   .     S
Cu1041 O1064   1.963   .     S
Cu1041 O1068   1.956   .     S
Cu1041 O1061   1.963   .     S
Cu1042 N1060   2.049   .     S
Cu1042 O1063   1.963   .     S
Cu1042 O1067   1.956   .     S
Cu1042 O1062   1.963   .     S
Cu1042 O1066   1.948   .     S
Cu1042 Cu897   2.727   1_655 S
H1045  C888    1.083   1_655 S
O1062  C866    1.306   1_655 S
O1066  C882    1.311   1_655 S
N1069  C1071   1.449   .     S
N1069  H1070   1.031   .     S
C1071  H1073   1.110   .     S
C1071  H1074   1.109   .     S
C1071  H1072   1.111   .     S
N1075  H1076   1.031   .     S
N1075  C1077   1.448   .     S
C1077  H1080   1.110   .     S
C1077  H1078   1.110   .     S
C1077  H1079   1.111   .     S
C1081  O1135   1.306   .     A
C1081  C1092   1.452   .     S
C1081  O1205   1.306   .     S
C1082  O1136   1.306   .     A
C1082  C1091   1.452   .     S
C1082  O1278   1.306   1_455 S
C1083  C1112   1.399   .     A
C1083  C1085   1.386   .     A
C1083  H1121   1.077   .     S
C1084  H1122   1.077   .     S
C1084  C1111   1.399   .     A
C1084  C1086   1.386   .     A
C1085  N1141   1.414   .     S
C1086  N1147   1.414   .     S
C1086  C462    1.405   1_556 S
C1087  C1092   1.401   .     A
C1087  H1123   1.083   .     S
C1088  H1124   1.083   .     S
C1088  C1091   1.401   .     A
C1088  C658    1.384   1_565 S
C1089  H1125   1.083   .     S
C1089  C655    1.384   1_565 S
C1089  C1163   1.401   .     S
C1090  H1126   1.083   .     S
C1090  C1236   1.401   1_455 S
C1091  C1233   1.401   1_455 S
C1092  C1162   1.401   .     S
C1093  C1095   1.430   .     A
C1093  H1127   1.082   .     S
C1093  N1132   1.372   .     A
C1094  C1096   1.431   .     A
C1094  H1128   1.082   .     S
C1094  N1131   1.372   .     A
C1095  N1131   1.372   .     A
C1095  H1129   1.082   .     S
C1096  N1132   1.372   .     A
C1096  H1130   1.082   .     S
C1097  O1139   1.306   .     A
C1097  C1099   1.461   .     S
C1097  O1209   1.311   .     S
C1098  O1140   1.305   .     A
C1098  C1100   1.461   .     S
C1098  O1282   1.311   1_455 S
C1099  C1103   1.388   .     A
C1099  C1105   1.400   .     A
C1100  C1104   1.388   .     A
C1100  C1106   1.400   .     A
C1101  H1119   1.062   .     S
C1101  C1103   1.388   .     A
C1101  C1109   1.399   .     A
C1102  H1120   1.062   .     S
C1102  C1104   1.388   .     A
C1102  C1110   1.399   .     A
C1103  H1190   1.083   .     S
C1104  H1261   1.083   1_455 S
C1105  H1116   1.076   .     S
C1105  C1107   1.411   .     A
C1106  C1108   1.411   .     A
C1106  H1115   1.077   .     S
C1107  C1109   1.410   .     A
C1107  C1111   1.416   .     A
C1108  C1110   1.409   .     A
C1108  C1112   1.416   .     A
C1109  C437    1.405   1_556 S
C1111  C464    1.424   1_556 S
Cu1113 N1131   2.049   .     S
Cu1113 O1137   1.948   .     S
Cu1113 O1136   1.963   .     S
Cu1113 O1140   1.956   .     S
Cu1113 O1133   1.963   .     S
Cu1113 Cu1258  2.727   1_455 S
Cu1114 N1132   2.049   .     S
Cu1114 O1135   1.963   .     S
Cu1114 O1139   1.956   .     S
Cu1114 O1134   1.963   .     S
Cu1114 O1138   1.948   .     S
Cu1114 Cu1185  2.727   .     S
H1117  C1176   1.083   .     S
H1118  C1247   1.083   1_455 S
O1133  C1225   1.306   1_455 S
O1134  C1154   1.306   .     S
O1137  C1241   1.311   1_455 S
O1138  C1170   1.311   .     S
N1141  C1143   1.449   .     S
N1141  H1142   1.031   .     S
C1143  H1145   1.110   .     S
C1143  H1146   1.109   .     S
C1143  H1144   1.111   .     S
N1147  H1148   1.031   .     S
N1147  C1149   1.448   .     S
C1149  H1152   1.110   .     S
C1149  H1150   1.110   .     S
C1149  H1151   1.111   .     S
C1153  O1207   1.306   .     A
C1153  C1164   1.452   .     S
C1153  O1277   1.306   .     S
C1154  O1208   1.306   .     A
C1154  C1163   1.452   .     S
C1155  C1184   1.399   .     A
C1155  C1157   1.386   .     A
C1155  H1193   1.077   .     S
C1156  H1194   1.077   .     S
C1156  C1183   1.399   .     A
C1156  C1158   1.386   .     A
C1157  N1213   1.414   .     S
C1158  N1219   1.414   .     S
C1158  C534    1.405   1_556 S
C1159  C1164   1.401   .     A
C1159  H1195   1.083   .     S
C1160  H1196   1.083   .     S
C1160  C1163   1.401   .     A
C1160  C730    1.384   1_565 S
C1161  H1197   1.083   .     S
C1161  C727    1.384   1_565 S
C1161  C1235   1.401   .     S
C1162  H1198   1.083   .     S
C1164  C1234   1.401   .     S
C1165  C1167   1.430   .     A
C1165  H1199   1.082   .     S
C1165  N1204   1.372   .     A
C1166  C1168   1.431   .     A
C1166  H1200   1.082   .     S
C1166  N1203   1.372   .     A
C1167  N1203   1.372   .     A
C1167  H1201   1.082   .     S
C1168  N1204   1.372   .     A
C1168  H1202   1.082   .     S
C1169  O1211   1.306   .     A
C1169  C1171   1.461   .     S
C1169  O1281   1.311   .     S
C1170  O1212   1.305   .     A
C1170  C1172   1.461   .     S
C1171  C1175   1.388   .     A
C1171  C1177   1.400   .     A
C1172  C1176   1.388   .     A
C1172  C1178   1.400   .     A
C1173  H1191   1.062   .     S
C1173  C1175   1.388   .     A
C1173  C1181   1.399   .     A
C1174  H1192   1.062   .     S
C1174  C1176   1.388   .     A
C1174  C1182   1.399   .     A
C1175  H1262   1.083   .     S
C1177  H1188   1.076   .     S
C1177  C1179   1.411   .     A
C1178  C1180   1.411   .     A
C1178  H1187   1.077   .     S
C1179  C1181   1.410   .     A
C1179  C1183   1.416   .     A
C1180  C1182   1.409   .     A
C1180  C1184   1.416   .     A
C1181  C509    1.405   1_556 S
C1183  C536    1.424   1_556 S
Cu1185 N1203   2.049   .     S
Cu1185 O1209   1.948   .     S
Cu1185 O1208   1.963   .     S
Cu1185 O1212   1.956   .     S
Cu1185 O1205   1.963   .     S
Cu1186 N1204   2.049   .     S
Cu1186 O1207   1.963   .     S
Cu1186 O1211   1.956   .     S
Cu1186 O1206   1.963   .     S
Cu1186 O1210   1.948   .     S
Cu1186 Cu1257  2.727   .     S
H1189  C1248   1.083   .     S
O1206  C1226   1.306   .     S
O1210  C1242   1.311   .     S
N1213  C1215   1.449   .     S
N1213  H1214   1.031   .     S
C1215  H1217   1.110   .     S
C1215  H1218   1.109   .     S
C1215  H1216   1.111   .     S
N1219  H1220   1.031   .     S
N1219  C1221   1.448   .     S
C1221  H1224   1.110   .     S
C1221  H1222   1.110   .     S
C1221  H1223   1.111   .     S
C1225  O1279   1.306   .     A
C1225  C1236   1.452   .     S
C1225  O1133   1.306   1_655 S
C1226  O1280   1.306   .     A
C1226  C1235   1.452   .     S
C1227  C1256   1.399   .     A
C1227  C1229   1.386   .     A
C1227  H1265   1.077   .     S
C1228  H1266   1.077   .     S
C1228  C1255   1.399   .     A
C1228  C1230   1.386   .     A
C1229  N1285   1.414   .     S
C1230  N1291   1.414   .     S
C1230  C606    1.405   1_556 S
C1231  C1236   1.401   .     A
C1231  H1267   1.083   .     S
C1232  H1268   1.083   .     S
C1232  C1235   1.401   .     A
C1232  C802    1.384   1_565 S
C1233  H1269   1.083   .     S
C1233  C799    1.384   1_565 S
C1233  C1091   1.401   1_655 S
C1234  H1270   1.083   .     S
C1236  C1090   1.401   1_655 S
C1237  C1239   1.430   .     A
C1237  H1271   1.082   .     S
C1237  N1276   1.372   .     A
C1238  C1240   1.431   .     A
C1238  H1272   1.082   .     S
C1238  N1275   1.372   .     A
C1239  N1275   1.372   .     A
C1239  H1273   1.082   .     S
C1240  N1276   1.372   .     A
C1240  H1274   1.082   .     S
C1241  O1283   1.306   .     A
C1241  C1243   1.461   .     S
C1241  O1137   1.311   1_655 S
C1242  O1284   1.305   .     A
C1242  C1244   1.461   .     S
C1243  C1247   1.388   .     A
C1243  C1249   1.400   .     A
C1244  C1248   1.388   .     A
C1244  C1250   1.400   .     A
C1245  H1263   1.062   .     S
C1245  C1247   1.388   .     A
C1245  C1253   1.399   .     A
C1246  H1264   1.062   .     S
C1246  C1248   1.388   .     A
C1246  C1254   1.399   .     A
C1247  H1118   1.083   1_655 S
C1249  H1260   1.076   .     S
C1249  C1251   1.411   .     A
C1250  C1252   1.411   .     A
C1250  H1259   1.077   .     S
C1251  C1253   1.410   .     A
C1251  C1255   1.416   .     A
C1252  C1254   1.409   .     A
C1252  C1256   1.416   .     A
C1253  C581    1.405   1_556 S
C1255  C608    1.424   1_556 S
Cu1257 N1275   2.049   .     S
Cu1257 O1281   1.948   .     S
Cu1257 O1280   1.963   .     S
Cu1257 O1284   1.956   .     S
Cu1257 O1277   1.963   .     S
Cu1258 N1276   2.049   .     S
Cu1258 O1279   1.963   .     S
Cu1258 O1283   1.956   .     S
Cu1258 O1278   1.963   .     S
Cu1258 O1282   1.948   .     S
Cu1258 Cu1113  2.727   1_655 S
H1261  C1104   1.083   1_655 S
O1278  C1082   1.306   1_655 S
O1282  C1098   1.311   1_655 S
N1285  C1287   1.449   .     S
N1285  H1286   1.031   .     S
C1287  H1289   1.110   .     S
C1287  H1290   1.109   .     S
C1287  H1288   1.111   .     S
N1291  H1292   1.031   .     S
N1291  C1293   1.448   .     S
C1293  H1296   1.110   .     S
C1293  H1294   1.110   .     S
C1293  H1295   1.111   .     S
