data_str_m2_o1_o18_pcu_sym.51
_audit_creation_date              2020-01-03
_audit_creation_method            'Materials Studio'
_symmetry_space_group_name_H-M    'P1'
_symmetry_Int_Tables_number       1
_symmetry_cell_setting            triclinic
loop_
_symmetry_equiv_pos_as_xyz
  x,y,z
_cell_length_a                    28.9693
_cell_length_b                    32.3917
_cell_length_c                    30.9809
_cell_angle_alpha                 85.4673
_cell_angle_beta                  74.0910
_cell_angle_gamma                 89.2762
loop_
_atom_site_label
_atom_site_type_symbol
_atom_site_fract_x
_atom_site_fract_y
_atom_site_fract_z
_atom_site_U_iso_or_equiv
_atom_site_adp_type
_atom_site_occupancy
C1     C     0.33329   0.08754   0.24987   0.00000  Uiso   1.00
C2     C     0.04006   0.02259   0.22652   0.00000  Uiso   1.00
C3     C     0.33226   0.29053   0.25051   0.00000  Uiso   1.00
C4     C     0.33242   0.04297   0.24921   0.00000  Uiso   1.00
C5     C     0.18524   0.13650   0.27407   0.00000  Uiso   1.00
C6     C     0.14737   0.19863   0.22786   0.00000  Uiso   1.00
C7     C     0.13723   0.13392   0.26988   0.00000  Uiso   1.00
C8     C     0.19740   0.19856   0.22694   0.00000  Uiso   1.00
C9     C     0.30601   0.16528   0.33607   0.00000  Uiso   1.00
C10    C     0.02741   0.16350   0.16443   0.00000  Uiso   1.00
C11    C     0.29077   0.15924   0.38558   0.00000  Uiso   1.00
C12    C     0.33290   0.24580   0.25059   0.00000  Uiso   1.00
C13    C     0.04365   0.15750   0.11579   0.00000  Uiso   1.00
C14    C     0.30196   0.12892   0.45602   0.00000  Uiso   1.00
C15    C     0.02722   0.15549   0.04373   0.00000  Uiso   1.00
C16    C     0.31886   0.13640   0.40940   0.00000  Uiso   1.00
C17    C     0.01187   0.14846   0.09057   0.00000  Uiso   1.00
C18    C     0.24450   0.17137   0.40863   0.00000  Uiso   1.00
C19    C     0.09291   0.15976   0.09392   0.00000  Uiso   1.00
C20    C     0.22488   0.15952   0.45472   0.00000  Uiso   1.00
C21    C     0.10987   0.15888   0.04704   0.00000  Uiso   1.00
C22    C     0.25559   0.14056   0.47885   0.00000  Uiso   1.00
C23    C     0.19219   0.14020   0.04811   0.00000  Uiso   1.00
C24    C     0.07606   0.16165   0.02176   0.00000  Uiso   1.00
C25    C     0.17528   0.16378   0.47710   0.00000  Uiso   1.00
C26    C     0.15931   0.15555   0.02469   0.00000  Uiso   1.00
C27    C     0.29890   0.09311   0.12642   0.00000  Uiso   1.00
C28    C     0.24852   0.08012   0.15413   0.00000  Uiso   1.00
C29    C     0.01855   0.07671   0.38062   0.00000  Uiso   1.00
C30    C     0.04625   0.04737   0.40502   0.00000  Uiso   1.00
C31    C     0.17923   0.11176   0.34632   0.00000  Uiso   1.00
C32    C     0.19975   0.08077   0.37543   0.00000  Uiso   1.00
C33    C     0.14276   0.23774   0.16333   0.00000  Uiso   1.00
C34    C     0.14049   0.17216   0.45325   0.00000  Uiso   1.00
C35    C     0.10361   0.25540   0.14286   0.00000  Uiso   1.00
C36    C     0.13219   0.06411   0.26433   0.00000  Uiso   1.00
C37    C     0.11294   0.02388   0.29177   0.00000  Uiso   1.00
C38    C     0.25595   0.24084   0.17124   0.00000  Uiso   1.00
C39    C     0.25162   0.21391   0.13387   0.00000  Uiso   1.00
C40    C     0.23898   0.13138   0.02520   0.00000  Uiso   1.00
C41    C     0.09164   0.16915   0.47509   0.00000  Uiso   1.00
C42    C     0.29010   0.02052   0.27049   0.00000  Uiso   1.00
C43    C     0.04088   0.31320   0.22968   0.00000  Uiso   1.00
C44    C     0.28977   0.31099   0.27031   0.00000  Uiso   1.00
Cu45   Cu    0.04689   0.16667   0.25000   0.00000  Uiso   1.00
Cu46   Cu    0.28645   0.16666   0.25000   0.00000  Uiso   1.00
H47    H     0.26195   0.11632   0.04381   0.00000  Uiso   1.00
H48    H     0.07422   0.29811   0.21550   0.00000  Uiso   1.00
H49    H     0.25693   0.29386   0.28660   0.00000  Uiso   1.00
H50    H     0.07130   0.03959   0.20641   0.00000  Uiso   1.00
H51    H     0.32341   0.08730   0.14835   0.00000  Uiso   1.00
H52    H     0.31000   0.07359   0.09736   0.00000  Uiso   1.00
H53    H     0.24831   0.04712   0.16699   0.00000  Uiso   1.00
H54    H     0.23655   0.09942   0.18318   0.00000  Uiso   1.00
H55    H     0.22311   0.08402   0.13304   0.00000  Uiso   1.00
H56    H     0.03060   0.07269   0.34412   0.00000  Uiso   1.00
H57    H     0.31320   0.06712   0.39180   0.00000  Uiso   1.00
H58    H     0.06598   0.17258   0.45536   0.00000  Uiso   1.00
H59    H     0.03280   0.04948   0.44192   0.00000  Uiso   1.00
H60    H     0.04140   0.01504   0.39739   0.00000  Uiso   1.00
H61    H     0.08504   0.05524   0.39407   0.00000  Uiso   1.00
H62    H     0.13996   0.10615   0.35455   0.00000  Uiso   1.00
H63    H     0.18536   0.14347   0.35482   0.00000  Uiso   1.00
H64    H     0.23920   0.08515   0.36760   0.00000  Uiso   1.00
H65    H     0.18330   0.08529   0.41157   0.00000  Uiso   1.00
H66    H     0.19198   0.04872   0.36891   0.00000  Uiso   1.00
H67    H     0.15428   0.20788   0.14834   0.00000  Uiso   1.00
H68    H     0.17210   0.26101   0.15342   0.00000  Uiso   1.00
H69    H     0.11783   0.16358   0.11349   0.00000  Uiso   1.00
H70    H     0.10339   0.28972   0.14197   0.00000  Uiso   1.00
H71    H     0.11106   0.24717   0.10749   0.00000  Uiso   1.00
H72    H     0.06765   0.24328   0.16178   0.00000  Uiso   1.00
H73    H     0.17181   0.06290   0.25763   0.00000  Uiso   1.00
H74    H     0.12538   0.06536   0.23091   0.00000  Uiso   1.00
H75    H     0.07325   0.02270   0.30061   0.00000  Uiso   1.00
H76    H     0.12739   0.33047   0.27202   0.00000  Uiso   1.00
H77    H     0.12448   0.02128   0.32321   0.00000  Uiso   1.00
H78    H     0.29263   0.23800   0.17500   0.00000  Uiso   1.00
H79    H     0.25475   0.27361   0.15804   0.00000  Uiso   1.00
H80    H     0.22408   0.18957   0.38980   0.00000  Uiso   1.00
H81    H     0.23134   0.22923   0.11174   0.00000  Uiso   1.00
H82    H     0.28795   0.21123   0.11081   0.00000  Uiso   1.00
H83    H     0.23645   0.18273   0.14681   0.00000  Uiso   1.00
H84    H     0.32413   0.11145   0.47381   0.00000  Uiso   1.00
H85    H     0.00126   0.15522   0.02469   0.00000  Uiso   1.00
H86    H     0.18142   0.13109   0.08375   0.00000  Uiso   1.00
H87    H     0.14981   0.17801   0.41723   0.00000  Uiso   1.00
H88    H     0.25758   0.03602   0.28737   0.00000  Uiso   1.00
N89    N     0.11736   0.16668   0.24999   0.00000  Uiso   1.00
N90    N     0.21597   0.16666   0.25001   0.00000  Uiso   1.00
O91    O     0.03958   0.10655   0.25000   0.00000  Uiso   1.00
O92    O     0.02789   0.11835   0.38705   0.00000  Uiso   1.00
O93    O     0.20211   0.10696   0.30057   0.00000  Uiso   1.00
O94    O     0.12723   0.23327   0.21089   0.00000  Uiso   1.00
O95    O     0.11023   0.09854   0.28750   0.00000  Uiso   1.00
O96    O     0.22142   0.23640   0.21434   0.00000  Uiso   1.00
O97    O     0.29375   0.22678   0.25000   0.00000  Uiso   1.00
O98    O     0.29372   0.10654   0.25000   0.00000  Uiso   1.00
O99    O     0.03961   0.22679   0.24999   0.00000  Uiso   1.00
O100   O     0.01852   0.16668   0.31491   0.00000  Uiso   1.00
O101   O     0.31481   0.16666   0.18508   0.00000  Uiso   1.00
O102   O     0.27267   0.16667   0.31492   0.00000  Uiso   1.00
O103   O     0.06067   0.16667   0.18508   0.00000  Uiso   1.00
O104   O     0.29863   0.13529   0.11092   0.00000  Uiso   1.00
C105   C     0.66663   0.08754   0.24987   0.00000  Uiso   1.00
C106   C     0.37339   0.02259   0.22652   0.00000  Uiso   1.00
C107   C     0.66559   0.29053   0.25051   0.00000  Uiso   1.00
C108   C     0.66575   0.04297   0.24921   0.00000  Uiso   1.00
C109   C     0.51857   0.13650   0.27407   0.00000  Uiso   1.00
C110   C     0.48070   0.19863   0.22786   0.00000  Uiso   1.00
C111   C     0.47056   0.13392   0.26988   0.00000  Uiso   1.00
C112   C     0.53073   0.19856   0.22694   0.00000  Uiso   1.00
C113   C     0.63935   0.16528   0.33607   0.00000  Uiso   1.00
C114   C     0.36074   0.16350   0.16443   0.00000  Uiso   1.00
C115   C     0.62410   0.15924   0.38558   0.00000  Uiso   1.00
C116   C     0.66623   0.24580   0.25059   0.00000  Uiso   1.00
C117   C     0.37698   0.15750   0.11579   0.00000  Uiso   1.00
C118   C     0.63529   0.12892   0.45602   0.00000  Uiso   1.00
C119   C     0.36056   0.15549   0.04373   0.00000  Uiso   1.00
C120   C     0.65220   0.13640   0.40940   0.00000  Uiso   1.00
C121   C     0.34521   0.14846   0.09057   0.00000  Uiso   1.00
C122   C     0.57784   0.17137   0.40863   0.00000  Uiso   1.00
C123   C     0.42624   0.15976   0.09392   0.00000  Uiso   1.00
C124   C     0.55822   0.15952   0.45472   0.00000  Uiso   1.00
C125   C     0.44321   0.15888   0.04704   0.00000  Uiso   1.00
C126   C     0.58892   0.14056   0.47885   0.00000  Uiso   1.00
C127   C     0.52553   0.14020   0.04811   0.00000  Uiso   1.00
C128   C     0.40939   0.16165   0.02176   0.00000  Uiso   1.00
C129   C     0.50861   0.16378   0.47710   0.00000  Uiso   1.00
C130   C     0.49264   0.15555   0.02469   0.00000  Uiso   1.00
C131   C     0.63223   0.09311   0.12642   0.00000  Uiso   1.00
C132   C     0.58185   0.08012   0.15413   0.00000  Uiso   1.00
C133   C     0.35188   0.07671   0.38062   0.00000  Uiso   1.00
C134   C     0.37958   0.04737   0.40502   0.00000  Uiso   1.00
C135   C     0.51256   0.11176   0.34632   0.00000  Uiso   1.00
C136   C     0.53309   0.08077   0.37543   0.00000  Uiso   1.00
C137   C     0.47610   0.23774   0.16333   0.00000  Uiso   1.00
C138   C     0.47383   0.17216   0.45325   0.00000  Uiso   1.00
C139   C     0.43694   0.25540   0.14286   0.00000  Uiso   1.00
C140   C     0.46553   0.06411   0.26433   0.00000  Uiso   1.00
C141   C     0.44628   0.02388   0.29177   0.00000  Uiso   1.00
C142   C     0.58928   0.24084   0.17124   0.00000  Uiso   1.00
C143   C     0.58495   0.21391   0.13387   0.00000  Uiso   1.00
C144   C     0.57232   0.13138   0.02520   0.00000  Uiso   1.00
C145   C     0.42497   0.16915   0.47509   0.00000  Uiso   1.00
C146   C     0.62344   0.02052   0.27049   0.00000  Uiso   1.00
C147   C     0.37421   0.31320   0.22968   0.00000  Uiso   1.00
C148   C     0.62310   0.31099   0.27031   0.00000  Uiso   1.00
Cu149  Cu    0.38022   0.16667   0.25000   0.00000  Uiso   1.00
Cu150  Cu    0.61978   0.16666   0.25000   0.00000  Uiso   1.00
H151   H     0.59528   0.11632   0.04381   0.00000  Uiso   1.00
H152   H     0.40755   0.29811   0.21550   0.00000  Uiso   1.00
H153   H     0.59026   0.29386   0.28660   0.00000  Uiso   1.00
H154   H     0.40463   0.03959   0.20641   0.00000  Uiso   1.00
H155   H     0.65675   0.08730   0.14835   0.00000  Uiso   1.00
H156   H     0.64333   0.07359   0.09736   0.00000  Uiso   1.00
H157   H     0.58165   0.04712   0.16699   0.00000  Uiso   1.00
H158   H     0.56988   0.09942   0.18318   0.00000  Uiso   1.00
H159   H     0.55645   0.08402   0.13304   0.00000  Uiso   1.00
H160   H     0.36394   0.07269   0.34412   0.00000  Uiso   1.00
H161   H     0.64653   0.06712   0.39180   0.00000  Uiso   1.00
H162   H     0.39931   0.17258   0.45536   0.00000  Uiso   1.00
H163   H     0.36613   0.04948   0.44192   0.00000  Uiso   1.00
H164   H     0.37474   0.01504   0.39739   0.00000  Uiso   1.00
H165   H     0.41837   0.05524   0.39407   0.00000  Uiso   1.00
H166   H     0.47330   0.10615   0.35455   0.00000  Uiso   1.00
H167   H     0.51870   0.14347   0.35482   0.00000  Uiso   1.00
H168   H     0.57253   0.08515   0.36760   0.00000  Uiso   1.00
H169   H     0.51664   0.08529   0.41157   0.00000  Uiso   1.00
H170   H     0.52531   0.04872   0.36891   0.00000  Uiso   1.00
H171   H     0.48761   0.20788   0.14834   0.00000  Uiso   1.00
H172   H     0.50544   0.26101   0.15342   0.00000  Uiso   1.00
H173   H     0.45117   0.16358   0.11349   0.00000  Uiso   1.00
H174   H     0.43672   0.28972   0.14197   0.00000  Uiso   1.00
H175   H     0.44439   0.24717   0.10749   0.00000  Uiso   1.00
H176   H     0.40098   0.24328   0.16178   0.00000  Uiso   1.00
H177   H     0.50514   0.06290   0.25763   0.00000  Uiso   1.00
H178   H     0.45871   0.06536   0.23091   0.00000  Uiso   1.00
H179   H     0.40658   0.02270   0.30061   0.00000  Uiso   1.00
H180   H     0.46072   0.33047   0.27202   0.00000  Uiso   1.00
H181   H     0.45781   0.02128   0.32321   0.00000  Uiso   1.00
H182   H     0.62596   0.23800   0.17500   0.00000  Uiso   1.00
H183   H     0.58808   0.27361   0.15804   0.00000  Uiso   1.00
H184   H     0.55742   0.18957   0.38980   0.00000  Uiso   1.00
H185   H     0.56467   0.22923   0.11174   0.00000  Uiso   1.00
H186   H     0.62128   0.21123   0.11081   0.00000  Uiso   1.00
H187   H     0.56978   0.18273   0.14681   0.00000  Uiso   1.00
H188   H     0.65747   0.11145   0.47381   0.00000  Uiso   1.00
H189   H     0.33459   0.15522   0.02469   0.00000  Uiso   1.00
H190   H     0.51475   0.13109   0.08375   0.00000  Uiso   1.00
H191   H     0.48315   0.17801   0.41723   0.00000  Uiso   1.00
H192   H     0.59092   0.03602   0.28737   0.00000  Uiso   1.00
N193   N     0.45069   0.16668   0.24999   0.00000  Uiso   1.00
N194   N     0.54931   0.16666   0.25001   0.00000  Uiso   1.00
O195   O     0.37291   0.10655   0.25000   0.00000  Uiso   1.00
O196   O     0.36123   0.11835   0.38705   0.00000  Uiso   1.00
O197   O     0.53545   0.10696   0.30057   0.00000  Uiso   1.00
O198   O     0.46057   0.23327   0.21089   0.00000  Uiso   1.00
O199   O     0.44356   0.09854   0.28750   0.00000  Uiso   1.00
O200   O     0.55476   0.23640   0.21434   0.00000  Uiso   1.00
O201   O     0.62709   0.22678   0.25000   0.00000  Uiso   1.00
O202   O     0.62706   0.10654   0.25000   0.00000  Uiso   1.00
O203   O     0.37294   0.22679   0.24999   0.00000  Uiso   1.00
O204   O     0.35186   0.16668   0.31491   0.00000  Uiso   1.00
O205   O     0.64814   0.16666   0.18508   0.00000  Uiso   1.00
O206   O     0.60600   0.16667   0.31492   0.00000  Uiso   1.00
O207   O     0.39400   0.16667   0.18508   0.00000  Uiso   1.00
O208   O     0.63196   0.13529   0.11092   0.00000  Uiso   1.00
C209   C     0.99996   0.08754   0.24987   0.00000  Uiso   1.00
C210   C     0.70672   0.02259   0.22652   0.00000  Uiso   1.00
C211   C     0.99893   0.29053   0.25051   0.00000  Uiso   1.00
C212   C     0.99909   0.04297   0.24921   0.00000  Uiso   1.00
C213   C     0.85190   0.13650   0.27407   0.00000  Uiso   1.00
C214   C     0.81403   0.19863   0.22786   0.00000  Uiso   1.00
C215   C     0.80390   0.13392   0.26988   0.00000  Uiso   1.00
C216   C     0.86407   0.19856   0.22694   0.00000  Uiso   1.00
C217   C     0.97268   0.16528   0.33607   0.00000  Uiso   1.00
C218   C     0.69407   0.16350   0.16443   0.00000  Uiso   1.00
C219   C     0.95744   0.15924   0.38558   0.00000  Uiso   1.00
C220   C     0.99956   0.24580   0.25059   0.00000  Uiso   1.00
C221   C     0.71032   0.15750   0.11579   0.00000  Uiso   1.00
C222   C     0.96862   0.12892   0.45602   0.00000  Uiso   1.00
C223   C     0.69389   0.15549   0.04373   0.00000  Uiso   1.00
C224   C     0.98553   0.13640   0.40940   0.00000  Uiso   1.00
C225   C     0.67854   0.14846   0.09057   0.00000  Uiso   1.00
C226   C     0.91117   0.17137   0.40863   0.00000  Uiso   1.00
C227   C     0.75958   0.15976   0.09392   0.00000  Uiso   1.00
C228   C     0.89155   0.15952   0.45472   0.00000  Uiso   1.00
C229   C     0.77654   0.15888   0.04704   0.00000  Uiso   1.00
C230   C     0.92226   0.14056   0.47885   0.00000  Uiso   1.00
C231   C     0.85886   0.14020   0.04811   0.00000  Uiso   1.00
C232   C     0.74273   0.16165   0.02176   0.00000  Uiso   1.00
C233   C     0.84194   0.16378   0.47710   0.00000  Uiso   1.00
C234   C     0.82597   0.15555   0.02469   0.00000  Uiso   1.00
C235   C     0.96557   0.09311   0.12642   0.00000  Uiso   1.00
C236   C     0.91519   0.08012   0.15413   0.00000  Uiso   1.00
C237   C     0.68521   0.07671   0.38062   0.00000  Uiso   1.00
C238   C     0.71292   0.04737   0.40502   0.00000  Uiso   1.00
C239   C     0.84589   0.11176   0.34632   0.00000  Uiso   1.00
C240   C     0.86642   0.08077   0.37543   0.00000  Uiso   1.00
C241   C     0.80943   0.23774   0.16333   0.00000  Uiso   1.00
C242   C     0.80716   0.17216   0.45325   0.00000  Uiso   1.00
C243   C     0.77027   0.25540   0.14286   0.00000  Uiso   1.00
C244   C     0.79886   0.06411   0.26433   0.00000  Uiso   1.00
C245   C     0.77961   0.02388   0.29177   0.00000  Uiso   1.00
C246   C     0.92261   0.24084   0.17124   0.00000  Uiso   1.00
C247   C     0.91828   0.21391   0.13387   0.00000  Uiso   1.00
C248   C     0.90565   0.13138   0.02520   0.00000  Uiso   1.00
C249   C     0.75830   0.16915   0.47509   0.00000  Uiso   1.00
C250   C     0.95677   0.02052   0.27049   0.00000  Uiso   1.00
C251   C     0.70755   0.31320   0.22968   0.00000  Uiso   1.00
C252   C     0.95643   0.31099   0.27031   0.00000  Uiso   1.00
Cu253  Cu    0.71355   0.16667   0.25000   0.00000  Uiso   1.00
Cu254  Cu    0.95311   0.16666   0.25000   0.00000  Uiso   1.00
H255   H     0.92861   0.11632   0.04381   0.00000  Uiso   1.00
H256   H     0.74088   0.29811   0.21550   0.00000  Uiso   1.00
H257   H     0.92359   0.29386   0.28660   0.00000  Uiso   1.00
H258   H     0.73796   0.03959   0.20641   0.00000  Uiso   1.00
H259   H     0.99008   0.08730   0.14835   0.00000  Uiso   1.00
H260   H     0.97666   0.07359   0.09736   0.00000  Uiso   1.00
H261   H     0.91498   0.04712   0.16699   0.00000  Uiso   1.00
H262   H     0.90322   0.09942   0.18318   0.00000  Uiso   1.00
H263   H     0.88978   0.08402   0.13304   0.00000  Uiso   1.00
H264   H     0.69727   0.07269   0.34412   0.00000  Uiso   1.00
H265   H     0.97987   0.06712   0.39180   0.00000  Uiso   1.00
H266   H     0.73264   0.17258   0.45536   0.00000  Uiso   1.00
H267   H     0.69946   0.04948   0.44192   0.00000  Uiso   1.00
H268   H     0.70807   0.01504   0.39739   0.00000  Uiso   1.00
H269   H     0.75170   0.05524   0.39407   0.00000  Uiso   1.00
H270   H     0.80663   0.10615   0.35455   0.00000  Uiso   1.00
H271   H     0.85203   0.14347   0.35482   0.00000  Uiso   1.00
H272   H     0.90587   0.08515   0.36760   0.00000  Uiso   1.00
H273   H     0.84997   0.08529   0.41157   0.00000  Uiso   1.00
H274   H     0.85865   0.04872   0.36891   0.00000  Uiso   1.00
H275   H     0.82094   0.20788   0.14834   0.00000  Uiso   1.00
H276   H     0.83877   0.26101   0.15342   0.00000  Uiso   1.00
H277   H     0.78450   0.16358   0.11349   0.00000  Uiso   1.00
H278   H     0.77005   0.28972   0.14197   0.00000  Uiso   1.00
H279   H     0.77772   0.24717   0.10749   0.00000  Uiso   1.00
H280   H     0.73431   0.24328   0.16178   0.00000  Uiso   1.00
H281   H     0.83848   0.06290   0.25763   0.00000  Uiso   1.00
H282   H     0.79204   0.06536   0.23091   0.00000  Uiso   1.00
H283   H     0.73992   0.02270   0.30061   0.00000  Uiso   1.00
H284   H     0.79406   0.33047   0.27202   0.00000  Uiso   1.00
H285   H     0.79115   0.02128   0.32321   0.00000  Uiso   1.00
H286   H     0.95930   0.23800   0.17500   0.00000  Uiso   1.00
H287   H     0.92141   0.27361   0.15804   0.00000  Uiso   1.00
H288   H     0.89075   0.18957   0.38980   0.00000  Uiso   1.00
H289   H     0.89801   0.22923   0.11174   0.00000  Uiso   1.00
H290   H     0.95462   0.21123   0.11081   0.00000  Uiso   1.00
H291   H     0.90312   0.18273   0.14681   0.00000  Uiso   1.00
H292   H     0.99080   0.11145   0.47381   0.00000  Uiso   1.00
H293   H     0.66793   0.15522   0.02469   0.00000  Uiso   1.00
H294   H     0.84809   0.13109   0.08375   0.00000  Uiso   1.00
H295   H     0.81648   0.17801   0.41723   0.00000  Uiso   1.00
H296   H     0.92425   0.03602   0.28737   0.00000  Uiso   1.00
N297   N     0.78403   0.16668   0.24999   0.00000  Uiso   1.00
N298   N     0.88264   0.16666   0.25001   0.00000  Uiso   1.00
O299   O     0.70625   0.10655   0.25000   0.00000  Uiso   1.00
O300   O     0.69456   0.11835   0.38705   0.00000  Uiso   1.00
O301   O     0.86878   0.10696   0.30057   0.00000  Uiso   1.00
O302   O     0.79390   0.23327   0.21089   0.00000  Uiso   1.00
O303   O     0.77690   0.09854   0.28750   0.00000  Uiso   1.00
O304   O     0.88809   0.23640   0.21434   0.00000  Uiso   1.00
O305   O     0.96042   0.22678   0.25000   0.00000  Uiso   1.00
O306   O     0.96039   0.10654   0.25000   0.00000  Uiso   1.00
O307   O     0.70628   0.22679   0.24999   0.00000  Uiso   1.00
O308   O     0.68519   0.16668   0.31491   0.00000  Uiso   1.00
O309   O     0.98148   0.16666   0.18508   0.00000  Uiso   1.00
O310   O     0.93933   0.16667   0.31492   0.00000  Uiso   1.00
O311   O     0.72733   0.16667   0.18508   0.00000  Uiso   1.00
O312   O     0.96530   0.13529   0.11092   0.00000  Uiso   1.00
C313   C     0.33329   0.42087   0.24987   0.00000  Uiso   1.00
C314   C     0.04006   0.35592   0.22652   0.00000  Uiso   1.00
C315   C     0.33226   0.62386   0.25051   0.00000  Uiso   1.00
C316   C     0.33242   0.37630   0.24921   0.00000  Uiso   1.00
C317   C     0.18524   0.46983   0.27407   0.00000  Uiso   1.00
C318   C     0.14737   0.53196   0.22786   0.00000  Uiso   1.00
C319   C     0.13723   0.46726   0.26988   0.00000  Uiso   1.00
C320   C     0.19740   0.53190   0.22694   0.00000  Uiso   1.00
C321   C     0.30601   0.49861   0.33607   0.00000  Uiso   1.00
C322   C     0.02741   0.49683   0.16443   0.00000  Uiso   1.00
C323   C     0.29077   0.49257   0.38558   0.00000  Uiso   1.00
C324   C     0.33290   0.57913   0.25059   0.00000  Uiso   1.00
C325   C     0.04365   0.49083   0.11579   0.00000  Uiso   1.00
C326   C     0.30196   0.46225   0.45602   0.00000  Uiso   1.00
C327   C     0.02722   0.48882   0.04373   0.00000  Uiso   1.00
C328   C     0.31886   0.46973   0.40940   0.00000  Uiso   1.00
C329   C     0.01187   0.48180   0.09057   0.00000  Uiso   1.00
C330   C     0.24450   0.50471   0.40863   0.00000  Uiso   1.00
C331   C     0.09291   0.49309   0.09392   0.00000  Uiso   1.00
C332   C     0.22488   0.49285   0.45472   0.00000  Uiso   1.00
C333   C     0.10987   0.49221   0.04704   0.00000  Uiso   1.00
C334   C     0.25559   0.47389   0.47885   0.00000  Uiso   1.00
C335   C     0.19219   0.47354   0.04811   0.00000  Uiso   1.00
C336   C     0.07606   0.49499   0.02176   0.00000  Uiso   1.00
C337   C     0.17528   0.49712   0.47710   0.00000  Uiso   1.00
C338   C     0.15931   0.48888   0.02469   0.00000  Uiso   1.00
C339   C     0.29890   0.42644   0.12642   0.00000  Uiso   1.00
C340   C     0.24852   0.41346   0.15413   0.00000  Uiso   1.00
C341   C     0.01855   0.41004   0.38062   0.00000  Uiso   1.00
C342   C     0.04625   0.38070   0.40502   0.00000  Uiso   1.00
C343   C     0.17923   0.44510   0.34632   0.00000  Uiso   1.00
C344   C     0.19975   0.41410   0.37543   0.00000  Uiso   1.00
C345   C     0.14276   0.57107   0.16333   0.00000  Uiso   1.00
C346   C     0.14049   0.50550   0.45325   0.00000  Uiso   1.00
C347   C     0.10361   0.58873   0.14286   0.00000  Uiso   1.00
C348   C     0.13219   0.39744   0.26433   0.00000  Uiso   1.00
C349   C     0.11294   0.35721   0.29177   0.00000  Uiso   1.00
C350   C     0.25595   0.57417   0.17124   0.00000  Uiso   1.00
C351   C     0.25162   0.54725   0.13387   0.00000  Uiso   1.00
C352   C     0.23898   0.46472   0.02520   0.00000  Uiso   1.00
C353   C     0.09164   0.50248   0.47509   0.00000  Uiso   1.00
C354   C     0.29010   0.35386   0.27049   0.00000  Uiso   1.00
C355   C     0.04088   0.64653   0.22968   0.00000  Uiso   1.00
C356   C     0.28977   0.64433   0.27031   0.00000  Uiso   1.00
Cu357  Cu    0.04689   0.50001   0.25000   0.00000  Uiso   1.00
Cu358  Cu    0.28645   0.49999   0.25000   0.00000  Uiso   1.00
H359   H     0.26195   0.44965   0.04381   0.00000  Uiso   1.00
H360   H     0.07422   0.63144   0.21550   0.00000  Uiso   1.00
H361   H     0.25693   0.62719   0.28660   0.00000  Uiso   1.00
H362   H     0.07130   0.37292   0.20641   0.00000  Uiso   1.00
H363   H     0.32341   0.42064   0.14835   0.00000  Uiso   1.00
H364   H     0.31000   0.40692   0.09736   0.00000  Uiso   1.00
H365   H     0.24831   0.38045   0.16699   0.00000  Uiso   1.00
H366   H     0.23655   0.43275   0.18318   0.00000  Uiso   1.00
H367   H     0.22311   0.41736   0.13304   0.00000  Uiso   1.00
H368   H     0.03060   0.40603   0.34412   0.00000  Uiso   1.00
H369   H     0.31320   0.40045   0.39180   0.00000  Uiso   1.00
H370   H     0.06598   0.50591   0.45536   0.00000  Uiso   1.00
H371   H     0.03280   0.38281   0.44192   0.00000  Uiso   1.00
H372   H     0.04140   0.34837   0.39739   0.00000  Uiso   1.00
H373   H     0.08504   0.38858   0.39407   0.00000  Uiso   1.00
H374   H     0.13996   0.43949   0.35455   0.00000  Uiso   1.00
H375   H     0.18536   0.47680   0.35482   0.00000  Uiso   1.00
H376   H     0.23920   0.41849   0.36760   0.00000  Uiso   1.00
H377   H     0.18330   0.41862   0.41157   0.00000  Uiso   1.00
H378   H     0.19198   0.38205   0.36891   0.00000  Uiso   1.00
H379   H     0.15428   0.54122   0.14834   0.00000  Uiso   1.00
H380   H     0.17210   0.59434   0.15342   0.00000  Uiso   1.00
H381   H     0.11783   0.49691   0.11349   0.00000  Uiso   1.00
H382   H     0.10339   0.62305   0.14197   0.00000  Uiso   1.00
H383   H     0.11106   0.58050   0.10749   0.00000  Uiso   1.00
H384   H     0.06765   0.57661   0.16178   0.00000  Uiso   1.00
H385   H     0.17181   0.39623   0.25763   0.00000  Uiso   1.00
H386   H     0.12538   0.39870   0.23091   0.00000  Uiso   1.00
H387   H     0.07325   0.35604   0.30061   0.00000  Uiso   1.00
H388   H     0.12739   0.66381   0.27202   0.00000  Uiso   1.00
H389   H     0.12448   0.35462   0.32321   0.00000  Uiso   1.00
H390   H     0.29263   0.57133   0.17500   0.00000  Uiso   1.00
H391   H     0.25475   0.60694   0.15804   0.00000  Uiso   1.00
H392   H     0.22408   0.52290   0.38980   0.00000  Uiso   1.00
H393   H     0.23134   0.56256   0.11174   0.00000  Uiso   1.00
H394   H     0.28795   0.54456   0.11081   0.00000  Uiso   1.00
H395   H     0.23645   0.51607   0.14681   0.00000  Uiso   1.00
H396   H     0.32413   0.44478   0.47381   0.00000  Uiso   1.00
H397   H     0.00126   0.48855   0.02469   0.00000  Uiso   1.00
H398   H     0.18142   0.46443   0.08375   0.00000  Uiso   1.00
H399   H     0.14981   0.51134   0.41723   0.00000  Uiso   1.00
H400   H     0.25758   0.36935   0.28737   0.00000  Uiso   1.00
N401   N     0.11736   0.50001   0.24999   0.00000  Uiso   1.00
N402   N     0.21597   0.49999   0.25001   0.00000  Uiso   1.00
O403   O     0.03958   0.43989   0.25000   0.00000  Uiso   1.00
O404   O     0.02789   0.45168   0.38705   0.00000  Uiso   1.00
O405   O     0.20211   0.44030   0.30057   0.00000  Uiso   1.00
O406   O     0.12723   0.56660   0.21089   0.00000  Uiso   1.00
O407   O     0.11023   0.43187   0.28750   0.00000  Uiso   1.00
O408   O     0.22142   0.56974   0.21434   0.00000  Uiso   1.00
O409   O     0.29375   0.56011   0.25000   0.00000  Uiso   1.00
O410   O     0.29372   0.43988   0.25000   0.00000  Uiso   1.00
O411   O     0.03961   0.56012   0.24999   0.00000  Uiso   1.00
O412   O     0.01852   0.50001   0.31491   0.00000  Uiso   1.00
O413   O     0.31481   0.49999   0.18508   0.00000  Uiso   1.00
O414   O     0.27267   0.50000   0.31492   0.00000  Uiso   1.00
O415   O     0.06067   0.50000   0.18508   0.00000  Uiso   1.00
O416   O     0.29863   0.46862   0.11092   0.00000  Uiso   1.00
C417   C     0.66663   0.42087   0.24987   0.00000  Uiso   1.00
C418   C     0.37339   0.35592   0.22652   0.00000  Uiso   1.00
C419   C     0.66559   0.62386   0.25051   0.00000  Uiso   1.00
C420   C     0.66575   0.37630   0.24921   0.00000  Uiso   1.00
C421   C     0.51857   0.46983   0.27407   0.00000  Uiso   1.00
C422   C     0.48070   0.53196   0.22786   0.00000  Uiso   1.00
C423   C     0.47056   0.46726   0.26988   0.00000  Uiso   1.00
C424   C     0.53073   0.53190   0.22694   0.00000  Uiso   1.00
C425   C     0.63935   0.49861   0.33607   0.00000  Uiso   1.00
C426   C     0.36074   0.49683   0.16443   0.00000  Uiso   1.00
C427   C     0.62410   0.49257   0.38558   0.00000  Uiso   1.00
C428   C     0.66623   0.57913   0.25059   0.00000  Uiso   1.00
C429   C     0.37698   0.49083   0.11579   0.00000  Uiso   1.00
C430   C     0.63529   0.46225   0.45602   0.00000  Uiso   1.00
C431   C     0.36056   0.48882   0.04373   0.00000  Uiso   1.00
C432   C     0.65220   0.46973   0.40940   0.00000  Uiso   1.00
C433   C     0.34521   0.48180   0.09057   0.00000  Uiso   1.00
C434   C     0.57784   0.50471   0.40863   0.00000  Uiso   1.00
C435   C     0.42624   0.49309   0.09392   0.00000  Uiso   1.00
C436   C     0.55822   0.49285   0.45472   0.00000  Uiso   1.00
C437   C     0.44321   0.49221   0.04704   0.00000  Uiso   1.00
C438   C     0.58892   0.47389   0.47885   0.00000  Uiso   1.00
C439   C     0.52553   0.47354   0.04811   0.00000  Uiso   1.00
C440   C     0.40939   0.49499   0.02176   0.00000  Uiso   1.00
C441   C     0.50861   0.49712   0.47710   0.00000  Uiso   1.00
C442   C     0.49264   0.48888   0.02469   0.00000  Uiso   1.00
C443   C     0.63223   0.42644   0.12642   0.00000  Uiso   1.00
C444   C     0.58185   0.41346   0.15413   0.00000  Uiso   1.00
C445   C     0.35188   0.41004   0.38062   0.00000  Uiso   1.00
C446   C     0.37958   0.38070   0.40502   0.00000  Uiso   1.00
C447   C     0.51256   0.44510   0.34632   0.00000  Uiso   1.00
C448   C     0.53309   0.41410   0.37543   0.00000  Uiso   1.00
C449   C     0.47610   0.57107   0.16333   0.00000  Uiso   1.00
C450   C     0.47383   0.50550   0.45325   0.00000  Uiso   1.00
C451   C     0.43694   0.58873   0.14286   0.00000  Uiso   1.00
C452   C     0.46553   0.39744   0.26433   0.00000  Uiso   1.00
C453   C     0.44628   0.35721   0.29177   0.00000  Uiso   1.00
C454   C     0.58928   0.57417   0.17124   0.00000  Uiso   1.00
C455   C     0.58495   0.54725   0.13387   0.00000  Uiso   1.00
C456   C     0.57232   0.46472   0.02520   0.00000  Uiso   1.00
C457   C     0.42497   0.50248   0.47509   0.00000  Uiso   1.00
C458   C     0.62344   0.35386   0.27049   0.00000  Uiso   1.00
C459   C     0.37421   0.64653   0.22968   0.00000  Uiso   1.00
C460   C     0.62310   0.64433   0.27031   0.00000  Uiso   1.00
Cu461  Cu    0.38022   0.50001   0.25000   0.00000  Uiso   1.00
Cu462  Cu    0.61978   0.49999   0.25000   0.00000  Uiso   1.00
H463   H     0.59528   0.44965   0.04381   0.00000  Uiso   1.00
H464   H     0.40755   0.63144   0.21550   0.00000  Uiso   1.00
H465   H     0.59026   0.62719   0.28660   0.00000  Uiso   1.00
H466   H     0.40463   0.37292   0.20641   0.00000  Uiso   1.00
H467   H     0.65675   0.42064   0.14835   0.00000  Uiso   1.00
H468   H     0.64333   0.40692   0.09736   0.00000  Uiso   1.00
H469   H     0.58165   0.38045   0.16699   0.00000  Uiso   1.00
H470   H     0.56988   0.43275   0.18318   0.00000  Uiso   1.00
H471   H     0.55645   0.41736   0.13304   0.00000  Uiso   1.00
H472   H     0.36394   0.40603   0.34412   0.00000  Uiso   1.00
H473   H     0.64653   0.40045   0.39180   0.00000  Uiso   1.00
H474   H     0.39931   0.50591   0.45536   0.00000  Uiso   1.00
H475   H     0.36613   0.38281   0.44192   0.00000  Uiso   1.00
H476   H     0.37474   0.34837   0.39739   0.00000  Uiso   1.00
H477   H     0.41837   0.38858   0.39407   0.00000  Uiso   1.00
H478   H     0.47330   0.43949   0.35455   0.00000  Uiso   1.00
H479   H     0.51870   0.47680   0.35482   0.00000  Uiso   1.00
H480   H     0.57253   0.41849   0.36760   0.00000  Uiso   1.00
H481   H     0.51664   0.41862   0.41157   0.00000  Uiso   1.00
H482   H     0.52531   0.38205   0.36891   0.00000  Uiso   1.00
H483   H     0.48761   0.54122   0.14834   0.00000  Uiso   1.00
H484   H     0.50544   0.59434   0.15342   0.00000  Uiso   1.00
H485   H     0.45117   0.49691   0.11349   0.00000  Uiso   1.00
H486   H     0.43672   0.62305   0.14197   0.00000  Uiso   1.00
H487   H     0.44439   0.58050   0.10749   0.00000  Uiso   1.00
H488   H     0.40098   0.57661   0.16178   0.00000  Uiso   1.00
H489   H     0.50514   0.39623   0.25763   0.00000  Uiso   1.00
H490   H     0.45871   0.39870   0.23091   0.00000  Uiso   1.00
H491   H     0.40658   0.35604   0.30061   0.00000  Uiso   1.00
H492   H     0.46072   0.66381   0.27202   0.00000  Uiso   1.00
H493   H     0.45781   0.35462   0.32321   0.00000  Uiso   1.00
H494   H     0.62596   0.57133   0.17500   0.00000  Uiso   1.00
H495   H     0.58808   0.60694   0.15804   0.00000  Uiso   1.00
H496   H     0.55742   0.52290   0.38980   0.00000  Uiso   1.00
H497   H     0.56467   0.56256   0.11174   0.00000  Uiso   1.00
H498   H     0.62128   0.54456   0.11081   0.00000  Uiso   1.00
H499   H     0.56978   0.51607   0.14681   0.00000  Uiso   1.00
H500   H     0.65747   0.44478   0.47381   0.00000  Uiso   1.00
H501   H     0.33459   0.48855   0.02469   0.00000  Uiso   1.00
H502   H     0.51475   0.46443   0.08375   0.00000  Uiso   1.00
H503   H     0.48315   0.51134   0.41723   0.00000  Uiso   1.00
H504   H     0.59092   0.36935   0.28737   0.00000  Uiso   1.00
N505   N     0.45069   0.50001   0.24999   0.00000  Uiso   1.00
N506   N     0.54931   0.49999   0.25001   0.00000  Uiso   1.00
O507   O     0.37291   0.43989   0.25000   0.00000  Uiso   1.00
O508   O     0.36123   0.45168   0.38705   0.00000  Uiso   1.00
O509   O     0.53545   0.44030   0.30057   0.00000  Uiso   1.00
O510   O     0.46057   0.56660   0.21089   0.00000  Uiso   1.00
O511   O     0.44356   0.43187   0.28750   0.00000  Uiso   1.00
O512   O     0.55476   0.56974   0.21434   0.00000  Uiso   1.00
O513   O     0.62709   0.56011   0.25000   0.00000  Uiso   1.00
O514   O     0.62706   0.43988   0.25000   0.00000  Uiso   1.00
O515   O     0.37294   0.56012   0.24999   0.00000  Uiso   1.00
O516   O     0.35186   0.50001   0.31491   0.00000  Uiso   1.00
O517   O     0.64814   0.49999   0.18508   0.00000  Uiso   1.00
O518   O     0.60600   0.50000   0.31492   0.00000  Uiso   1.00
O519   O     0.39400   0.50000   0.18508   0.00000  Uiso   1.00
O520   O     0.63196   0.46862   0.11092   0.00000  Uiso   1.00
C521   C     0.99996   0.42087   0.24987   0.00000  Uiso   1.00
C522   C     0.70672   0.35592   0.22652   0.00000  Uiso   1.00
C523   C     0.99893   0.62386   0.25051   0.00000  Uiso   1.00
C524   C     0.99909   0.37630   0.24921   0.00000  Uiso   1.00
C525   C     0.85190   0.46983   0.27407   0.00000  Uiso   1.00
C526   C     0.81403   0.53196   0.22786   0.00000  Uiso   1.00
C527   C     0.80390   0.46726   0.26988   0.00000  Uiso   1.00
C528   C     0.86407   0.53190   0.22694   0.00000  Uiso   1.00
C529   C     0.97268   0.49861   0.33607   0.00000  Uiso   1.00
C530   C     0.69407   0.49683   0.16443   0.00000  Uiso   1.00
C531   C     0.95744   0.49257   0.38558   0.00000  Uiso   1.00
C532   C     0.99956   0.57913   0.25059   0.00000  Uiso   1.00
C533   C     0.71032   0.49083   0.11579   0.00000  Uiso   1.00
C534   C     0.96862   0.46225   0.45602   0.00000  Uiso   1.00
C535   C     0.69389   0.48882   0.04373   0.00000  Uiso   1.00
C536   C     0.98553   0.46973   0.40940   0.00000  Uiso   1.00
C537   C     0.67854   0.48180   0.09057   0.00000  Uiso   1.00
C538   C     0.91117   0.50471   0.40863   0.00000  Uiso   1.00
C539   C     0.75958   0.49309   0.09392   0.00000  Uiso   1.00
C540   C     0.89155   0.49285   0.45472   0.00000  Uiso   1.00
C541   C     0.77654   0.49221   0.04704   0.00000  Uiso   1.00
C542   C     0.92226   0.47389   0.47885   0.00000  Uiso   1.00
C543   C     0.85886   0.47354   0.04811   0.00000  Uiso   1.00
C544   C     0.74273   0.49499   0.02176   0.00000  Uiso   1.00
C545   C     0.84194   0.49712   0.47710   0.00000  Uiso   1.00
C546   C     0.82597   0.48888   0.02469   0.00000  Uiso   1.00
C547   C     0.96557   0.42644   0.12642   0.00000  Uiso   1.00
C548   C     0.91519   0.41346   0.15413   0.00000  Uiso   1.00
C549   C     0.68521   0.41004   0.38062   0.00000  Uiso   1.00
C550   C     0.71292   0.38070   0.40502   0.00000  Uiso   1.00
C551   C     0.84589   0.44510   0.34632   0.00000  Uiso   1.00
C552   C     0.86642   0.41410   0.37543   0.00000  Uiso   1.00
C553   C     0.80943   0.57107   0.16333   0.00000  Uiso   1.00
C554   C     0.80716   0.50550   0.45325   0.00000  Uiso   1.00
C555   C     0.77027   0.58873   0.14286   0.00000  Uiso   1.00
C556   C     0.79886   0.39744   0.26433   0.00000  Uiso   1.00
C557   C     0.77961   0.35721   0.29177   0.00000  Uiso   1.00
C558   C     0.92261   0.57417   0.17124   0.00000  Uiso   1.00
C559   C     0.91828   0.54725   0.13387   0.00000  Uiso   1.00
C560   C     0.90565   0.46472   0.02520   0.00000  Uiso   1.00
C561   C     0.75830   0.50248   0.47509   0.00000  Uiso   1.00
C562   C     0.95677   0.35386   0.27049   0.00000  Uiso   1.00
C563   C     0.70755   0.64653   0.22968   0.00000  Uiso   1.00
C564   C     0.95643   0.64433   0.27031   0.00000  Uiso   1.00
Cu565  Cu    0.71355   0.50001   0.25000   0.00000  Uiso   1.00
Cu566  Cu    0.95311   0.49999   0.25000   0.00000  Uiso   1.00
H567   H     0.92861   0.44965   0.04381   0.00000  Uiso   1.00
H568   H     0.74088   0.63144   0.21550   0.00000  Uiso   1.00
H569   H     0.92359   0.62719   0.28660   0.00000  Uiso   1.00
H570   H     0.73796   0.37292   0.20641   0.00000  Uiso   1.00
H571   H     0.99008   0.42064   0.14835   0.00000  Uiso   1.00
H572   H     0.97666   0.40692   0.09736   0.00000  Uiso   1.00
H573   H     0.91498   0.38045   0.16699   0.00000  Uiso   1.00
H574   H     0.90322   0.43275   0.18318   0.00000  Uiso   1.00
H575   H     0.88978   0.41736   0.13304   0.00000  Uiso   1.00
H576   H     0.69727   0.40603   0.34412   0.00000  Uiso   1.00
H577   H     0.97987   0.40045   0.39180   0.00000  Uiso   1.00
H578   H     0.73264   0.50591   0.45536   0.00000  Uiso   1.00
H579   H     0.69946   0.38281   0.44192   0.00000  Uiso   1.00
H580   H     0.70807   0.34837   0.39739   0.00000  Uiso   1.00
H581   H     0.75170   0.38858   0.39407   0.00000  Uiso   1.00
H582   H     0.80663   0.43949   0.35455   0.00000  Uiso   1.00
H583   H     0.85203   0.47680   0.35482   0.00000  Uiso   1.00
H584   H     0.90587   0.41849   0.36760   0.00000  Uiso   1.00
H585   H     0.84997   0.41862   0.41157   0.00000  Uiso   1.00
H586   H     0.85865   0.38205   0.36891   0.00000  Uiso   1.00
H587   H     0.82094   0.54122   0.14834   0.00000  Uiso   1.00
H588   H     0.83877   0.59434   0.15342   0.00000  Uiso   1.00
H589   H     0.78450   0.49691   0.11349   0.00000  Uiso   1.00
H590   H     0.77005   0.62305   0.14197   0.00000  Uiso   1.00
H591   H     0.77772   0.58050   0.10749   0.00000  Uiso   1.00
H592   H     0.73431   0.57661   0.16178   0.00000  Uiso   1.00
H593   H     0.83848   0.39623   0.25763   0.00000  Uiso   1.00
H594   H     0.79204   0.39870   0.23091   0.00000  Uiso   1.00
H595   H     0.73992   0.35604   0.30061   0.00000  Uiso   1.00
H596   H     0.79406   0.66381   0.27202   0.00000  Uiso   1.00
H597   H     0.79115   0.35462   0.32321   0.00000  Uiso   1.00
H598   H     0.95930   0.57133   0.17500   0.00000  Uiso   1.00
H599   H     0.92141   0.60694   0.15804   0.00000  Uiso   1.00
H600   H     0.89075   0.52290   0.38980   0.00000  Uiso   1.00
H601   H     0.89801   0.56256   0.11174   0.00000  Uiso   1.00
H602   H     0.95462   0.54456   0.11081   0.00000  Uiso   1.00
H603   H     0.90312   0.51607   0.14681   0.00000  Uiso   1.00
H604   H     0.99080   0.44478   0.47381   0.00000  Uiso   1.00
H605   H     0.66793   0.48855   0.02469   0.00000  Uiso   1.00
H606   H     0.84809   0.46443   0.08375   0.00000  Uiso   1.00
H607   H     0.81648   0.51134   0.41723   0.00000  Uiso   1.00
H608   H     0.92425   0.36935   0.28737   0.00000  Uiso   1.00
N609   N     0.78403   0.50001   0.24999   0.00000  Uiso   1.00
N610   N     0.88264   0.49999   0.25001   0.00000  Uiso   1.00
O611   O     0.70625   0.43989   0.25000   0.00000  Uiso   1.00
O612   O     0.69456   0.45168   0.38705   0.00000  Uiso   1.00
O613   O     0.86878   0.44030   0.30057   0.00000  Uiso   1.00
O614   O     0.79390   0.56660   0.21089   0.00000  Uiso   1.00
O615   O     0.77690   0.43187   0.28750   0.00000  Uiso   1.00
O616   O     0.88809   0.56974   0.21434   0.00000  Uiso   1.00
O617   O     0.96042   0.56011   0.25000   0.00000  Uiso   1.00
O618   O     0.96039   0.43988   0.25000   0.00000  Uiso   1.00
O619   O     0.70628   0.56012   0.24999   0.00000  Uiso   1.00
O620   O     0.68519   0.50001   0.31491   0.00000  Uiso   1.00
O621   O     0.98148   0.49999   0.18508   0.00000  Uiso   1.00
O622   O     0.93933   0.50000   0.31492   0.00000  Uiso   1.00
O623   O     0.72733   0.50000   0.18508   0.00000  Uiso   1.00
O624   O     0.96530   0.46862   0.11092   0.00000  Uiso   1.00
C625   C     0.33329   0.75421   0.24987   0.00000  Uiso   1.00
C626   C     0.04006   0.68926   0.22652   0.00000  Uiso   1.00
C627   C     0.33226   0.95720   0.25051   0.00000  Uiso   1.00
C628   C     0.33242   0.70964   0.24921   0.00000  Uiso   1.00
C629   C     0.18524   0.80316   0.27407   0.00000  Uiso   1.00
C630   C     0.14737   0.86529   0.22786   0.00000  Uiso   1.00
C631   C     0.13723   0.80059   0.26988   0.00000  Uiso   1.00
C632   C     0.19740   0.86523   0.22694   0.00000  Uiso   1.00
C633   C     0.30601   0.83194   0.33607   0.00000  Uiso   1.00
C634   C     0.02741   0.83016   0.16443   0.00000  Uiso   1.00
C635   C     0.29077   0.82590   0.38558   0.00000  Uiso   1.00
C636   C     0.33290   0.91247   0.25059   0.00000  Uiso   1.00
C637   C     0.04365   0.82416   0.11579   0.00000  Uiso   1.00
C638   C     0.30196   0.79558   0.45602   0.00000  Uiso   1.00
C639   C     0.02722   0.82216   0.04373   0.00000  Uiso   1.00
C640   C     0.31886   0.80306   0.40940   0.00000  Uiso   1.00
C641   C     0.01187   0.81513   0.09057   0.00000  Uiso   1.00
C642   C     0.24450   0.83804   0.40863   0.00000  Uiso   1.00
C643   C     0.09291   0.82643   0.09392   0.00000  Uiso   1.00
C644   C     0.22488   0.82619   0.45472   0.00000  Uiso   1.00
C645   C     0.10987   0.82555   0.04704   0.00000  Uiso   1.00
C646   C     0.25559   0.80723   0.47885   0.00000  Uiso   1.00
C647   C     0.19219   0.80687   0.04811   0.00000  Uiso   1.00
C648   C     0.07606   0.82832   0.02176   0.00000  Uiso   1.00
C649   C     0.17528   0.83045   0.47710   0.00000  Uiso   1.00
C650   C     0.15931   0.82221   0.02469   0.00000  Uiso   1.00
C651   C     0.29890   0.75978   0.12642   0.00000  Uiso   1.00
C652   C     0.24852   0.74679   0.15413   0.00000  Uiso   1.00
C653   C     0.01855   0.74338   0.38062   0.00000  Uiso   1.00
C654   C     0.04625   0.71403   0.40502   0.00000  Uiso   1.00
C655   C     0.17923   0.77843   0.34632   0.00000  Uiso   1.00
C656   C     0.19975   0.74743   0.37543   0.00000  Uiso   1.00
C657   C     0.14276   0.90440   0.16333   0.00000  Uiso   1.00
C658   C     0.14049   0.83883   0.45325   0.00000  Uiso   1.00
C659   C     0.10361   0.92207   0.14286   0.00000  Uiso   1.00
C660   C     0.13219   0.73078   0.26433   0.00000  Uiso   1.00
C661   C     0.11294   0.69054   0.29177   0.00000  Uiso   1.00
C662   C     0.25595   0.90751   0.17124   0.00000  Uiso   1.00
C663   C     0.25162   0.88058   0.13387   0.00000  Uiso   1.00
C664   C     0.23898   0.79805   0.02520   0.00000  Uiso   1.00
C665   C     0.09164   0.83581   0.47509   0.00000  Uiso   1.00
C666   C     0.29010   0.68719   0.27049   0.00000  Uiso   1.00
C667   C     0.04088   0.97987   0.22968   0.00000  Uiso   1.00
C668   C     0.28977   0.97766   0.27031   0.00000  Uiso   1.00
Cu669  Cu    0.04689   0.83334   0.25000   0.00000  Uiso   1.00
Cu670  Cu    0.28645   0.83333   0.25000   0.00000  Uiso   1.00
H671   H     0.26195   0.78299   0.04381   0.00000  Uiso   1.00
H672   H     0.07422   0.96477   0.21550   0.00000  Uiso   1.00
H673   H     0.25693   0.96052   0.28660   0.00000  Uiso   1.00
H674   H     0.07130   0.70625   0.20641   0.00000  Uiso   1.00
H675   H     0.32341   0.75397   0.14835   0.00000  Uiso   1.00
H676   H     0.31000   0.74025   0.09736   0.00000  Uiso   1.00
H677   H     0.24831   0.71378   0.16699   0.00000  Uiso   1.00
H678   H     0.23655   0.76608   0.18318   0.00000  Uiso   1.00
H679   H     0.22311   0.75069   0.13304   0.00000  Uiso   1.00
H680   H     0.03060   0.73936   0.34412   0.00000  Uiso   1.00
H681   H     0.31320   0.73379   0.39180   0.00000  Uiso   1.00
H682   H     0.06598   0.83924   0.45536   0.00000  Uiso   1.00
H683   H     0.03280   0.71614   0.44192   0.00000  Uiso   1.00
H684   H     0.04140   0.68170   0.39739   0.00000  Uiso   1.00
H685   H     0.08504   0.72191   0.39407   0.00000  Uiso   1.00
H686   H     0.13996   0.77282   0.35455   0.00000  Uiso   1.00
H687   H     0.18536   0.81013   0.35482   0.00000  Uiso   1.00
H688   H     0.23920   0.75182   0.36760   0.00000  Uiso   1.00
H689   H     0.18330   0.75196   0.41157   0.00000  Uiso   1.00
H690   H     0.19198   0.71538   0.36891   0.00000  Uiso   1.00
H691   H     0.15428   0.87455   0.14834   0.00000  Uiso   1.00
H692   H     0.17210   0.92767   0.15342   0.00000  Uiso   1.00
H693   H     0.11783   0.83025   0.11349   0.00000  Uiso   1.00
H694   H     0.10339   0.95639   0.14197   0.00000  Uiso   1.00
H695   H     0.11106   0.91384   0.10749   0.00000  Uiso   1.00
H696   H     0.06765   0.90994   0.16178   0.00000  Uiso   1.00
H697   H     0.17181   0.72956   0.25763   0.00000  Uiso   1.00
H698   H     0.12538   0.73203   0.23091   0.00000  Uiso   1.00
H699   H     0.07325   0.68937   0.30061   0.00000  Uiso   1.00
H700   H     0.12739   0.99714   0.27202   0.00000  Uiso   1.00
H701   H     0.12448   0.68795   0.32321   0.00000  Uiso   1.00
H702   H     0.29263   0.90467   0.17500   0.00000  Uiso   1.00
H703   H     0.25475   0.94027   0.15804   0.00000  Uiso   1.00
H704   H     0.22408   0.85623   0.38980   0.00000  Uiso   1.00
H705   H     0.23134   0.89590   0.11174   0.00000  Uiso   1.00
H706   H     0.28795   0.87789   0.11081   0.00000  Uiso   1.00
H707   H     0.23645   0.84940   0.14681   0.00000  Uiso   1.00
H708   H     0.32413   0.77811   0.47381   0.00000  Uiso   1.00
H709   H     0.00126   0.82189   0.02469   0.00000  Uiso   1.00
H710   H     0.18142   0.79776   0.08375   0.00000  Uiso   1.00
H711   H     0.14981   0.84467   0.41723   0.00000  Uiso   1.00
H712   H     0.25758   0.70269   0.28737   0.00000  Uiso   1.00
N713   N     0.11736   0.83334   0.24999   0.00000  Uiso   1.00
N714   N     0.21597   0.83332   0.25001   0.00000  Uiso   1.00
O715   O     0.03958   0.77322   0.25000   0.00000  Uiso   1.00
O716   O     0.02789   0.78502   0.38705   0.00000  Uiso   1.00
O717   O     0.20211   0.77363   0.30057   0.00000  Uiso   1.00
O718   O     0.12723   0.89994   0.21089   0.00000  Uiso   1.00
O719   O     0.11023   0.76520   0.28750   0.00000  Uiso   1.00
O720   O     0.22142   0.90307   0.21434   0.00000  Uiso   1.00
O721   O     0.29375   0.89345   0.25000   0.00000  Uiso   1.00
O722   O     0.29372   0.77321   0.25000   0.00000  Uiso   1.00
O723   O     0.03961   0.89346   0.24999   0.00000  Uiso   1.00
O724   O     0.01852   0.83334   0.31491   0.00000  Uiso   1.00
O725   O     0.31481   0.83332   0.18508   0.00000  Uiso   1.00
O726   O     0.27267   0.83333   0.31492   0.00000  Uiso   1.00
O727   O     0.06067   0.83333   0.18508   0.00000  Uiso   1.00
O728   O     0.29863   0.80196   0.11092   0.00000  Uiso   1.00
C729   C     0.66663   0.75421   0.24987   0.00000  Uiso   1.00
C730   C     0.37339   0.68926   0.22652   0.00000  Uiso   1.00
C731   C     0.66559   0.95720   0.25051   0.00000  Uiso   1.00
C732   C     0.66575   0.70964   0.24921   0.00000  Uiso   1.00
C733   C     0.51857   0.80316   0.27407   0.00000  Uiso   1.00
C734   C     0.48070   0.86529   0.22786   0.00000  Uiso   1.00
C735   C     0.47056   0.80059   0.26988   0.00000  Uiso   1.00
C736   C     0.53073   0.86523   0.22694   0.00000  Uiso   1.00
C737   C     0.63935   0.83194   0.33607   0.00000  Uiso   1.00
C738   C     0.36074   0.83016   0.16443   0.00000  Uiso   1.00
C739   C     0.62410   0.82590   0.38558   0.00000  Uiso   1.00
C740   C     0.66623   0.91247   0.25059   0.00000  Uiso   1.00
C741   C     0.37698   0.82416   0.11579   0.00000  Uiso   1.00
C742   C     0.63529   0.79558   0.45602   0.00000  Uiso   1.00
C743   C     0.36056   0.82216   0.04373   0.00000  Uiso   1.00
C744   C     0.65220   0.80306   0.40940   0.00000  Uiso   1.00
C745   C     0.34521   0.81513   0.09057   0.00000  Uiso   1.00
C746   C     0.57784   0.83804   0.40863   0.00000  Uiso   1.00
C747   C     0.42624   0.82643   0.09392   0.00000  Uiso   1.00
C748   C     0.55822   0.82619   0.45472   0.00000  Uiso   1.00
C749   C     0.44321   0.82555   0.04704   0.00000  Uiso   1.00
C750   C     0.58892   0.80723   0.47885   0.00000  Uiso   1.00
C751   C     0.52553   0.80687   0.04811   0.00000  Uiso   1.00
C752   C     0.40939   0.82832   0.02176   0.00000  Uiso   1.00
C753   C     0.50861   0.83045   0.47710   0.00000  Uiso   1.00
C754   C     0.49264   0.82221   0.02469   0.00000  Uiso   1.00
C755   C     0.63223   0.75978   0.12642   0.00000  Uiso   1.00
C756   C     0.58185   0.74679   0.15413   0.00000  Uiso   1.00
C757   C     0.35188   0.74338   0.38062   0.00000  Uiso   1.00
C758   C     0.37958   0.71403   0.40502   0.00000  Uiso   1.00
C759   C     0.51256   0.77843   0.34632   0.00000  Uiso   1.00
C760   C     0.53309   0.74743   0.37543   0.00000  Uiso   1.00
C761   C     0.47610   0.90440   0.16333   0.00000  Uiso   1.00
C762   C     0.47383   0.83883   0.45325   0.00000  Uiso   1.00
C763   C     0.43694   0.92207   0.14286   0.00000  Uiso   1.00
C764   C     0.46553   0.73078   0.26433   0.00000  Uiso   1.00
C765   C     0.44628   0.69054   0.29177   0.00000  Uiso   1.00
C766   C     0.58928   0.90751   0.17124   0.00000  Uiso   1.00
C767   C     0.58495   0.88058   0.13387   0.00000  Uiso   1.00
C768   C     0.57232   0.79805   0.02520   0.00000  Uiso   1.00
C769   C     0.42497   0.83581   0.47509   0.00000  Uiso   1.00
C770   C     0.62344   0.68719   0.27049   0.00000  Uiso   1.00
C771   C     0.37421   0.97987   0.22968   0.00000  Uiso   1.00
C772   C     0.62310   0.97766   0.27031   0.00000  Uiso   1.00
Cu773  Cu    0.38022   0.83334   0.25000   0.00000  Uiso   1.00
Cu774  Cu    0.61978   0.83333   0.25000   0.00000  Uiso   1.00
H775   H     0.59528   0.78299   0.04381   0.00000  Uiso   1.00
H776   H     0.40755   0.96477   0.21550   0.00000  Uiso   1.00
H777   H     0.59026   0.96052   0.28660   0.00000  Uiso   1.00
H778   H     0.40463   0.70625   0.20641   0.00000  Uiso   1.00
H779   H     0.65675   0.75397   0.14835   0.00000  Uiso   1.00
H780   H     0.64333   0.74025   0.09736   0.00000  Uiso   1.00
H781   H     0.58165   0.71378   0.16699   0.00000  Uiso   1.00
H782   H     0.56988   0.76608   0.18318   0.00000  Uiso   1.00
H783   H     0.55645   0.75069   0.13304   0.00000  Uiso   1.00
H784   H     0.36394   0.73936   0.34412   0.00000  Uiso   1.00
H785   H     0.64653   0.73379   0.39180   0.00000  Uiso   1.00
H786   H     0.39931   0.83924   0.45536   0.00000  Uiso   1.00
H787   H     0.36613   0.71614   0.44192   0.00000  Uiso   1.00
H788   H     0.37474   0.68170   0.39739   0.00000  Uiso   1.00
H789   H     0.41837   0.72191   0.39407   0.00000  Uiso   1.00
H790   H     0.47330   0.77282   0.35455   0.00000  Uiso   1.00
H791   H     0.51870   0.81013   0.35482   0.00000  Uiso   1.00
H792   H     0.57253   0.75182   0.36760   0.00000  Uiso   1.00
H793   H     0.51664   0.75196   0.41157   0.00000  Uiso   1.00
H794   H     0.52531   0.71538   0.36891   0.00000  Uiso   1.00
H795   H     0.48761   0.87455   0.14834   0.00000  Uiso   1.00
H796   H     0.50544   0.92767   0.15342   0.00000  Uiso   1.00
H797   H     0.45117   0.83025   0.11349   0.00000  Uiso   1.00
H798   H     0.43672   0.95639   0.14197   0.00000  Uiso   1.00
H799   H     0.44439   0.91384   0.10749   0.00000  Uiso   1.00
H800   H     0.40098   0.90994   0.16178   0.00000  Uiso   1.00
H801   H     0.50514   0.72956   0.25763   0.00000  Uiso   1.00
H802   H     0.45871   0.73203   0.23091   0.00000  Uiso   1.00
H803   H     0.40658   0.68937   0.30061   0.00000  Uiso   1.00
H804   H     0.46072   0.99714   0.27202   0.00000  Uiso   1.00
H805   H     0.45781   0.68795   0.32321   0.00000  Uiso   1.00
H806   H     0.62596   0.90467   0.17500   0.00000  Uiso   1.00
H807   H     0.58808   0.94027   0.15804   0.00000  Uiso   1.00
H808   H     0.55742   0.85623   0.38980   0.00000  Uiso   1.00
H809   H     0.56467   0.89590   0.11174   0.00000  Uiso   1.00
H810   H     0.62128   0.87789   0.11081   0.00000  Uiso   1.00
H811   H     0.56978   0.84940   0.14681   0.00000  Uiso   1.00
H812   H     0.65747   0.77811   0.47381   0.00000  Uiso   1.00
H813   H     0.33459   0.82189   0.02469   0.00000  Uiso   1.00
H814   H     0.51475   0.79776   0.08375   0.00000  Uiso   1.00
H815   H     0.48315   0.84467   0.41723   0.00000  Uiso   1.00
H816   H     0.59092   0.70269   0.28737   0.00000  Uiso   1.00
N817   N     0.45069   0.83334   0.24999   0.00000  Uiso   1.00
N818   N     0.54931   0.83332   0.25001   0.00000  Uiso   1.00
O819   O     0.37291   0.77322   0.25000   0.00000  Uiso   1.00
O820   O     0.36123   0.78502   0.38705   0.00000  Uiso   1.00
O821   O     0.53545   0.77363   0.30057   0.00000  Uiso   1.00
O822   O     0.46057   0.89994   0.21089   0.00000  Uiso   1.00
O823   O     0.44356   0.76520   0.28750   0.00000  Uiso   1.00
O824   O     0.55476   0.90307   0.21434   0.00000  Uiso   1.00
O825   O     0.62709   0.89345   0.25000   0.00000  Uiso   1.00
O826   O     0.62706   0.77321   0.25000   0.00000  Uiso   1.00
O827   O     0.37294   0.89346   0.24999   0.00000  Uiso   1.00
O828   O     0.35186   0.83334   0.31491   0.00000  Uiso   1.00
O829   O     0.64814   0.83332   0.18508   0.00000  Uiso   1.00
O830   O     0.60600   0.83333   0.31492   0.00000  Uiso   1.00
O831   O     0.39400   0.83333   0.18508   0.00000  Uiso   1.00
O832   O     0.63196   0.80196   0.11092   0.00000  Uiso   1.00
C833   C     0.99996   0.75421   0.24987   0.00000  Uiso   1.00
C834   C     0.70672   0.68926   0.22652   0.00000  Uiso   1.00
C835   C     0.99893   0.95720   0.25051   0.00000  Uiso   1.00
C836   C     0.99909   0.70964   0.24921   0.00000  Uiso   1.00
C837   C     0.85190   0.80316   0.27407   0.00000  Uiso   1.00
C838   C     0.81403   0.86529   0.22786   0.00000  Uiso   1.00
C839   C     0.80390   0.80059   0.26988   0.00000  Uiso   1.00
C840   C     0.86407   0.86523   0.22694   0.00000  Uiso   1.00
C841   C     0.97268   0.83194   0.33607   0.00000  Uiso   1.00
C842   C     0.69407   0.83016   0.16443   0.00000  Uiso   1.00
C843   C     0.95744   0.82590   0.38558   0.00000  Uiso   1.00
C844   C     0.99956   0.91247   0.25059   0.00000  Uiso   1.00
C845   C     0.71032   0.82416   0.11579   0.00000  Uiso   1.00
C846   C     0.96862   0.79558   0.45602   0.00000  Uiso   1.00
C847   C     0.69389   0.82216   0.04373   0.00000  Uiso   1.00
C848   C     0.98553   0.80306   0.40940   0.00000  Uiso   1.00
C849   C     0.67854   0.81513   0.09057   0.00000  Uiso   1.00
C850   C     0.91117   0.83804   0.40863   0.00000  Uiso   1.00
C851   C     0.75958   0.82643   0.09392   0.00000  Uiso   1.00
C852   C     0.89155   0.82619   0.45472   0.00000  Uiso   1.00
C853   C     0.77654   0.82555   0.04704   0.00000  Uiso   1.00
C854   C     0.92226   0.80723   0.47885   0.00000  Uiso   1.00
C855   C     0.85886   0.80687   0.04811   0.00000  Uiso   1.00
C856   C     0.74273   0.82832   0.02176   0.00000  Uiso   1.00
C857   C     0.84194   0.83045   0.47710   0.00000  Uiso   1.00
C858   C     0.82597   0.82221   0.02469   0.00000  Uiso   1.00
C859   C     0.96557   0.75978   0.12642   0.00000  Uiso   1.00
C860   C     0.91519   0.74679   0.15413   0.00000  Uiso   1.00
C861   C     0.68521   0.74338   0.38062   0.00000  Uiso   1.00
C862   C     0.71292   0.71403   0.40502   0.00000  Uiso   1.00
C863   C     0.84589   0.77843   0.34632   0.00000  Uiso   1.00
C864   C     0.86642   0.74743   0.37543   0.00000  Uiso   1.00
C865   C     0.80943   0.90440   0.16333   0.00000  Uiso   1.00
C866   C     0.80716   0.83883   0.45325   0.00000  Uiso   1.00
C867   C     0.77027   0.92207   0.14286   0.00000  Uiso   1.00
C868   C     0.79886   0.73078   0.26433   0.00000  Uiso   1.00
C869   C     0.77961   0.69054   0.29177   0.00000  Uiso   1.00
C870   C     0.92261   0.90751   0.17124   0.00000  Uiso   1.00
C871   C     0.91828   0.88058   0.13387   0.00000  Uiso   1.00
C872   C     0.90565   0.79805   0.02520   0.00000  Uiso   1.00
C873   C     0.75830   0.83581   0.47509   0.00000  Uiso   1.00
C874   C     0.95677   0.68719   0.27049   0.00000  Uiso   1.00
C875   C     0.70755   0.97987   0.22968   0.00000  Uiso   1.00
C876   C     0.95643   0.97766   0.27031   0.00000  Uiso   1.00
Cu877  Cu    0.71355   0.83334   0.25000   0.00000  Uiso   1.00
Cu878  Cu    0.95311   0.83333   0.25000   0.00000  Uiso   1.00
H879   H     0.92861   0.78299   0.04381   0.00000  Uiso   1.00
H880   H     0.74088   0.96477   0.21550   0.00000  Uiso   1.00
H881   H     0.92359   0.96052   0.28660   0.00000  Uiso   1.00
H882   H     0.73796   0.70625   0.20641   0.00000  Uiso   1.00
H883   H     0.99008   0.75397   0.14835   0.00000  Uiso   1.00
H884   H     0.97666   0.74025   0.09736   0.00000  Uiso   1.00
H885   H     0.91498   0.71378   0.16699   0.00000  Uiso   1.00
H886   H     0.90322   0.76608   0.18318   0.00000  Uiso   1.00
H887   H     0.88978   0.75069   0.13304   0.00000  Uiso   1.00
H888   H     0.69727   0.73936   0.34412   0.00000  Uiso   1.00
H889   H     0.97987   0.73379   0.39180   0.00000  Uiso   1.00
H890   H     0.73264   0.83924   0.45536   0.00000  Uiso   1.00
H891   H     0.69946   0.71614   0.44192   0.00000  Uiso   1.00
H892   H     0.70807   0.68170   0.39739   0.00000  Uiso   1.00
H893   H     0.75170   0.72191   0.39407   0.00000  Uiso   1.00
H894   H     0.80663   0.77282   0.35455   0.00000  Uiso   1.00
H895   H     0.85203   0.81013   0.35482   0.00000  Uiso   1.00
H896   H     0.90587   0.75182   0.36760   0.00000  Uiso   1.00
H897   H     0.84997   0.75196   0.41157   0.00000  Uiso   1.00
H898   H     0.85865   0.71538   0.36891   0.00000  Uiso   1.00
H899   H     0.82094   0.87455   0.14834   0.00000  Uiso   1.00
H900   H     0.83877   0.92767   0.15342   0.00000  Uiso   1.00
H901   H     0.78450   0.83025   0.11349   0.00000  Uiso   1.00
H902   H     0.77005   0.95639   0.14197   0.00000  Uiso   1.00
H903   H     0.77772   0.91384   0.10749   0.00000  Uiso   1.00
H904   H     0.73431   0.90994   0.16178   0.00000  Uiso   1.00
H905   H     0.83848   0.72956   0.25763   0.00000  Uiso   1.00
H906   H     0.79204   0.73203   0.23091   0.00000  Uiso   1.00
H907   H     0.73992   0.68937   0.30061   0.00000  Uiso   1.00
H908   H     0.79406   0.99714   0.27202   0.00000  Uiso   1.00
H909   H     0.79115   0.68795   0.32321   0.00000  Uiso   1.00
H910   H     0.95930   0.90467   0.17500   0.00000  Uiso   1.00
H911   H     0.92141   0.94027   0.15804   0.00000  Uiso   1.00
H912   H     0.89075   0.85623   0.38980   0.00000  Uiso   1.00
H913   H     0.89801   0.89590   0.11174   0.00000  Uiso   1.00
H914   H     0.95462   0.87789   0.11081   0.00000  Uiso   1.00
H915   H     0.90312   0.84940   0.14681   0.00000  Uiso   1.00
H916   H     0.99080   0.77811   0.47381   0.00000  Uiso   1.00
H917   H     0.66793   0.82189   0.02469   0.00000  Uiso   1.00
H918   H     0.84809   0.79776   0.08375   0.00000  Uiso   1.00
H919   H     0.81648   0.84467   0.41723   0.00000  Uiso   1.00
H920   H     0.92425   0.70269   0.28737   0.00000  Uiso   1.00
N921   N     0.78403   0.83334   0.24999   0.00000  Uiso   1.00
N922   N     0.88264   0.83332   0.25001   0.00000  Uiso   1.00
O923   O     0.70625   0.77322   0.25000   0.00000  Uiso   1.00
O924   O     0.69456   0.78502   0.38705   0.00000  Uiso   1.00
O925   O     0.86878   0.77363   0.30057   0.00000  Uiso   1.00
O926   O     0.79390   0.89994   0.21089   0.00000  Uiso   1.00
O927   O     0.77690   0.76520   0.28750   0.00000  Uiso   1.00
O928   O     0.88809   0.90307   0.21434   0.00000  Uiso   1.00
O929   O     0.96042   0.89345   0.25000   0.00000  Uiso   1.00
O930   O     0.96039   0.77321   0.25000   0.00000  Uiso   1.00
O931   O     0.70628   0.89346   0.24999   0.00000  Uiso   1.00
O932   O     0.68519   0.83334   0.31491   0.00000  Uiso   1.00
O933   O     0.98148   0.83332   0.18508   0.00000  Uiso   1.00
O934   O     0.93933   0.83333   0.31492   0.00000  Uiso   1.00
O935   O     0.72733   0.83333   0.18508   0.00000  Uiso   1.00
O936   O     0.96530   0.80196   0.11092   0.00000  Uiso   1.00
C937   C     0.33329   0.08754   0.74987   0.00000  Uiso   1.00
C938   C     0.04006   0.02259   0.72652   0.00000  Uiso   1.00
C939   C     0.33226   0.29053   0.75051   0.00000  Uiso   1.00
C940   C     0.33242   0.04297   0.74921   0.00000  Uiso   1.00
C941   C     0.18524   0.13650   0.77407   0.00000  Uiso   1.00
C942   C     0.14737   0.19863   0.72786   0.00000  Uiso   1.00
C943   C     0.13723   0.13392   0.76988   0.00000  Uiso   1.00
C944   C     0.19740   0.19856   0.72694   0.00000  Uiso   1.00
C945   C     0.30601   0.16528   0.83607   0.00000  Uiso   1.00
C946   C     0.02741   0.16350   0.66443   0.00000  Uiso   1.00
C947   C     0.29077   0.15924   0.88558   0.00000  Uiso   1.00
C948   C     0.33290   0.24580   0.75059   0.00000  Uiso   1.00
C949   C     0.04365   0.15750   0.61579   0.00000  Uiso   1.00
C950   C     0.30196   0.12892   0.95602   0.00000  Uiso   1.00
C951   C     0.02722   0.15549   0.54373   0.00000  Uiso   1.00
C952   C     0.31886   0.13640   0.90940   0.00000  Uiso   1.00
C953   C     0.01187   0.14846   0.59057   0.00000  Uiso   1.00
C954   C     0.24450   0.17137   0.90863   0.00000  Uiso   1.00
C955   C     0.09291   0.15976   0.59392   0.00000  Uiso   1.00
C956   C     0.22488   0.15952   0.95472   0.00000  Uiso   1.00
C957   C     0.10987   0.15888   0.54704   0.00000  Uiso   1.00
C958   C     0.25559   0.14056   0.97885   0.00000  Uiso   1.00
C959   C     0.19219   0.14020   0.54811   0.00000  Uiso   1.00
C960   C     0.07606   0.16165   0.52176   0.00000  Uiso   1.00
C961   C     0.17528   0.16378   0.97710   0.00000  Uiso   1.00
C962   C     0.15931   0.15555   0.52469   0.00000  Uiso   1.00
C963   C     0.29890   0.09311   0.62642   0.00000  Uiso   1.00
C964   C     0.24852   0.08012   0.65413   0.00000  Uiso   1.00
C965   C     0.01855   0.07671   0.88062   0.00000  Uiso   1.00
C966   C     0.04625   0.04737   0.90502   0.00000  Uiso   1.00
C967   C     0.17923   0.11176   0.84632   0.00000  Uiso   1.00
C968   C     0.19975   0.08077   0.87543   0.00000  Uiso   1.00
C969   C     0.14276   0.23774   0.66333   0.00000  Uiso   1.00
C970   C     0.14049   0.17216   0.95325   0.00000  Uiso   1.00
C971   C     0.10361   0.25540   0.64286   0.00000  Uiso   1.00
C972   C     0.13219   0.06411   0.76433   0.00000  Uiso   1.00
C973   C     0.11294   0.02388   0.79177   0.00000  Uiso   1.00
C974   C     0.25595   0.24084   0.67124   0.00000  Uiso   1.00
C975   C     0.25162   0.21391   0.63387   0.00000  Uiso   1.00
C976   C     0.23898   0.13138   0.52520   0.00000  Uiso   1.00
C977   C     0.09164   0.16915   0.97509   0.00000  Uiso   1.00
C978   C     0.29010   0.02052   0.77049   0.00000  Uiso   1.00
C979   C     0.04088   0.31320   0.72968   0.00000  Uiso   1.00
C980   C     0.28977   0.31099   0.77031   0.00000  Uiso   1.00
Cu981  Cu    0.04689   0.16667   0.75000   0.00000  Uiso   1.00
Cu982  Cu    0.28645   0.16666   0.75000   0.00000  Uiso   1.00
H983   H     0.26195   0.11632   0.54381   0.00000  Uiso   1.00
H984   H     0.07422   0.29811   0.71550   0.00000  Uiso   1.00
H985   H     0.25693   0.29386   0.78660   0.00000  Uiso   1.00
H986   H     0.07130   0.03959   0.70641   0.00000  Uiso   1.00
H987   H     0.32341   0.08730   0.64835   0.00000  Uiso   1.00
H988   H     0.31000   0.07359   0.59736   0.00000  Uiso   1.00
H989   H     0.24831   0.04712   0.66699   0.00000  Uiso   1.00
H990   H     0.23655   0.09942   0.68318   0.00000  Uiso   1.00
H991   H     0.22311   0.08402   0.63304   0.00000  Uiso   1.00
H992   H     0.03060   0.07269   0.84412   0.00000  Uiso   1.00
H993   H     0.31320   0.06712   0.89180   0.00000  Uiso   1.00
H994   H     0.06598   0.17258   0.95536   0.00000  Uiso   1.00
H995   H     0.03280   0.04948   0.94192   0.00000  Uiso   1.00
H996   H     0.04140   0.01504   0.89739   0.00000  Uiso   1.00
H997   H     0.08504   0.05524   0.89407   0.00000  Uiso   1.00
H998   H     0.13996   0.10615   0.85455   0.00000  Uiso   1.00
H999   H     0.18536   0.14347   0.85482   0.00000  Uiso   1.00
H1000  H     0.23920   0.08515   0.86760   0.00000  Uiso   1.00
H1001  H     0.18330   0.08529   0.91157   0.00000  Uiso   1.00
H1002  H     0.19198   0.04872   0.86891   0.00000  Uiso   1.00
H1003  H     0.15428   0.20788   0.64834   0.00000  Uiso   1.00
H1004  H     0.17210   0.26101   0.65342   0.00000  Uiso   1.00
H1005  H     0.11783   0.16358   0.61349   0.00000  Uiso   1.00
H1006  H     0.10339   0.28972   0.64197   0.00000  Uiso   1.00
H1007  H     0.11106   0.24717   0.60749   0.00000  Uiso   1.00
H1008  H     0.06765   0.24328   0.66178   0.00000  Uiso   1.00
H1009  H     0.17181   0.06290   0.75763   0.00000  Uiso   1.00
H1010  H     0.12538   0.06536   0.73091   0.00000  Uiso   1.00
H1011  H     0.07325   0.02270   0.80061   0.00000  Uiso   1.00
H1012  H     0.12739   0.33047   0.77202   0.00000  Uiso   1.00
H1013  H     0.12448   0.02128   0.82321   0.00000  Uiso   1.00
H1014  H     0.29263   0.23800   0.67500   0.00000  Uiso   1.00
H1015  H     0.25475   0.27361   0.65804   0.00000  Uiso   1.00
H1016  H     0.22408   0.18957   0.88980   0.00000  Uiso   1.00
H1017  H     0.23134   0.22923   0.61174   0.00000  Uiso   1.00
H1018  H     0.28795   0.21123   0.61081   0.00000  Uiso   1.00
H1019  H     0.23645   0.18273   0.64681   0.00000  Uiso   1.00
H1020  H     0.32413   0.11145   0.97381   0.00000  Uiso   1.00
H1021  H     0.00126   0.15522   0.52469   0.00000  Uiso   1.00
H1022  H     0.18142   0.13109   0.58375   0.00000  Uiso   1.00
H1023  H     0.14981   0.17801   0.91723   0.00000  Uiso   1.00
H1024  H     0.25758   0.03602   0.78737   0.00000  Uiso   1.00
N1025  N     0.11736   0.16668   0.74999   0.00000  Uiso   1.00
N1026  N     0.21597   0.16666   0.75001   0.00000  Uiso   1.00
O1027  O     0.03958   0.10655   0.75000   0.00000  Uiso   1.00
O1028  O     0.02789   0.11835   0.88705   0.00000  Uiso   1.00
O1029  O     0.20211   0.10696   0.80057   0.00000  Uiso   1.00
O1030  O     0.12723   0.23327   0.71089   0.00000  Uiso   1.00
O1031  O     0.11023   0.09854   0.78750   0.00000  Uiso   1.00
O1032  O     0.22142   0.23640   0.71434   0.00000  Uiso   1.00
O1033  O     0.29375   0.22678   0.75000   0.00000  Uiso   1.00
O1034  O     0.29372   0.10654   0.75000   0.00000  Uiso   1.00
O1035  O     0.03961   0.22679   0.74999   0.00000  Uiso   1.00
O1036  O     0.01852   0.16668   0.81491   0.00000  Uiso   1.00
O1037  O     0.31481   0.16666   0.68508   0.00000  Uiso   1.00
O1038  O     0.27267   0.16667   0.81492   0.00000  Uiso   1.00
O1039  O     0.06067   0.16667   0.68508   0.00000  Uiso   1.00
O1040  O     0.29863   0.13529   0.61092   0.00000  Uiso   1.00
C1041  C     0.66663   0.08754   0.74987   0.00000  Uiso   1.00
C1042  C     0.37339   0.02259   0.72652   0.00000  Uiso   1.00
C1043  C     0.66559   0.29053   0.75051   0.00000  Uiso   1.00
C1044  C     0.66575   0.04297   0.74921   0.00000  Uiso   1.00
C1045  C     0.51857   0.13650   0.77407   0.00000  Uiso   1.00
C1046  C     0.48070   0.19863   0.72786   0.00000  Uiso   1.00
C1047  C     0.47056   0.13392   0.76988   0.00000  Uiso   1.00
C1048  C     0.53073   0.19856   0.72694   0.00000  Uiso   1.00
C1049  C     0.63935   0.16528   0.83607   0.00000  Uiso   1.00
C1050  C     0.36074   0.16350   0.66443   0.00000  Uiso   1.00
C1051  C     0.62410   0.15924   0.88558   0.00000  Uiso   1.00
C1052  C     0.66623   0.24580   0.75059   0.00000  Uiso   1.00
C1053  C     0.37698   0.15750   0.61579   0.00000  Uiso   1.00
C1054  C     0.63529   0.12892   0.95602   0.00000  Uiso   1.00
C1055  C     0.36056   0.15549   0.54373   0.00000  Uiso   1.00
C1056  C     0.65220   0.13640   0.90940   0.00000  Uiso   1.00
C1057  C     0.34521   0.14846   0.59057   0.00000  Uiso   1.00
C1058  C     0.57784   0.17137   0.90863   0.00000  Uiso   1.00
C1059  C     0.42624   0.15976   0.59392   0.00000  Uiso   1.00
C1060  C     0.55822   0.15952   0.95472   0.00000  Uiso   1.00
C1061  C     0.44321   0.15888   0.54704   0.00000  Uiso   1.00
C1062  C     0.58892   0.14056   0.97885   0.00000  Uiso   1.00
C1063  C     0.52553   0.14020   0.54811   0.00000  Uiso   1.00
C1064  C     0.40939   0.16165   0.52176   0.00000  Uiso   1.00
C1065  C     0.50861   0.16378   0.97710   0.00000  Uiso   1.00
C1066  C     0.49264   0.15555   0.52469   0.00000  Uiso   1.00
C1067  C     0.63223   0.09311   0.62642   0.00000  Uiso   1.00
C1068  C     0.58185   0.08012   0.65413   0.00000  Uiso   1.00
C1069  C     0.35188   0.07671   0.88062   0.00000  Uiso   1.00
C1070  C     0.37958   0.04737   0.90502   0.00000  Uiso   1.00
C1071  C     0.51256   0.11176   0.84632   0.00000  Uiso   1.00
C1072  C     0.53309   0.08077   0.87543   0.00000  Uiso   1.00
C1073  C     0.47610   0.23774   0.66333   0.00000  Uiso   1.00
C1074  C     0.47383   0.17216   0.95325   0.00000  Uiso   1.00
C1075  C     0.43694   0.25540   0.64286   0.00000  Uiso   1.00
C1076  C     0.46553   0.06411   0.76433   0.00000  Uiso   1.00
C1077  C     0.44628   0.02388   0.79177   0.00000  Uiso   1.00
C1078  C     0.58928   0.24084   0.67124   0.00000  Uiso   1.00
C1079  C     0.58495   0.21391   0.63387   0.00000  Uiso   1.00
C1080  C     0.57232   0.13138   0.52520   0.00000  Uiso   1.00
C1081  C     0.42497   0.16915   0.97509   0.00000  Uiso   1.00
C1082  C     0.62344   0.02052   0.77049   0.00000  Uiso   1.00
C1083  C     0.37421   0.31320   0.72968   0.00000  Uiso   1.00
C1084  C     0.62310   0.31099   0.77031   0.00000  Uiso   1.00
Cu1085 Cu    0.38022   0.16667   0.75000   0.00000  Uiso   1.00
Cu1086 Cu    0.61978   0.16666   0.75000   0.00000  Uiso   1.00
H1087  H     0.59528   0.11632   0.54381   0.00000  Uiso   1.00
H1088  H     0.40755   0.29811   0.71550   0.00000  Uiso   1.00
H1089  H     0.59026   0.29386   0.78660   0.00000  Uiso   1.00
H1090  H     0.40463   0.03959   0.70641   0.00000  Uiso   1.00
H1091  H     0.65675   0.08730   0.64835   0.00000  Uiso   1.00
H1092  H     0.64333   0.07359   0.59736   0.00000  Uiso   1.00
H1093  H     0.58165   0.04712   0.66699   0.00000  Uiso   1.00
H1094  H     0.56988   0.09942   0.68318   0.00000  Uiso   1.00
H1095  H     0.55645   0.08402   0.63304   0.00000  Uiso   1.00
H1096  H     0.36394   0.07269   0.84412   0.00000  Uiso   1.00
H1097  H     0.64653   0.06712   0.89180   0.00000  Uiso   1.00
H1098  H     0.39931   0.17258   0.95536   0.00000  Uiso   1.00
H1099  H     0.36613   0.04948   0.94192   0.00000  Uiso   1.00
H1100  H     0.37474   0.01504   0.89739   0.00000  Uiso   1.00
H1101  H     0.41837   0.05524   0.89407   0.00000  Uiso   1.00
H1102  H     0.47330   0.10615   0.85455   0.00000  Uiso   1.00
H1103  H     0.51870   0.14347   0.85482   0.00000  Uiso   1.00
H1104  H     0.57253   0.08515   0.86760   0.00000  Uiso   1.00
H1105  H     0.51664   0.08529   0.91157   0.00000  Uiso   1.00
H1106  H     0.52531   0.04872   0.86891   0.00000  Uiso   1.00
H1107  H     0.48761   0.20788   0.64834   0.00000  Uiso   1.00
H1108  H     0.50544   0.26101   0.65342   0.00000  Uiso   1.00
H1109  H     0.45117   0.16358   0.61349   0.00000  Uiso   1.00
H1110  H     0.43672   0.28972   0.64197   0.00000  Uiso   1.00
H1111  H     0.44439   0.24717   0.60749   0.00000  Uiso   1.00
H1112  H     0.40098   0.24328   0.66178   0.00000  Uiso   1.00
H1113  H     0.50514   0.06290   0.75763   0.00000  Uiso   1.00
H1114  H     0.45871   0.06536   0.73091   0.00000  Uiso   1.00
H1115  H     0.40658   0.02270   0.80061   0.00000  Uiso   1.00
H1116  H     0.46072   0.33047   0.77202   0.00000  Uiso   1.00
H1117  H     0.45781   0.02128   0.82321   0.00000  Uiso   1.00
H1118  H     0.62596   0.23800   0.67500   0.00000  Uiso   1.00
H1119  H     0.58808   0.27361   0.65804   0.00000  Uiso   1.00
H1120  H     0.55742   0.18957   0.88980   0.00000  Uiso   1.00
H1121  H     0.56467   0.22923   0.61174   0.00000  Uiso   1.00
H1122  H     0.62128   0.21123   0.61081   0.00000  Uiso   1.00
H1123  H     0.56978   0.18273   0.64681   0.00000  Uiso   1.00
H1124  H     0.65747   0.11145   0.97381   0.00000  Uiso   1.00
H1125  H     0.33459   0.15522   0.52469   0.00000  Uiso   1.00
H1126  H     0.51475   0.13109   0.58375   0.00000  Uiso   1.00
H1127  H     0.48315   0.17801   0.91723   0.00000  Uiso   1.00
H1128  H     0.59092   0.03602   0.78737   0.00000  Uiso   1.00
N1129  N     0.45069   0.16668   0.74999   0.00000  Uiso   1.00
N1130  N     0.54931   0.16666   0.75001   0.00000  Uiso   1.00
O1131  O     0.37291   0.10655   0.75000   0.00000  Uiso   1.00
O1132  O     0.36123   0.11835   0.88705   0.00000  Uiso   1.00
O1133  O     0.53545   0.10696   0.80057   0.00000  Uiso   1.00
O1134  O     0.46057   0.23327   0.71089   0.00000  Uiso   1.00
O1135  O     0.44356   0.09854   0.78750   0.00000  Uiso   1.00
O1136  O     0.55476   0.23640   0.71434   0.00000  Uiso   1.00
O1137  O     0.62709   0.22678   0.75000   0.00000  Uiso   1.00
O1138  O     0.62706   0.10654   0.75000   0.00000  Uiso   1.00
O1139  O     0.37294   0.22679   0.74999   0.00000  Uiso   1.00
O1140  O     0.35186   0.16668   0.81491   0.00000  Uiso   1.00
O1141  O     0.64814   0.16666   0.68508   0.00000  Uiso   1.00
O1142  O     0.60600   0.16667   0.81492   0.00000  Uiso   1.00
O1143  O     0.39400   0.16667   0.68508   0.00000  Uiso   1.00
O1144  O     0.63196   0.13529   0.61092   0.00000  Uiso   1.00
C1145  C     0.99996   0.08754   0.74987   0.00000  Uiso   1.00
C1146  C     0.70672   0.02259   0.72652   0.00000  Uiso   1.00
C1147  C     0.99893   0.29053   0.75051   0.00000  Uiso   1.00
C1148  C     0.99909   0.04297   0.74921   0.00000  Uiso   1.00
C1149  C     0.85190   0.13650   0.77407   0.00000  Uiso   1.00
C1150  C     0.81403   0.19863   0.72786   0.00000  Uiso   1.00
C1151  C     0.80390   0.13392   0.76988   0.00000  Uiso   1.00
C1152  C     0.86407   0.19856   0.72694   0.00000  Uiso   1.00
C1153  C     0.97268   0.16528   0.83607   0.00000  Uiso   1.00
C1154  C     0.69407   0.16350   0.66443   0.00000  Uiso   1.00
C1155  C     0.95744   0.15924   0.88558   0.00000  Uiso   1.00
C1156  C     0.99956   0.24580   0.75059   0.00000  Uiso   1.00
C1157  C     0.71032   0.15750   0.61579   0.00000  Uiso   1.00
C1158  C     0.96862   0.12892   0.95602   0.00000  Uiso   1.00
C1159  C     0.69389   0.15549   0.54373   0.00000  Uiso   1.00
C1160  C     0.98553   0.13640   0.90940   0.00000  Uiso   1.00
C1161  C     0.67854   0.14846   0.59057   0.00000  Uiso   1.00
C1162  C     0.91117   0.17137   0.90863   0.00000  Uiso   1.00
C1163  C     0.75958   0.15976   0.59392   0.00000  Uiso   1.00
C1164  C     0.89155   0.15952   0.95472   0.00000  Uiso   1.00
C1165  C     0.77654   0.15888   0.54704   0.00000  Uiso   1.00
C1166  C     0.92226   0.14056   0.97885   0.00000  Uiso   1.00
C1167  C     0.85886   0.14020   0.54811   0.00000  Uiso   1.00
C1168  C     0.74273   0.16165   0.52176   0.00000  Uiso   1.00
C1169  C     0.84194   0.16378   0.97710   0.00000  Uiso   1.00
C1170  C     0.82597   0.15555   0.52469   0.00000  Uiso   1.00
C1171  C     0.96557   0.09311   0.62642   0.00000  Uiso   1.00
C1172  C     0.91519   0.08012   0.65413   0.00000  Uiso   1.00
C1173  C     0.68521   0.07671   0.88062   0.00000  Uiso   1.00
C1174  C     0.71292   0.04737   0.90502   0.00000  Uiso   1.00
C1175  C     0.84589   0.11176   0.84632   0.00000  Uiso   1.00
C1176  C     0.86642   0.08077   0.87543   0.00000  Uiso   1.00
C1177  C     0.80943   0.23774   0.66333   0.00000  Uiso   1.00
C1178  C     0.80716   0.17216   0.95325   0.00000  Uiso   1.00
C1179  C     0.77027   0.25540   0.64286   0.00000  Uiso   1.00
C1180  C     0.79886   0.06411   0.76433   0.00000  Uiso   1.00
C1181  C     0.77961   0.02388   0.79177   0.00000  Uiso   1.00
C1182  C     0.92261   0.24084   0.67124   0.00000  Uiso   1.00
C1183  C     0.91828   0.21391   0.63387   0.00000  Uiso   1.00
C1184  C     0.90565   0.13138   0.52520   0.00000  Uiso   1.00
C1185  C     0.75830   0.16915   0.97509   0.00000  Uiso   1.00
C1186  C     0.95677   0.02052   0.77049   0.00000  Uiso   1.00
C1187  C     0.70755   0.31320   0.72968   0.00000  Uiso   1.00
C1188  C     0.95643   0.31099   0.77031   0.00000  Uiso   1.00
Cu1189 Cu    0.71355   0.16667   0.75000   0.00000  Uiso   1.00
Cu1190 Cu    0.95311   0.16666   0.75000   0.00000  Uiso   1.00
H1191  H     0.92861   0.11632   0.54381   0.00000  Uiso   1.00
H1192  H     0.74088   0.29811   0.71550   0.00000  Uiso   1.00
H1193  H     0.92359   0.29386   0.78660   0.00000  Uiso   1.00
H1194  H     0.73796   0.03959   0.70641   0.00000  Uiso   1.00
H1195  H     0.99008   0.08730   0.64835   0.00000  Uiso   1.00
H1196  H     0.97666   0.07359   0.59736   0.00000  Uiso   1.00
H1197  H     0.91498   0.04712   0.66699   0.00000  Uiso   1.00
H1198  H     0.90322   0.09942   0.68318   0.00000  Uiso   1.00
H1199  H     0.88978   0.08402   0.63304   0.00000  Uiso   1.00
H1200  H     0.69727   0.07269   0.84412   0.00000  Uiso   1.00
H1201  H     0.97987   0.06712   0.89180   0.00000  Uiso   1.00
H1202  H     0.73264   0.17258   0.95536   0.00000  Uiso   1.00
H1203  H     0.69946   0.04948   0.94192   0.00000  Uiso   1.00
H1204  H     0.70807   0.01504   0.89739   0.00000  Uiso   1.00
H1205  H     0.75170   0.05524   0.89407   0.00000  Uiso   1.00
H1206  H     0.80663   0.10615   0.85455   0.00000  Uiso   1.00
H1207  H     0.85203   0.14347   0.85482   0.00000  Uiso   1.00
H1208  H     0.90587   0.08515   0.86760   0.00000  Uiso   1.00
H1209  H     0.84997   0.08529   0.91157   0.00000  Uiso   1.00
H1210  H     0.85865   0.04872   0.86891   0.00000  Uiso   1.00
H1211  H     0.82094   0.20788   0.64834   0.00000  Uiso   1.00
H1212  H     0.83877   0.26101   0.65342   0.00000  Uiso   1.00
H1213  H     0.78450   0.16358   0.61349   0.00000  Uiso   1.00
H1214  H     0.77005   0.28972   0.64197   0.00000  Uiso   1.00
H1215  H     0.77772   0.24717   0.60749   0.00000  Uiso   1.00
H1216  H     0.73431   0.24328   0.66178   0.00000  Uiso   1.00
H1217  H     0.83848   0.06290   0.75763   0.00000  Uiso   1.00
H1218  H     0.79204   0.06536   0.73091   0.00000  Uiso   1.00
H1219  H     0.73992   0.02270   0.80061   0.00000  Uiso   1.00
H1220  H     0.79406   0.33047   0.77202   0.00000  Uiso   1.00
H1221  H     0.79115   0.02128   0.82321   0.00000  Uiso   1.00
H1222  H     0.95930   0.23800   0.67500   0.00000  Uiso   1.00
H1223  H     0.92141   0.27361   0.65804   0.00000  Uiso   1.00
H1224  H     0.89075   0.18957   0.88980   0.00000  Uiso   1.00
H1225  H     0.89801   0.22923   0.61174   0.00000  Uiso   1.00
H1226  H     0.95462   0.21123   0.61081   0.00000  Uiso   1.00
H1227  H     0.90312   0.18273   0.64681   0.00000  Uiso   1.00
H1228  H     0.99080   0.11145   0.97381   0.00000  Uiso   1.00
H1229  H     0.66793   0.15522   0.52469   0.00000  Uiso   1.00
H1230  H     0.84809   0.13109   0.58375   0.00000  Uiso   1.00
H1231  H     0.81648   0.17801   0.91723   0.00000  Uiso   1.00
H1232  H     0.92425   0.03602   0.78737   0.00000  Uiso   1.00
N1233  N     0.78403   0.16668   0.74999   0.00000  Uiso   1.00
N1234  N     0.88264   0.16666   0.75001   0.00000  Uiso   1.00
O1235  O     0.70625   0.10655   0.75000   0.00000  Uiso   1.00
O1236  O     0.69456   0.11835   0.88705   0.00000  Uiso   1.00
O1237  O     0.86878   0.10696   0.80057   0.00000  Uiso   1.00
O1238  O     0.79390   0.23327   0.71089   0.00000  Uiso   1.00
O1239  O     0.77690   0.09854   0.78750   0.00000  Uiso   1.00
O1240  O     0.88809   0.23640   0.71434   0.00000  Uiso   1.00
O1241  O     0.96042   0.22678   0.75000   0.00000  Uiso   1.00
O1242  O     0.96039   0.10654   0.75000   0.00000  Uiso   1.00
O1243  O     0.70628   0.22679   0.74999   0.00000  Uiso   1.00
O1244  O     0.68519   0.16668   0.81491   0.00000  Uiso   1.00
O1245  O     0.98148   0.16666   0.68508   0.00000  Uiso   1.00
O1246  O     0.93933   0.16667   0.81492   0.00000  Uiso   1.00
O1247  O     0.72733   0.16667   0.68508   0.00000  Uiso   1.00
O1248  O     0.96530   0.13529   0.61092   0.00000  Uiso   1.00
C1249  C     0.33329   0.42087   0.74987   0.00000  Uiso   1.00
C1250  C     0.04006   0.35592   0.72652   0.00000  Uiso   1.00
C1251  C     0.33226   0.62386   0.75051   0.00000  Uiso   1.00
C1252  C     0.33242   0.37630   0.74921   0.00000  Uiso   1.00
C1253  C     0.18524   0.46983   0.77407   0.00000  Uiso   1.00
C1254  C     0.14737   0.53196   0.72786   0.00000  Uiso   1.00
C1255  C     0.13723   0.46726   0.76988   0.00000  Uiso   1.00
C1256  C     0.19740   0.53190   0.72694   0.00000  Uiso   1.00
C1257  C     0.30601   0.49861   0.83607   0.00000  Uiso   1.00
C1258  C     0.02741   0.49683   0.66443   0.00000  Uiso   1.00
C1259  C     0.29077   0.49257   0.88558   0.00000  Uiso   1.00
C1260  C     0.33290   0.57913   0.75059   0.00000  Uiso   1.00
C1261  C     0.04365   0.49083   0.61579   0.00000  Uiso   1.00
C1262  C     0.30196   0.46225   0.95602   0.00000  Uiso   1.00
C1263  C     0.02722   0.48882   0.54373   0.00000  Uiso   1.00
C1264  C     0.31886   0.46973   0.90940   0.00000  Uiso   1.00
C1265  C     0.01187   0.48180   0.59057   0.00000  Uiso   1.00
C1266  C     0.24450   0.50471   0.90863   0.00000  Uiso   1.00
C1267  C     0.09291   0.49309   0.59392   0.00000  Uiso   1.00
C1268  C     0.22488   0.49285   0.95472   0.00000  Uiso   1.00
C1269  C     0.10987   0.49221   0.54704   0.00000  Uiso   1.00
C1270  C     0.25559   0.47389   0.97885   0.00000  Uiso   1.00
C1271  C     0.19219   0.47354   0.54811   0.00000  Uiso   1.00
C1272  C     0.07606   0.49499   0.52176   0.00000  Uiso   1.00
C1273  C     0.17528   0.49712   0.97710   0.00000  Uiso   1.00
C1274  C     0.15931   0.48888   0.52469   0.00000  Uiso   1.00
C1275  C     0.29890   0.42644   0.62642   0.00000  Uiso   1.00
C1276  C     0.24852   0.41346   0.65413   0.00000  Uiso   1.00
C1277  C     0.01855   0.41004   0.88062   0.00000  Uiso   1.00
C1278  C     0.04625   0.38070   0.90502   0.00000  Uiso   1.00
C1279  C     0.17923   0.44510   0.84632   0.00000  Uiso   1.00
C1280  C     0.19975   0.41410   0.87543   0.00000  Uiso   1.00
C1281  C     0.14276   0.57107   0.66333   0.00000  Uiso   1.00
C1282  C     0.14049   0.50550   0.95325   0.00000  Uiso   1.00
C1283  C     0.10361   0.58873   0.64286   0.00000  Uiso   1.00
C1284  C     0.13219   0.39744   0.76433   0.00000  Uiso   1.00
C1285  C     0.11294   0.35721   0.79177   0.00000  Uiso   1.00
C1286  C     0.25595   0.57417   0.67124   0.00000  Uiso   1.00
C1287  C     0.25162   0.54725   0.63387   0.00000  Uiso   1.00
C1288  C     0.23898   0.46472   0.52520   0.00000  Uiso   1.00
C1289  C     0.09164   0.50248   0.97509   0.00000  Uiso   1.00
C1290  C     0.29010   0.35386   0.77049   0.00000  Uiso   1.00
C1291  C     0.04088   0.64653   0.72968   0.00000  Uiso   1.00
C1292  C     0.28977   0.64433   0.77031   0.00000  Uiso   1.00
Cu1293 Cu    0.04689   0.50001   0.75000   0.00000  Uiso   1.00
Cu1294 Cu    0.28645   0.49999   0.75000   0.00000  Uiso   1.00
H1295  H     0.26195   0.44965   0.54381   0.00000  Uiso   1.00
H1296  H     0.07422   0.63144   0.71550   0.00000  Uiso   1.00
H1297  H     0.25693   0.62719   0.78660   0.00000  Uiso   1.00
H1298  H     0.07130   0.37292   0.70641   0.00000  Uiso   1.00
H1299  H     0.32341   0.42064   0.64835   0.00000  Uiso   1.00
H1300  H     0.31000   0.40692   0.59736   0.00000  Uiso   1.00
H1301  H     0.24831   0.38045   0.66699   0.00000  Uiso   1.00
H1302  H     0.23655   0.43275   0.68318   0.00000  Uiso   1.00
H1303  H     0.22311   0.41736   0.63304   0.00000  Uiso   1.00
H1304  H     0.03060   0.40603   0.84412   0.00000  Uiso   1.00
H1305  H     0.31320   0.40045   0.89180   0.00000  Uiso   1.00
H1306  H     0.06598   0.50591   0.95536   0.00000  Uiso   1.00
H1307  H     0.03280   0.38281   0.94192   0.00000  Uiso   1.00
H1308  H     0.04140   0.34837   0.89739   0.00000  Uiso   1.00
H1309  H     0.08504   0.38858   0.89407   0.00000  Uiso   1.00
H1310  H     0.13996   0.43949   0.85455   0.00000  Uiso   1.00
H1311  H     0.18536   0.47680   0.85482   0.00000  Uiso   1.00
H1312  H     0.23920   0.41849   0.86760   0.00000  Uiso   1.00
H1313  H     0.18330   0.41862   0.91157   0.00000  Uiso   1.00
H1314  H     0.19198   0.38205   0.86891   0.00000  Uiso   1.00
H1315  H     0.15428   0.54122   0.64834   0.00000  Uiso   1.00
H1316  H     0.17210   0.59434   0.65342   0.00000  Uiso   1.00
H1317  H     0.11783   0.49691   0.61349   0.00000  Uiso   1.00
H1318  H     0.10339   0.62305   0.64197   0.00000  Uiso   1.00
H1319  H     0.11106   0.58050   0.60749   0.00000  Uiso   1.00
H1320  H     0.06765   0.57661   0.66178   0.00000  Uiso   1.00
H1321  H     0.17181   0.39623   0.75763   0.00000  Uiso   1.00
H1322  H     0.12538   0.39870   0.73091   0.00000  Uiso   1.00
H1323  H     0.07325   0.35604   0.80061   0.00000  Uiso   1.00
H1324  H     0.12739   0.66381   0.77202   0.00000  Uiso   1.00
H1325  H     0.12448   0.35462   0.82321   0.00000  Uiso   1.00
H1326  H     0.29263   0.57133   0.67500   0.00000  Uiso   1.00
H1327  H     0.25475   0.60694   0.65804   0.00000  Uiso   1.00
H1328  H     0.22408   0.52290   0.88980   0.00000  Uiso   1.00
H1329  H     0.23134   0.56256   0.61174   0.00000  Uiso   1.00
H1330  H     0.28795   0.54456   0.61081   0.00000  Uiso   1.00
H1331  H     0.23645   0.51607   0.64681   0.00000  Uiso   1.00
H1332  H     0.32413   0.44478   0.97381   0.00000  Uiso   1.00
H1333  H     0.00126   0.48855   0.52469   0.00000  Uiso   1.00
H1334  H     0.18142   0.46443   0.58375   0.00000  Uiso   1.00
H1335  H     0.14981   0.51134   0.91723   0.00000  Uiso   1.00
H1336  H     0.25758   0.36935   0.78737   0.00000  Uiso   1.00
N1337  N     0.11736   0.50001   0.74999   0.00000  Uiso   1.00
N1338  N     0.21597   0.49999   0.75001   0.00000  Uiso   1.00
O1339  O     0.03958   0.43989   0.75000   0.00000  Uiso   1.00
O1340  O     0.02789   0.45168   0.88705   0.00000  Uiso   1.00
O1341  O     0.20211   0.44030   0.80057   0.00000  Uiso   1.00
O1342  O     0.12723   0.56660   0.71089   0.00000  Uiso   1.00
O1343  O     0.11023   0.43187   0.78750   0.00000  Uiso   1.00
O1344  O     0.22142   0.56974   0.71434   0.00000  Uiso   1.00
O1345  O     0.29375   0.56011   0.75000   0.00000  Uiso   1.00
O1346  O     0.29372   0.43988   0.75000   0.00000  Uiso   1.00
O1347  O     0.03961   0.56012   0.74999   0.00000  Uiso   1.00
O1348  O     0.01852   0.50001   0.81491   0.00000  Uiso   1.00
O1349  O     0.31481   0.49999   0.68508   0.00000  Uiso   1.00
O1350  O     0.27267   0.50000   0.81492   0.00000  Uiso   1.00
O1351  O     0.06067   0.50000   0.68508   0.00000  Uiso   1.00
O1352  O     0.29863   0.46862   0.61092   0.00000  Uiso   1.00
C1353  C     0.66663   0.42087   0.74987   0.00000  Uiso   1.00
C1354  C     0.37339   0.35592   0.72652   0.00000  Uiso   1.00
C1355  C     0.66559   0.62386   0.75051   0.00000  Uiso   1.00
C1356  C     0.66575   0.37630   0.74921   0.00000  Uiso   1.00
C1357  C     0.51857   0.46983   0.77407   0.00000  Uiso   1.00
C1358  C     0.48070   0.53196   0.72786   0.00000  Uiso   1.00
C1359  C     0.47056   0.46726   0.76988   0.00000  Uiso   1.00
C1360  C     0.53073   0.53190   0.72694   0.00000  Uiso   1.00
C1361  C     0.63935   0.49861   0.83607   0.00000  Uiso   1.00
C1362  C     0.36074   0.49683   0.66443   0.00000  Uiso   1.00
C1363  C     0.62410   0.49257   0.88558   0.00000  Uiso   1.00
C1364  C     0.66623   0.57913   0.75059   0.00000  Uiso   1.00
C1365  C     0.37698   0.49083   0.61579   0.00000  Uiso   1.00
C1366  C     0.63529   0.46225   0.95602   0.00000  Uiso   1.00
C1367  C     0.36056   0.48882   0.54373   0.00000  Uiso   1.00
C1368  C     0.65220   0.46973   0.90940   0.00000  Uiso   1.00
C1369  C     0.34521   0.48180   0.59057   0.00000  Uiso   1.00
C1370  C     0.57784   0.50471   0.90863   0.00000  Uiso   1.00
C1371  C     0.42624   0.49309   0.59392   0.00000  Uiso   1.00
C1372  C     0.55822   0.49285   0.95472   0.00000  Uiso   1.00
C1373  C     0.44321   0.49221   0.54704   0.00000  Uiso   1.00
C1374  C     0.58892   0.47389   0.97885   0.00000  Uiso   1.00
C1375  C     0.52553   0.47354   0.54811   0.00000  Uiso   1.00
C1376  C     0.40939   0.49499   0.52176   0.00000  Uiso   1.00
C1377  C     0.50861   0.49712   0.97710   0.00000  Uiso   1.00
C1378  C     0.49264   0.48888   0.52469   0.00000  Uiso   1.00
C1379  C     0.63223   0.42644   0.62642   0.00000  Uiso   1.00
C1380  C     0.58185   0.41346   0.65413   0.00000  Uiso   1.00
C1381  C     0.35188   0.41004   0.88062   0.00000  Uiso   1.00
C1382  C     0.37958   0.38070   0.90502   0.00000  Uiso   1.00
C1383  C     0.51256   0.44510   0.84632   0.00000  Uiso   1.00
C1384  C     0.53309   0.41410   0.87543   0.00000  Uiso   1.00
C1385  C     0.47610   0.57107   0.66333   0.00000  Uiso   1.00
C1386  C     0.47383   0.50550   0.95325   0.00000  Uiso   1.00
C1387  C     0.43694   0.58873   0.64286   0.00000  Uiso   1.00
C1388  C     0.46553   0.39744   0.76433   0.00000  Uiso   1.00
C1389  C     0.44628   0.35721   0.79177   0.00000  Uiso   1.00
C1390  C     0.58928   0.57417   0.67124   0.00000  Uiso   1.00
C1391  C     0.58495   0.54725   0.63387   0.00000  Uiso   1.00
C1392  C     0.57232   0.46472   0.52520   0.00000  Uiso   1.00
C1393  C     0.42497   0.50248   0.97509   0.00000  Uiso   1.00
C1394  C     0.62344   0.35386   0.77049   0.00000  Uiso   1.00
C1395  C     0.37421   0.64653   0.72968   0.00000  Uiso   1.00
C1396  C     0.62310   0.64433   0.77031   0.00000  Uiso   1.00
Cu1397 Cu    0.38022   0.50001   0.75000   0.00000  Uiso   1.00
Cu1398 Cu    0.61978   0.49999   0.75000   0.00000  Uiso   1.00
H1399  H     0.59528   0.44965   0.54381   0.00000  Uiso   1.00
H1400  H     0.40755   0.63144   0.71550   0.00000  Uiso   1.00
H1401  H     0.59026   0.62719   0.78660   0.00000  Uiso   1.00
H1402  H     0.40463   0.37292   0.70641   0.00000  Uiso   1.00
H1403  H     0.65675   0.42064   0.64835   0.00000  Uiso   1.00
H1404  H     0.64333   0.40692   0.59736   0.00000  Uiso   1.00
H1405  H     0.58165   0.38045   0.66699   0.00000  Uiso   1.00
H1406  H     0.56988   0.43275   0.68318   0.00000  Uiso   1.00
H1407  H     0.55645   0.41736   0.63304   0.00000  Uiso   1.00
H1408  H     0.36394   0.40603   0.84412   0.00000  Uiso   1.00
H1409  H     0.64653   0.40045   0.89180   0.00000  Uiso   1.00
H1410  H     0.39931   0.50591   0.95536   0.00000  Uiso   1.00
H1411  H     0.36613   0.38281   0.94192   0.00000  Uiso   1.00
H1412  H     0.37474   0.34837   0.89739   0.00000  Uiso   1.00
H1413  H     0.41837   0.38858   0.89407   0.00000  Uiso   1.00
H1414  H     0.47330   0.43949   0.85455   0.00000  Uiso   1.00
H1415  H     0.51870   0.47680   0.85482   0.00000  Uiso   1.00
H1416  H     0.57253   0.41849   0.86760   0.00000  Uiso   1.00
H1417  H     0.51664   0.41862   0.91157   0.00000  Uiso   1.00
H1418  H     0.52531   0.38205   0.86891   0.00000  Uiso   1.00
H1419  H     0.48761   0.54122   0.64834   0.00000  Uiso   1.00
H1420  H     0.50544   0.59434   0.65342   0.00000  Uiso   1.00
H1421  H     0.45117   0.49691   0.61349   0.00000  Uiso   1.00
H1422  H     0.43672   0.62305   0.64197   0.00000  Uiso   1.00
H1423  H     0.44439   0.58050   0.60749   0.00000  Uiso   1.00
H1424  H     0.40098   0.57661   0.66178   0.00000  Uiso   1.00
H1425  H     0.50514   0.39623   0.75763   0.00000  Uiso   1.00
H1426  H     0.45871   0.39870   0.73091   0.00000  Uiso   1.00
H1427  H     0.40658   0.35604   0.80061   0.00000  Uiso   1.00
H1428  H     0.46072   0.66381   0.77202   0.00000  Uiso   1.00
H1429  H     0.45781   0.35462   0.82321   0.00000  Uiso   1.00
H1430  H     0.62596   0.57133   0.67500   0.00000  Uiso   1.00
H1431  H     0.58808   0.60694   0.65804   0.00000  Uiso   1.00
H1432  H     0.55742   0.52290   0.88980   0.00000  Uiso   1.00
H1433  H     0.56467   0.56256   0.61174   0.00000  Uiso   1.00
H1434  H     0.62128   0.54456   0.61081   0.00000  Uiso   1.00
H1435  H     0.56978   0.51607   0.64681   0.00000  Uiso   1.00
H1436  H     0.65747   0.44478   0.97381   0.00000  Uiso   1.00
H1437  H     0.33459   0.48855   0.52469   0.00000  Uiso   1.00
H1438  H     0.51475   0.46443   0.58375   0.00000  Uiso   1.00
H1439  H     0.48315   0.51134   0.91723   0.00000  Uiso   1.00
H1440  H     0.59092   0.36935   0.78737   0.00000  Uiso   1.00
N1441  N     0.45069   0.50001   0.74999   0.00000  Uiso   1.00
N1442  N     0.54931   0.49999   0.75001   0.00000  Uiso   1.00
O1443  O     0.37291   0.43989   0.75000   0.00000  Uiso   1.00
O1444  O     0.36123   0.45168   0.88705   0.00000  Uiso   1.00
O1445  O     0.53545   0.44030   0.80057   0.00000  Uiso   1.00
O1446  O     0.46057   0.56660   0.71089   0.00000  Uiso   1.00
O1447  O     0.44356   0.43187   0.78750   0.00000  Uiso   1.00
O1448  O     0.55476   0.56974   0.71434   0.00000  Uiso   1.00
O1449  O     0.62709   0.56011   0.75000   0.00000  Uiso   1.00
O1450  O     0.62706   0.43988   0.75000   0.00000  Uiso   1.00
O1451  O     0.37294   0.56012   0.74999   0.00000  Uiso   1.00
O1452  O     0.35186   0.50001   0.81491   0.00000  Uiso   1.00
O1453  O     0.64814   0.49999   0.68508   0.00000  Uiso   1.00
O1454  O     0.60600   0.50000   0.81492   0.00000  Uiso   1.00
O1455  O     0.39400   0.50000   0.68508   0.00000  Uiso   1.00
O1456  O     0.63196   0.46862   0.61092   0.00000  Uiso   1.00
C1457  C     0.99996   0.42087   0.74987   0.00000  Uiso   1.00
C1458  C     0.70672   0.35592   0.72652   0.00000  Uiso   1.00
C1459  C     0.99893   0.62386   0.75051   0.00000  Uiso   1.00
C1460  C     0.99909   0.37630   0.74921   0.00000  Uiso   1.00
C1461  C     0.85190   0.46983   0.77407   0.00000  Uiso   1.00
C1462  C     0.81403   0.53196   0.72786   0.00000  Uiso   1.00
C1463  C     0.80390   0.46726   0.76988   0.00000  Uiso   1.00
C1464  C     0.86407   0.53190   0.72694   0.00000  Uiso   1.00
C1465  C     0.97268   0.49861   0.83607   0.00000  Uiso   1.00
C1466  C     0.69407   0.49683   0.66443   0.00000  Uiso   1.00
C1467  C     0.95744   0.49257   0.88558   0.00000  Uiso   1.00
C1468  C     0.99956   0.57913   0.75059   0.00000  Uiso   1.00
C1469  C     0.71032   0.49083   0.61579   0.00000  Uiso   1.00
C1470  C     0.96862   0.46225   0.95602   0.00000  Uiso   1.00
C1471  C     0.69389   0.48882   0.54373   0.00000  Uiso   1.00
C1472  C     0.98553   0.46973   0.90940   0.00000  Uiso   1.00
C1473  C     0.67854   0.48180   0.59057   0.00000  Uiso   1.00
C1474  C     0.91117   0.50471   0.90863   0.00000  Uiso   1.00
C1475  C     0.75958   0.49309   0.59392   0.00000  Uiso   1.00
C1476  C     0.89155   0.49285   0.95472   0.00000  Uiso   1.00
C1477  C     0.77654   0.49221   0.54704   0.00000  Uiso   1.00
C1478  C     0.92226   0.47389   0.97885   0.00000  Uiso   1.00
C1479  C     0.85886   0.47354   0.54811   0.00000  Uiso   1.00
C1480  C     0.74273   0.49499   0.52176   0.00000  Uiso   1.00
C1481  C     0.84194   0.49712   0.97710   0.00000  Uiso   1.00
C1482  C     0.82597   0.48888   0.52469   0.00000  Uiso   1.00
C1483  C     0.96557   0.42644   0.62642   0.00000  Uiso   1.00
C1484  C     0.91519   0.41346   0.65413   0.00000  Uiso   1.00
C1485  C     0.68521   0.41004   0.88062   0.00000  Uiso   1.00
C1486  C     0.71292   0.38070   0.90502   0.00000  Uiso   1.00
C1487  C     0.84589   0.44510   0.84632   0.00000  Uiso   1.00
C1488  C     0.86642   0.41410   0.87543   0.00000  Uiso   1.00
C1489  C     0.80943   0.57107   0.66333   0.00000  Uiso   1.00
C1490  C     0.80716   0.50550   0.95325   0.00000  Uiso   1.00
C1491  C     0.77027   0.58873   0.64286   0.00000  Uiso   1.00
C1492  C     0.79886   0.39744   0.76433   0.00000  Uiso   1.00
C1493  C     0.77961   0.35721   0.79177   0.00000  Uiso   1.00
C1494  C     0.92261   0.57417   0.67124   0.00000  Uiso   1.00
C1495  C     0.91828   0.54725   0.63387   0.00000  Uiso   1.00
C1496  C     0.90565   0.46472   0.52520   0.00000  Uiso   1.00
C1497  C     0.75830   0.50248   0.97509   0.00000  Uiso   1.00
C1498  C     0.95677   0.35386   0.77049   0.00000  Uiso   1.00
C1499  C     0.70755   0.64653   0.72968   0.00000  Uiso   1.00
C1500  C     0.95643   0.64433   0.77031   0.00000  Uiso   1.00
Cu1501 Cu    0.71355   0.50001   0.75000   0.00000  Uiso   1.00
Cu1502 Cu    0.95311   0.49999   0.75000   0.00000  Uiso   1.00
H1503  H     0.92861   0.44965   0.54381   0.00000  Uiso   1.00
H1504  H     0.74088   0.63144   0.71550   0.00000  Uiso   1.00
H1505  H     0.92359   0.62719   0.78660   0.00000  Uiso   1.00
H1506  H     0.73796   0.37292   0.70641   0.00000  Uiso   1.00
H1507  H     0.99008   0.42064   0.64835   0.00000  Uiso   1.00
H1508  H     0.97666   0.40692   0.59736   0.00000  Uiso   1.00
H1509  H     0.91498   0.38045   0.66699   0.00000  Uiso   1.00
H1510  H     0.90322   0.43275   0.68318   0.00000  Uiso   1.00
H1511  H     0.88978   0.41736   0.63304   0.00000  Uiso   1.00
H1512  H     0.69727   0.40603   0.84412   0.00000  Uiso   1.00
H1513  H     0.97987   0.40045   0.89180   0.00000  Uiso   1.00
H1514  H     0.73264   0.50591   0.95536   0.00000  Uiso   1.00
H1515  H     0.69946   0.38281   0.94192   0.00000  Uiso   1.00
H1516  H     0.70807   0.34837   0.89739   0.00000  Uiso   1.00
H1517  H     0.75170   0.38858   0.89407   0.00000  Uiso   1.00
H1518  H     0.80663   0.43949   0.85455   0.00000  Uiso   1.00
H1519  H     0.85203   0.47680   0.85482   0.00000  Uiso   1.00
H1520  H     0.90587   0.41849   0.86760   0.00000  Uiso   1.00
H1521  H     0.84997   0.41862   0.91157   0.00000  Uiso   1.00
H1522  H     0.85865   0.38205   0.86891   0.00000  Uiso   1.00
H1523  H     0.82094   0.54122   0.64834   0.00000  Uiso   1.00
H1524  H     0.83877   0.59434   0.65342   0.00000  Uiso   1.00
H1525  H     0.78450   0.49691   0.61349   0.00000  Uiso   1.00
H1526  H     0.77005   0.62305   0.64197   0.00000  Uiso   1.00
H1527  H     0.77772   0.58050   0.60749   0.00000  Uiso   1.00
H1528  H     0.73431   0.57661   0.66178   0.00000  Uiso   1.00
H1529  H     0.83848   0.39623   0.75763   0.00000  Uiso   1.00
H1530  H     0.79204   0.39870   0.73091   0.00000  Uiso   1.00
H1531  H     0.73992   0.35604   0.80061   0.00000  Uiso   1.00
H1532  H     0.79406   0.66381   0.77202   0.00000  Uiso   1.00
H1533  H     0.79115   0.35462   0.82321   0.00000  Uiso   1.00
H1534  H     0.95930   0.57133   0.67500   0.00000  Uiso   1.00
H1535  H     0.92141   0.60694   0.65804   0.00000  Uiso   1.00
H1536  H     0.89075   0.52290   0.88980   0.00000  Uiso   1.00
H1537  H     0.89801   0.56256   0.61174   0.00000  Uiso   1.00
H1538  H     0.95462   0.54456   0.61081   0.00000  Uiso   1.00
H1539  H     0.90312   0.51607   0.64681   0.00000  Uiso   1.00
H1540  H     0.99080   0.44478   0.97381   0.00000  Uiso   1.00
H1541  H     0.66793   0.48855   0.52469   0.00000  Uiso   1.00
H1542  H     0.84809   0.46443   0.58375   0.00000  Uiso   1.00
H1543  H     0.81648   0.51134   0.91723   0.00000  Uiso   1.00
H1544  H     0.92425   0.36935   0.78737   0.00000  Uiso   1.00
N1545  N     0.78403   0.50001   0.74999   0.00000  Uiso   1.00
N1546  N     0.88264   0.49999   0.75001   0.00000  Uiso   1.00
O1547  O     0.70625   0.43989   0.75000   0.00000  Uiso   1.00
O1548  O     0.69456   0.45168   0.88705   0.00000  Uiso   1.00
O1549  O     0.86878   0.44030   0.80057   0.00000  Uiso   1.00
O1550  O     0.79390   0.56660   0.71089   0.00000  Uiso   1.00
O1551  O     0.77690   0.43187   0.78750   0.00000  Uiso   1.00
O1552  O     0.88809   0.56974   0.71434   0.00000  Uiso   1.00
O1553  O     0.96042   0.56011   0.75000   0.00000  Uiso   1.00
O1554  O     0.96039   0.43988   0.75000   0.00000  Uiso   1.00
O1555  O     0.70628   0.56012   0.74999   0.00000  Uiso   1.00
O1556  O     0.68519   0.50001   0.81491   0.00000  Uiso   1.00
O1557  O     0.98148   0.49999   0.68508   0.00000  Uiso   1.00
O1558  O     0.93933   0.50000   0.81492   0.00000  Uiso   1.00
O1559  O     0.72733   0.50000   0.68508   0.00000  Uiso   1.00
O1560  O     0.96530   0.46862   0.61092   0.00000  Uiso   1.00
C1561  C     0.33329   0.75421   0.74987   0.00000  Uiso   1.00
C1562  C     0.04006   0.68926   0.72652   0.00000  Uiso   1.00
C1563  C     0.33226   0.95720   0.75051   0.00000  Uiso   1.00
C1564  C     0.33242   0.70964   0.74921   0.00000  Uiso   1.00
C1565  C     0.18524   0.80316   0.77407   0.00000  Uiso   1.00
C1566  C     0.14737   0.86529   0.72786   0.00000  Uiso   1.00
C1567  C     0.13723   0.80059   0.76988   0.00000  Uiso   1.00
C1568  C     0.19740   0.86523   0.72694   0.00000  Uiso   1.00
C1569  C     0.30601   0.83194   0.83607   0.00000  Uiso   1.00
C1570  C     0.02741   0.83016   0.66443   0.00000  Uiso   1.00
C1571  C     0.29077   0.82590   0.88558   0.00000  Uiso   1.00
C1572  C     0.33290   0.91247   0.75059   0.00000  Uiso   1.00
C1573  C     0.04365   0.82416   0.61579   0.00000  Uiso   1.00
C1574  C     0.30196   0.79558   0.95602   0.00000  Uiso   1.00
C1575  C     0.02722   0.82216   0.54373   0.00000  Uiso   1.00
C1576  C     0.31886   0.80306   0.90940   0.00000  Uiso   1.00
C1577  C     0.01187   0.81513   0.59057   0.00000  Uiso   1.00
C1578  C     0.24450   0.83804   0.90863   0.00000  Uiso   1.00
C1579  C     0.09291   0.82643   0.59392   0.00000  Uiso   1.00
C1580  C     0.22488   0.82619   0.95472   0.00000  Uiso   1.00
C1581  C     0.10987   0.82555   0.54704   0.00000  Uiso   1.00
C1582  C     0.25559   0.80723   0.97885   0.00000  Uiso   1.00
C1583  C     0.19219   0.80687   0.54811   0.00000  Uiso   1.00
C1584  C     0.07606   0.82832   0.52176   0.00000  Uiso   1.00
C1585  C     0.17528   0.83045   0.97710   0.00000  Uiso   1.00
C1586  C     0.15931   0.82221   0.52469   0.00000  Uiso   1.00
C1587  C     0.29890   0.75978   0.62642   0.00000  Uiso   1.00
C1588  C     0.24852   0.74679   0.65413   0.00000  Uiso   1.00
C1589  C     0.01855   0.74338   0.88062   0.00000  Uiso   1.00
C1590  C     0.04625   0.71403   0.90502   0.00000  Uiso   1.00
C1591  C     0.17923   0.77843   0.84632   0.00000  Uiso   1.00
C1592  C     0.19975   0.74743   0.87543   0.00000  Uiso   1.00
C1593  C     0.14276   0.90440   0.66333   0.00000  Uiso   1.00
C1594  C     0.14049   0.83883   0.95325   0.00000  Uiso   1.00
C1595  C     0.10361   0.92207   0.64286   0.00000  Uiso   1.00
C1596  C     0.13219   0.73078   0.76433   0.00000  Uiso   1.00
C1597  C     0.11294   0.69054   0.79177   0.00000  Uiso   1.00
C1598  C     0.25595   0.90751   0.67124   0.00000  Uiso   1.00
C1599  C     0.25162   0.88058   0.63387   0.00000  Uiso   1.00
C1600  C     0.23898   0.79805   0.52520   0.00000  Uiso   1.00
C1601  C     0.09164   0.83581   0.97509   0.00000  Uiso   1.00
C1602  C     0.29010   0.68719   0.77049   0.00000  Uiso   1.00
C1603  C     0.04088   0.97987   0.72968   0.00000  Uiso   1.00
C1604  C     0.28977   0.97766   0.77031   0.00000  Uiso   1.00
Cu1605 Cu    0.04689   0.83334   0.75000   0.00000  Uiso   1.00
Cu1606 Cu    0.28645   0.83333   0.75000   0.00000  Uiso   1.00
H1607  H     0.26195   0.78299   0.54381   0.00000  Uiso   1.00
H1608  H     0.07422   0.96477   0.71550   0.00000  Uiso   1.00
H1609  H     0.25693   0.96052   0.78660   0.00000  Uiso   1.00
H1610  H     0.07130   0.70625   0.70641   0.00000  Uiso   1.00
H1611  H     0.32341   0.75397   0.64835   0.00000  Uiso   1.00
H1612  H     0.31000   0.74025   0.59736   0.00000  Uiso   1.00
H1613  H     0.24831   0.71378   0.66699   0.00000  Uiso   1.00
H1614  H     0.23655   0.76608   0.68318   0.00000  Uiso   1.00
H1615  H     0.22311   0.75069   0.63304   0.00000  Uiso   1.00
H1616  H     0.03060   0.73936   0.84412   0.00000  Uiso   1.00
H1617  H     0.31320   0.73379   0.89180   0.00000  Uiso   1.00
H1618  H     0.06598   0.83924   0.95536   0.00000  Uiso   1.00
H1619  H     0.03280   0.71614   0.94192   0.00000  Uiso   1.00
H1620  H     0.04140   0.68170   0.89739   0.00000  Uiso   1.00
H1621  H     0.08504   0.72191   0.89407   0.00000  Uiso   1.00
H1622  H     0.13996   0.77282   0.85455   0.00000  Uiso   1.00
H1623  H     0.18536   0.81013   0.85482   0.00000  Uiso   1.00
H1624  H     0.23920   0.75182   0.86760   0.00000  Uiso   1.00
H1625  H     0.18330   0.75196   0.91157   0.00000  Uiso   1.00
H1626  H     0.19198   0.71538   0.86891   0.00000  Uiso   1.00
H1627  H     0.15428   0.87455   0.64834   0.00000  Uiso   1.00
H1628  H     0.17210   0.92767   0.65342   0.00000  Uiso   1.00
H1629  H     0.11783   0.83025   0.61349   0.00000  Uiso   1.00
H1630  H     0.10339   0.95639   0.64197   0.00000  Uiso   1.00
H1631  H     0.11106   0.91384   0.60749   0.00000  Uiso   1.00
H1632  H     0.06765   0.90994   0.66178   0.00000  Uiso   1.00
H1633  H     0.17181   0.72956   0.75763   0.00000  Uiso   1.00
H1634  H     0.12538   0.73203   0.73091   0.00000  Uiso   1.00
H1635  H     0.07325   0.68937   0.80061   0.00000  Uiso   1.00
H1636  H     0.12739   0.99714   0.77202   0.00000  Uiso   1.00
H1637  H     0.12448   0.68795   0.82321   0.00000  Uiso   1.00
H1638  H     0.29263   0.90467   0.67500   0.00000  Uiso   1.00
H1639  H     0.25475   0.94027   0.65804   0.00000  Uiso   1.00
H1640  H     0.22408   0.85623   0.88980   0.00000  Uiso   1.00
H1641  H     0.23134   0.89590   0.61174   0.00000  Uiso   1.00
H1642  H     0.28795   0.87789   0.61081   0.00000  Uiso   1.00
H1643  H     0.23645   0.84940   0.64681   0.00000  Uiso   1.00
H1644  H     0.32413   0.77811   0.97381   0.00000  Uiso   1.00
H1645  H     0.00126   0.82189   0.52469   0.00000  Uiso   1.00
H1646  H     0.18142   0.79776   0.58375   0.00000  Uiso   1.00
H1647  H     0.14981   0.84467   0.91723   0.00000  Uiso   1.00
H1648  H     0.25758   0.70269   0.78737   0.00000  Uiso   1.00
N1649  N     0.11736   0.83334   0.74999   0.00000  Uiso   1.00
N1650  N     0.21597   0.83332   0.75001   0.00000  Uiso   1.00
O1651  O     0.03958   0.77322   0.75000   0.00000  Uiso   1.00
O1652  O     0.02789   0.78502   0.88705   0.00000  Uiso   1.00
O1653  O     0.20211   0.77363   0.80057   0.00000  Uiso   1.00
O1654  O     0.12723   0.89994   0.71089   0.00000  Uiso   1.00
O1655  O     0.11023   0.76520   0.78750   0.00000  Uiso   1.00
O1656  O     0.22142   0.90307   0.71434   0.00000  Uiso   1.00
O1657  O     0.29375   0.89345   0.75000   0.00000  Uiso   1.00
O1658  O     0.29372   0.77321   0.75000   0.00000  Uiso   1.00
O1659  O     0.03961   0.89346   0.74999   0.00000  Uiso   1.00
O1660  O     0.01852   0.83334   0.81491   0.00000  Uiso   1.00
O1661  O     0.31481   0.83332   0.68508   0.00000  Uiso   1.00
O1662  O     0.27267   0.83333   0.81492   0.00000  Uiso   1.00
O1663  O     0.06067   0.83333   0.68508   0.00000  Uiso   1.00
O1664  O     0.29863   0.80196   0.61092   0.00000  Uiso   1.00
C1665  C     0.66663   0.75421   0.74987   0.00000  Uiso   1.00
C1666  C     0.37339   0.68926   0.72652   0.00000  Uiso   1.00
C1667  C     0.66559   0.95720   0.75051   0.00000  Uiso   1.00
C1668  C     0.66575   0.70964   0.74921   0.00000  Uiso   1.00
C1669  C     0.51857   0.80316   0.77407   0.00000  Uiso   1.00
C1670  C     0.48070   0.86529   0.72786   0.00000  Uiso   1.00
C1671  C     0.47056   0.80059   0.76988   0.00000  Uiso   1.00
C1672  C     0.53073   0.86523   0.72694   0.00000  Uiso   1.00
C1673  C     0.63935   0.83194   0.83607   0.00000  Uiso   1.00
C1674  C     0.36074   0.83016   0.66443   0.00000  Uiso   1.00
C1675  C     0.62410   0.82590   0.88558   0.00000  Uiso   1.00
C1676  C     0.66623   0.91247   0.75059   0.00000  Uiso   1.00
C1677  C     0.37698   0.82416   0.61579   0.00000  Uiso   1.00
C1678  C     0.63529   0.79558   0.95602   0.00000  Uiso   1.00
C1679  C     0.36056   0.82216   0.54373   0.00000  Uiso   1.00
C1680  C     0.65220   0.80306   0.90940   0.00000  Uiso   1.00
C1681  C     0.34521   0.81513   0.59057   0.00000  Uiso   1.00
C1682  C     0.57784   0.83804   0.90863   0.00000  Uiso   1.00
C1683  C     0.42624   0.82643   0.59392   0.00000  Uiso   1.00
C1684  C     0.55822   0.82619   0.95472   0.00000  Uiso   1.00
C1685  C     0.44321   0.82555   0.54704   0.00000  Uiso   1.00
C1686  C     0.58892   0.80723   0.97885   0.00000  Uiso   1.00
C1687  C     0.52553   0.80687   0.54811   0.00000  Uiso   1.00
C1688  C     0.40939   0.82832   0.52176   0.00000  Uiso   1.00
C1689  C     0.50861   0.83045   0.97710   0.00000  Uiso   1.00
C1690  C     0.49264   0.82221   0.52469   0.00000  Uiso   1.00
C1691  C     0.63223   0.75978   0.62642   0.00000  Uiso   1.00
C1692  C     0.58185   0.74679   0.65413   0.00000  Uiso   1.00
C1693  C     0.35188   0.74338   0.88062   0.00000  Uiso   1.00
C1694  C     0.37958   0.71403   0.90502   0.00000  Uiso   1.00
C1695  C     0.51256   0.77843   0.84632   0.00000  Uiso   1.00
C1696  C     0.53309   0.74743   0.87543   0.00000  Uiso   1.00
C1697  C     0.47610   0.90440   0.66333   0.00000  Uiso   1.00
C1698  C     0.47383   0.83883   0.95325   0.00000  Uiso   1.00
C1699  C     0.43694   0.92207   0.64286   0.00000  Uiso   1.00
C1700  C     0.46553   0.73078   0.76433   0.00000  Uiso   1.00
C1701  C     0.44628   0.69054   0.79177   0.00000  Uiso   1.00
C1702  C     0.58928   0.90751   0.67124   0.00000  Uiso   1.00
C1703  C     0.58495   0.88058   0.63387   0.00000  Uiso   1.00
C1704  C     0.57232   0.79805   0.52520   0.00000  Uiso   1.00
C1705  C     0.42497   0.83581   0.97509   0.00000  Uiso   1.00
C1706  C     0.62344   0.68719   0.77049   0.00000  Uiso   1.00
C1707  C     0.37421   0.97987   0.72968   0.00000  Uiso   1.00
C1708  C     0.62310   0.97766   0.77031   0.00000  Uiso   1.00
Cu1709 Cu    0.38022   0.83334   0.75000   0.00000  Uiso   1.00
Cu1710 Cu    0.61978   0.83333   0.75000   0.00000  Uiso   1.00
H1711  H     0.59528   0.78299   0.54381   0.00000  Uiso   1.00
H1712  H     0.40755   0.96477   0.71550   0.00000  Uiso   1.00
H1713  H     0.59026   0.96052   0.78660   0.00000  Uiso   1.00
H1714  H     0.40463   0.70625   0.70641   0.00000  Uiso   1.00
H1715  H     0.65675   0.75397   0.64835   0.00000  Uiso   1.00
H1716  H     0.64333   0.74025   0.59736   0.00000  Uiso   1.00
H1717  H     0.58165   0.71378   0.66699   0.00000  Uiso   1.00
H1718  H     0.56988   0.76608   0.68318   0.00000  Uiso   1.00
H1719  H     0.55645   0.75069   0.63304   0.00000  Uiso   1.00
H1720  H     0.36394   0.73936   0.84412   0.00000  Uiso   1.00
H1721  H     0.64653   0.73379   0.89180   0.00000  Uiso   1.00
H1722  H     0.39931   0.83924   0.95536   0.00000  Uiso   1.00
H1723  H     0.36613   0.71614   0.94192   0.00000  Uiso   1.00
H1724  H     0.37474   0.68170   0.89739   0.00000  Uiso   1.00
H1725  H     0.41837   0.72191   0.89407   0.00000  Uiso   1.00
H1726  H     0.47330   0.77282   0.85455   0.00000  Uiso   1.00
H1727  H     0.51870   0.81013   0.85482   0.00000  Uiso   1.00
H1728  H     0.57253   0.75182   0.86760   0.00000  Uiso   1.00
H1729  H     0.51664   0.75196   0.91157   0.00000  Uiso   1.00
H1730  H     0.52531   0.71538   0.86891   0.00000  Uiso   1.00
H1731  H     0.48761   0.87455   0.64834   0.00000  Uiso   1.00
H1732  H     0.50544   0.92767   0.65342   0.00000  Uiso   1.00
H1733  H     0.45117   0.83025   0.61349   0.00000  Uiso   1.00
H1734  H     0.43672   0.95639   0.64197   0.00000  Uiso   1.00
H1735  H     0.44439   0.91384   0.60749   0.00000  Uiso   1.00
H1736  H     0.40098   0.90994   0.66178   0.00000  Uiso   1.00
H1737  H     0.50514   0.72956   0.75763   0.00000  Uiso   1.00
H1738  H     0.45871   0.73203   0.73091   0.00000  Uiso   1.00
H1739  H     0.40658   0.68937   0.80061   0.00000  Uiso   1.00
H1740  H     0.46072   0.99714   0.77202   0.00000  Uiso   1.00
H1741  H     0.45781   0.68795   0.82321   0.00000  Uiso   1.00
H1742  H     0.62596   0.90467   0.67500   0.00000  Uiso   1.00
H1743  H     0.58808   0.94027   0.65804   0.00000  Uiso   1.00
H1744  H     0.55742   0.85623   0.88980   0.00000  Uiso   1.00
H1745  H     0.56467   0.89590   0.61174   0.00000  Uiso   1.00
H1746  H     0.62128   0.87789   0.61081   0.00000  Uiso   1.00
H1747  H     0.56978   0.84940   0.64681   0.00000  Uiso   1.00
H1748  H     0.65747   0.77811   0.97381   0.00000  Uiso   1.00
H1749  H     0.33459   0.82189   0.52469   0.00000  Uiso   1.00
H1750  H     0.51475   0.79776   0.58375   0.00000  Uiso   1.00
H1751  H     0.48315   0.84467   0.91723   0.00000  Uiso   1.00
H1752  H     0.59092   0.70269   0.78737   0.00000  Uiso   1.00
N1753  N     0.45069   0.83334   0.74999   0.00000  Uiso   1.00
N1754  N     0.54931   0.83332   0.75001   0.00000  Uiso   1.00
O1755  O     0.37291   0.77322   0.75000   0.00000  Uiso   1.00
O1756  O     0.36123   0.78502   0.88705   0.00000  Uiso   1.00
O1757  O     0.53545   0.77363   0.80057   0.00000  Uiso   1.00
O1758  O     0.46057   0.89994   0.71089   0.00000  Uiso   1.00
O1759  O     0.44356   0.76520   0.78750   0.00000  Uiso   1.00
O1760  O     0.55476   0.90307   0.71434   0.00000  Uiso   1.00
O1761  O     0.62709   0.89345   0.75000   0.00000  Uiso   1.00
O1762  O     0.62706   0.77321   0.75000   0.00000  Uiso   1.00
O1763  O     0.37294   0.89346   0.74999   0.00000  Uiso   1.00
O1764  O     0.35186   0.83334   0.81491   0.00000  Uiso   1.00
O1765  O     0.64814   0.83332   0.68508   0.00000  Uiso   1.00
O1766  O     0.60600   0.83333   0.81492   0.00000  Uiso   1.00
O1767  O     0.39400   0.83333   0.68508   0.00000  Uiso   1.00
O1768  O     0.63196   0.80196   0.61092   0.00000  Uiso   1.00
C1769  C     0.99996   0.75421   0.74987   0.00000  Uiso   1.00
C1770  C     0.70672   0.68926   0.72652   0.00000  Uiso   1.00
C1771  C     0.99893   0.95720   0.75051   0.00000  Uiso   1.00
C1772  C     0.99909   0.70964   0.74921   0.00000  Uiso   1.00
C1773  C     0.85190   0.80316   0.77407   0.00000  Uiso   1.00
C1774  C     0.81403   0.86529   0.72786   0.00000  Uiso   1.00
C1775  C     0.80390   0.80059   0.76988   0.00000  Uiso   1.00
C1776  C     0.86407   0.86523   0.72694   0.00000  Uiso   1.00
C1777  C     0.97268   0.83194   0.83607   0.00000  Uiso   1.00
C1778  C     0.69407   0.83016   0.66443   0.00000  Uiso   1.00
C1779  C     0.95744   0.82590   0.88558   0.00000  Uiso   1.00
C1780  C     0.99956   0.91247   0.75059   0.00000  Uiso   1.00
C1781  C     0.71032   0.82416   0.61579   0.00000  Uiso   1.00
C1782  C     0.96862   0.79558   0.95602   0.00000  Uiso   1.00
C1783  C     0.69389   0.82216   0.54373   0.00000  Uiso   1.00
C1784  C     0.98553   0.80306   0.90940   0.00000  Uiso   1.00
C1785  C     0.67854   0.81513   0.59057   0.00000  Uiso   1.00
C1786  C     0.91117   0.83804   0.90863   0.00000  Uiso   1.00
C1787  C     0.75958   0.82643   0.59392   0.00000  Uiso   1.00
C1788  C     0.89155   0.82619   0.95472   0.00000  Uiso   1.00
C1789  C     0.77654   0.82555   0.54704   0.00000  Uiso   1.00
C1790  C     0.92226   0.80723   0.97885   0.00000  Uiso   1.00
C1791  C     0.85886   0.80687   0.54811   0.00000  Uiso   1.00
C1792  C     0.74273   0.82832   0.52176   0.00000  Uiso   1.00
C1793  C     0.84194   0.83045   0.97710   0.00000  Uiso   1.00
C1794  C     0.82597   0.82221   0.52469   0.00000  Uiso   1.00
C1795  C     0.96557   0.75978   0.62642   0.00000  Uiso   1.00
C1796  C     0.91519   0.74679   0.65413   0.00000  Uiso   1.00
C1797  C     0.68521   0.74338   0.88062   0.00000  Uiso   1.00
C1798  C     0.71292   0.71403   0.90502   0.00000  Uiso   1.00
C1799  C     0.84589   0.77843   0.84632   0.00000  Uiso   1.00
C1800  C     0.86642   0.74743   0.87543   0.00000  Uiso   1.00
C1801  C     0.80943   0.90440   0.66333   0.00000  Uiso   1.00
C1802  C     0.80716   0.83883   0.95325   0.00000  Uiso   1.00
C1803  C     0.77027   0.92207   0.64286   0.00000  Uiso   1.00
C1804  C     0.79886   0.73078   0.76433   0.00000  Uiso   1.00
C1805  C     0.77961   0.69054   0.79177   0.00000  Uiso   1.00
C1806  C     0.92261   0.90751   0.67124   0.00000  Uiso   1.00
C1807  C     0.91828   0.88058   0.63387   0.00000  Uiso   1.00
C1808  C     0.90565   0.79805   0.52520   0.00000  Uiso   1.00
C1809  C     0.75830   0.83581   0.97509   0.00000  Uiso   1.00
C1810  C     0.95677   0.68719   0.77049   0.00000  Uiso   1.00
C1811  C     0.70755   0.97987   0.72968   0.00000  Uiso   1.00
C1812  C     0.95643   0.97766   0.77031   0.00000  Uiso   1.00
Cu1813 Cu    0.71355   0.83334   0.75000   0.00000  Uiso   1.00
Cu1814 Cu    0.95311   0.83333   0.75000   0.00000  Uiso   1.00
H1815  H     0.92861   0.78299   0.54381   0.00000  Uiso   1.00
H1816  H     0.74088   0.96477   0.71550   0.00000  Uiso   1.00
H1817  H     0.92359   0.96052   0.78660   0.00000  Uiso   1.00
H1818  H     0.73796   0.70625   0.70641   0.00000  Uiso   1.00
H1819  H     0.99008   0.75397   0.64835   0.00000  Uiso   1.00
H1820  H     0.97666   0.74025   0.59736   0.00000  Uiso   1.00
H1821  H     0.91498   0.71378   0.66699   0.00000  Uiso   1.00
H1822  H     0.90322   0.76608   0.68318   0.00000  Uiso   1.00
H1823  H     0.88978   0.75069   0.63304   0.00000  Uiso   1.00
H1824  H     0.69727   0.73936   0.84412   0.00000  Uiso   1.00
H1825  H     0.97987   0.73379   0.89180   0.00000  Uiso   1.00
H1826  H     0.73264   0.83924   0.95536   0.00000  Uiso   1.00
H1827  H     0.69946   0.71614   0.94192   0.00000  Uiso   1.00
H1828  H     0.70807   0.68170   0.89739   0.00000  Uiso   1.00
H1829  H     0.75170   0.72191   0.89407   0.00000  Uiso   1.00
H1830  H     0.80663   0.77282   0.85455   0.00000  Uiso   1.00
H1831  H     0.85203   0.81013   0.85482   0.00000  Uiso   1.00
H1832  H     0.90587   0.75182   0.86760   0.00000  Uiso   1.00
H1833  H     0.84997   0.75196   0.91157   0.00000  Uiso   1.00
H1834  H     0.85865   0.71538   0.86891   0.00000  Uiso   1.00
H1835  H     0.82094   0.87455   0.64834   0.00000  Uiso   1.00
H1836  H     0.83877   0.92767   0.65342   0.00000  Uiso   1.00
H1837  H     0.78450   0.83025   0.61349   0.00000  Uiso   1.00
H1838  H     0.77005   0.95639   0.64197   0.00000  Uiso   1.00
H1839  H     0.77772   0.91384   0.60749   0.00000  Uiso   1.00
H1840  H     0.73431   0.90994   0.66178   0.00000  Uiso   1.00
H1841  H     0.83848   0.72956   0.75763   0.00000  Uiso   1.00
H1842  H     0.79204   0.73203   0.73091   0.00000  Uiso   1.00
H1843  H     0.73992   0.68937   0.80061   0.00000  Uiso   1.00
H1844  H     0.79406   0.99714   0.77202   0.00000  Uiso   1.00
H1845  H     0.79115   0.68795   0.82321   0.00000  Uiso   1.00
H1846  H     0.95930   0.90467   0.67500   0.00000  Uiso   1.00
H1847  H     0.92141   0.94027   0.65804   0.00000  Uiso   1.00
H1848  H     0.89075   0.85623   0.88980   0.00000  Uiso   1.00
H1849  H     0.89801   0.89590   0.61174   0.00000  Uiso   1.00
H1850  H     0.95462   0.87789   0.61081   0.00000  Uiso   1.00
H1851  H     0.90312   0.84940   0.64681   0.00000  Uiso   1.00
H1852  H     0.99080   0.77811   0.97381   0.00000  Uiso   1.00
H1853  H     0.66793   0.82189   0.52469   0.00000  Uiso   1.00
H1854  H     0.84809   0.79776   0.58375   0.00000  Uiso   1.00
H1855  H     0.81648   0.84467   0.91723   0.00000  Uiso   1.00
H1856  H     0.92425   0.70269   0.78737   0.00000  Uiso   1.00
N1857  N     0.78403   0.83334   0.74999   0.00000  Uiso   1.00
N1858  N     0.88264   0.83332   0.75001   0.00000  Uiso   1.00
O1859  O     0.70625   0.77322   0.75000   0.00000  Uiso   1.00
O1860  O     0.69456   0.78502   0.88705   0.00000  Uiso   1.00
O1861  O     0.86878   0.77363   0.80057   0.00000  Uiso   1.00
O1862  O     0.79390   0.89994   0.71089   0.00000  Uiso   1.00
O1863  O     0.77690   0.76520   0.78750   0.00000  Uiso   1.00
O1864  O     0.88809   0.90307   0.71434   0.00000  Uiso   1.00
O1865  O     0.96042   0.89345   0.75000   0.00000  Uiso   1.00
O1866  O     0.96039   0.77321   0.75000   0.00000  Uiso   1.00
O1867  O     0.70628   0.89346   0.74999   0.00000  Uiso   1.00
O1868  O     0.68519   0.83334   0.81491   0.00000  Uiso   1.00
O1869  O     0.98148   0.83332   0.68508   0.00000  Uiso   1.00
O1870  O     0.93933   0.83333   0.81492   0.00000  Uiso   1.00
O1871  O     0.72733   0.83333   0.68508   0.00000  Uiso   1.00
O1872  O     0.96530   0.80196   0.61092   0.00000  Uiso   1.00
loop_
_geom_bond_atom_site_label_1
_geom_bond_atom_site_label_2
_geom_bond_distance
_geom_bond_site_symmetry_2
_ccdc_geom_bond_type
C1     O98     1.293   .     A
C1     C4      1.446   .     S
C1     O195    1.311   .     S
C2     H50     1.077   .     S
C2     C212    1.391   1_455 S
C2     C667    1.380   1_545 S
C3     C12     1.449   .     S
C3     C44     1.400   .     A
C3     C147    1.397   .     S
C4     C42     1.404   .     A
C4     C106    1.391   .     S
C5     N90     1.359   .     A
C5     C7      1.436   .     A
C5     O93     1.383   .     S
C6     O94     1.391   .     S
C6     C8      1.442   .     A
C6     N89     1.371   .     A
C7     N89     1.383   .     A
C7     O95     1.383   .     S
C8     O96     1.391   .     S
C8     N90     1.396   .     A
C9     O102    1.306   .     A
C9     C11     1.473   .     S
C9     O204    1.310   .     S
C10    O103    1.304   .     A
C10    C13     1.478   .     S
C10    O309    1.316   1_455 S
C11    C18     1.403   .     A
C11    C16     1.408   .     A
C12    O97     1.303   .     A
C12    O203    1.303   .     S
C13    C19     1.402   .     A
C13    C17     1.407   .     A
C14    H84     1.083   .     S
C14    C16     1.394   .     A
C14    C22     1.398   .     A
C15    H85     1.076   .     S
C15    C24     1.401   .     A
C15    C17     1.397   .     A
C16    O196    1.381   .     S
C17    O312    1.381   1_455 S
C18    C20     1.408   .     A
C18    H80     1.079   .     S
C19    C21     1.402   .     A
C19    H69     1.076   .     S
C20    C25     1.424   .     A
C20    C22     1.416   .     A
C21    C26     1.416   .     A
C21    C24     1.410   .     A
C22    C976    1.393   .     S
C23    C40     1.385   .     A
C23    C26     1.411   .     A
C23    H86     1.080   .     S
C24    C977    1.394   1_554 S
C25    C34     1.416   .     A
C25    C962    1.423   .     S
C26    C961    1.423   1_554 S
C27    O104    1.413   .     S
C27    H51     1.115   .     S
C27    H52     1.114   .     S
C27    C28     1.522   .     S
C28    H55     1.110   .     S
C28    H54     1.111   .     S
C28    H53     1.111   .     S
C29    C30     1.523   .     S
C29    H56     1.106   .     S
C29    O92     1.419   .     S
C29    H265    1.118   1_455 S
C30    H60     1.110   .     S
C30    H59     1.110   .     S
C30    H61     1.108   .     S
C31    H62     1.109   .     S
C31    H63     1.108   .     S
C31    O93     1.411   .     S
C31    C32     1.520   .     S
C32    H64     1.110   .     S
C32    H66     1.111   .     S
C32    H65     1.111   .     S
C33    O94     1.414   .     S
C33    H67     1.114   .     S
C33    C35     1.529   .     S
C33    H68     1.105   .     S
C34    C41     1.392   .     A
C34    H87     1.076   .     S
C35    H70     1.110   .     S
C35    H71     1.111   .     S
C35    H72     1.106   .     S
C36    H74     1.103   .     S
C36    C37     1.522   .     S
C36    O95     1.422   .     S
C36    H73     1.110   .     S
C37    H75     1.107   .     S
C37    H77     1.110   .     S
C37    H700    1.111   1_545 S
C38    C39     1.536   .     S
C38    H78     1.102   .     S
C38    H79     1.111   .     S
C38    O96     1.430   .     S
C39    H81     1.105   .     S
C39    H82     1.105   .     S
C39    H83     1.107   .     S
C40    H47     1.082   .     S
C40    C958    1.393   1_554 S
C41    H58     1.084   .     S
C41    C960    1.394   .     S
C42    H88     1.083   .     S
C42    C668    1.389   1_545 S
C43    H48     1.074   .     S
C43    C314    1.380   .     S
C43    C211    1.397   1_455 S
C44    H49     1.083   .     S
C44    C354    1.389   .     S
Cu45   O103    1.940   .     S
Cu45   N89     2.041   .     S
Cu45   O99     1.956   .     S
Cu45   O100    1.953   .     S
Cu45   O91     1.962   .     S
Cu45   Cu254   2.717   1_455 S
Cu46   O102    1.940   .     S
Cu46   O101    1.953   .     S
Cu46   O97     1.962   .     S
Cu46   N90     2.041   .     S
Cu46   O98     1.956   .     S
Cu46   Cu149   2.717   .     S
H57    C133    1.118   .     S
H76    C349    1.111   .     S
O91    C209    1.311   1_455 S
O92    C224    1.381   1_455 S
O99    C220    1.303   1_455 S
O100   C217    1.310   1_455 S
O101   C114    1.316   .     S
O104   C121    1.381   .     S
C105   O202    1.293   .     A
C105   C108    1.446   .     S
C105   O299    1.311   .     S
C106   H154    1.077   .     S
C106   C771    1.380   1_545 S
C107   C116    1.449   .     S
C107   C148    1.400   .     A
C107   C251    1.397   .     S
C108   C146    1.404   .     A
C108   C210    1.391   .     S
C109   N194    1.359   .     A
C109   C111    1.436   .     A
C109   O197    1.383   .     S
C110   O198    1.391   .     S
C110   C112    1.442   .     A
C110   N193    1.371   .     A
C111   N193    1.383   .     A
C111   O199    1.383   .     S
C112   O200    1.391   .     S
C112   N194    1.396   .     A
C113   O206    1.306   .     A
C113   C115    1.473   .     S
C113   O308    1.310   .     S
C114   O207    1.304   .     A
C114   C117    1.478   .     S
C115   C122    1.403   .     A
C115   C120    1.408   .     A
C116   O201    1.303   .     A
C116   O307    1.303   .     S
C117   C123    1.402   .     A
C117   C121    1.407   .     A
C118   H188    1.083   .     S
C118   C120    1.394   .     A
C118   C126    1.398   .     A
C119   H189    1.076   .     S
C119   C128    1.401   .     A
C119   C121    1.397   .     A
C120   O300    1.381   .     S
C122   C124    1.408   .     A
C122   H184    1.079   .     S
C123   C125    1.402   .     A
C123   H173    1.076   .     S
C124   C129    1.424   .     A
C124   C126    1.416   .     A
C125   C130    1.416   .     A
C125   C128    1.410   .     A
C126   C1080   1.393   .     S
C127   C144    1.385   .     A
C127   C130    1.411   .     A
C127   H190    1.080   .     S
C128   C1081   1.394   1_554 S
C129   C138    1.416   .     A
C129   C1066   1.423   .     S
C130   C1065   1.423   1_554 S
C131   O208    1.413   .     S
C131   H155    1.115   .     S
C131   H156    1.114   .     S
C131   C132    1.522   .     S
C132   H159    1.110   .     S
C132   H158    1.111   .     S
C132   H157    1.111   .     S
C133   C134    1.523   .     S
C133   H160    1.106   .     S
C133   O196    1.419   .     S
C134   H164    1.110   .     S
C134   H163    1.110   .     S
C134   H165    1.108   .     S
C135   H166    1.109   .     S
C135   H167    1.108   .     S
C135   O197    1.411   .     S
C135   C136    1.520   .     S
C136   H168    1.110   .     S
C136   H170    1.111   .     S
C136   H169    1.111   .     S
C137   O198    1.414   .     S
C137   H171    1.114   .     S
C137   C139    1.529   .     S
C137   H172    1.105   .     S
C138   C145    1.392   .     A
C138   H191    1.076   .     S
C139   H174    1.110   .     S
C139   H175    1.111   .     S
C139   H176    1.106   .     S
C140   H178    1.103   .     S
C140   C141    1.522   .     S
C140   O199    1.422   .     S
C140   H177    1.110   .     S
C141   H179    1.107   .     S
C141   H181    1.110   .     S
C141   H804    1.111   1_545 S
C142   C143    1.536   .     S
C142   H182    1.102   .     S
C142   H183    1.111   .     S
C142   O200    1.430   .     S
C143   H185    1.105   .     S
C143   H186    1.105   .     S
C143   H187    1.107   .     S
C144   H151    1.082   .     S
C144   C1062   1.393   1_554 S
C145   H162    1.084   .     S
C145   C1064   1.394   .     S
C146   H192    1.083   .     S
C146   C772    1.389   1_545 S
C147   H152    1.074   .     S
C147   C418    1.380   .     S
C148   H153    1.083   .     S
C148   C458    1.389   .     S
Cu149  O207    1.940   .     S
Cu149  N193    2.041   .     S
Cu149  O203    1.956   .     S
Cu149  O204    1.953   .     S
Cu149  O195    1.962   .     S
Cu150  O206    1.940   .     S
Cu150  O205    1.953   .     S
Cu150  O201    1.962   .     S
Cu150  N194    2.041   .     S
Cu150  O202    1.956   .     S
Cu150  Cu253   2.717   .     S
H161   C237    1.118   .     S
H180   C453    1.111   .     S
O205   C218    1.316   .     S
O208   C225    1.381   .     S
C209   O306    1.293   .     A
C209   C212    1.446   .     S
C209   O91     1.311   1_655 S
C210   H258    1.077   .     S
C210   C875    1.380   1_545 S
C211   C220    1.449   .     S
C211   C252    1.400   .     A
C211   C43     1.397   1_655 S
C212   C250    1.404   .     A
C212   C2      1.391   1_655 S
C213   N298    1.359   .     A
C213   C215    1.436   .     A
C213   O301    1.383   .     S
C214   O302    1.391   .     S
C214   C216    1.442   .     A
C214   N297    1.371   .     A
C215   N297    1.383   .     A
C215   O303    1.383   .     S
C216   O304    1.391   .     S
C216   N298    1.396   .     A
C217   O310    1.306   .     A
C217   C219    1.473   .     S
C217   O100    1.310   1_655 S
C218   O311    1.304   .     A
C218   C221    1.478   .     S
C219   C226    1.403   .     A
C219   C224    1.408   .     A
C220   O305    1.303   .     A
C220   O99     1.303   1_655 S
C221   C227    1.402   .     A
C221   C225    1.407   .     A
C222   H292    1.083   .     S
C222   C224    1.394   .     A
C222   C230    1.398   .     A
C223   H293    1.076   .     S
C223   C232    1.401   .     A
C223   C225    1.397   .     A
C224   O92     1.381   1_655 S
C226   C228    1.408   .     A
C226   H288    1.079   .     S
C227   C229    1.402   .     A
C227   H277    1.076   .     S
C228   C233    1.424   .     A
C228   C230    1.416   .     A
C229   C234    1.416   .     A
C229   C232    1.410   .     A
C230   C1184   1.393   .     S
C231   C248    1.385   .     A
C231   C234    1.411   .     A
C231   H294    1.080   .     S
C232   C1185   1.394   1_554 S
C233   C242    1.416   .     A
C233   C1170   1.423   .     S
C234   C1169   1.423   1_554 S
C235   O312    1.413   .     S
C235   H259    1.115   .     S
C235   H260    1.114   .     S
C235   C236    1.522   .     S
C236   H263    1.110   .     S
C236   H262    1.111   .     S
C236   H261    1.111   .     S
C237   C238    1.523   .     S
C237   H264    1.106   .     S
C237   O300    1.419   .     S
C238   H268    1.110   .     S
C238   H267    1.110   .     S
C238   H269    1.108   .     S
C239   H270    1.109   .     S
C239   H271    1.108   .     S
C239   O301    1.411   .     S
C239   C240    1.520   .     S
C240   H272    1.110   .     S
C240   H274    1.111   .     S
C240   H273    1.111   .     S
C241   O302    1.414   .     S
C241   H275    1.114   .     S
C241   C243    1.529   .     S
C241   H276    1.105   .     S
C242   C249    1.392   .     A
C242   H295    1.076   .     S
C243   H278    1.110   .     S
C243   H279    1.111   .     S
C243   H280    1.106   .     S
C244   H282    1.103   .     S
C244   C245    1.522   .     S
C244   O303    1.422   .     S
C244   H281    1.110   .     S
C245   H283    1.107   .     S
C245   H285    1.110   .     S
C245   H908    1.111   1_545 S
C246   C247    1.536   .     S
C246   H286    1.102   .     S
C246   H287    1.111   .     S
C246   O304    1.430   .     S
C247   H289    1.105   .     S
C247   H290    1.105   .     S
C247   H291    1.107   .     S
C248   H255    1.082   .     S
C248   C1166   1.393   1_554 S
C249   H266    1.084   .     S
C249   C1168   1.394   .     S
C250   H296    1.083   .     S
C250   C876    1.389   1_545 S
C251   H256    1.074   .     S
C251   C522    1.380   .     S
C252   H257    1.083   .     S
C252   C562    1.389   .     S
Cu253  O311    1.940   .     S
Cu253  N297    2.041   .     S
Cu253  O307    1.956   .     S
Cu253  O308    1.953   .     S
Cu253  O299    1.962   .     S
Cu254  O310    1.940   .     S
Cu254  O309    1.953   .     S
Cu254  O305    1.962   .     S
Cu254  N298    2.041   .     S
Cu254  O306    1.956   .     S
Cu254  Cu45    2.717   1_655 S
H265   C29     1.118   1_655 S
H284   C557    1.111   .     S
O309   C10     1.316   1_655 S
O312   C17     1.381   1_655 S
C313   O410    1.293   .     A
C313   C316    1.446   .     S
C313   O507    1.311   .     S
C314   H362    1.077   .     S
C314   C524    1.391   1_455 S
C315   C324    1.449   .     S
C315   C356    1.400   .     A
C315   C459    1.397   .     S
C316   C354    1.404   .     A
C316   C418    1.391   .     S
C317   N402    1.359   .     A
C317   C319    1.436   .     A
C317   O405    1.383   .     S
C318   O406    1.391   .     S
C318   C320    1.442   .     A
C318   N401    1.371   .     A
C319   N401    1.383   .     A
C319   O407    1.383   .     S
C320   O408    1.391   .     S
C320   N402    1.396   .     A
C321   O414    1.306   .     A
C321   C323    1.473   .     S
C321   O516    1.310   .     S
C322   O415    1.304   .     A
C322   C325    1.478   .     S
C322   O621    1.316   1_455 S
C323   C330    1.403   .     A
C323   C328    1.408   .     A
C324   O409    1.303   .     A
C324   O515    1.303   .     S
C325   C331    1.402   .     A
C325   C329    1.407   .     A
C326   H396    1.083   .     S
C326   C328    1.394   .     A
C326   C334    1.398   .     A
C327   H397    1.076   .     S
C327   C336    1.401   .     A
C327   C329    1.397   .     A
C328   O508    1.381   .     S
C329   O624    1.381   1_455 S
C330   C332    1.408   .     A
C330   H392    1.079   .     S
C331   C333    1.402   .     A
C331   H381    1.076   .     S
C332   C337    1.424   .     A
C332   C334    1.416   .     A
C333   C338    1.416   .     A
C333   C336    1.410   .     A
C334   C1288   1.393   .     S
C335   C352    1.385   .     A
C335   C338    1.411   .     A
C335   H398    1.080   .     S
C336   C1289   1.394   1_554 S
C337   C346    1.416   .     A
C337   C1274   1.423   .     S
C338   C1273   1.423   1_554 S
C339   O416    1.413   .     S
C339   H363    1.115   .     S
C339   H364    1.114   .     S
C339   C340    1.522   .     S
C340   H367    1.110   .     S
C340   H366    1.111   .     S
C340   H365    1.111   .     S
C341   C342    1.523   .     S
C341   H368    1.106   .     S
C341   O404    1.419   .     S
C341   H577    1.118   1_455 S
C342   H372    1.110   .     S
C342   H371    1.110   .     S
C342   H373    1.108   .     S
C343   H374    1.109   .     S
C343   H375    1.108   .     S
C343   O405    1.411   .     S
C343   C344    1.520   .     S
C344   H376    1.110   .     S
C344   H378    1.111   .     S
C344   H377    1.111   .     S
C345   O406    1.414   .     S
C345   H379    1.114   .     S
C345   C347    1.529   .     S
C345   H380    1.105   .     S
C346   C353    1.392   .     A
C346   H399    1.076   .     S
C347   H382    1.110   .     S
C347   H383    1.111   .     S
C347   H384    1.106   .     S
C348   H386    1.103   .     S
C348   C349    1.522   .     S
C348   O407    1.422   .     S
C348   H385    1.110   .     S
C349   H387    1.107   .     S
C349   H389    1.110   .     S
C350   C351    1.536   .     S
C350   H390    1.102   .     S
C350   H391    1.111   .     S
C350   O408    1.430   .     S
C351   H393    1.105   .     S
C351   H394    1.105   .     S
C351   H395    1.107   .     S
C352   H359    1.082   .     S
C352   C1270   1.393   1_554 S
C353   H370    1.084   .     S
C353   C1272   1.394   .     S
C354   H400    1.083   .     S
C355   H360    1.074   .     S
C355   C626    1.380   .     S
C355   C523    1.397   1_455 S
C356   H361    1.083   .     S
C356   C666    1.389   .     S
Cu357  O415    1.940   .     S
Cu357  N401    2.041   .     S
Cu357  O411    1.956   .     S
Cu357  O412    1.953   .     S
Cu357  O403    1.962   .     S
Cu357  Cu566   2.717   1_455 S
Cu358  O414    1.940   .     S
Cu358  O413    1.953   .     S
Cu358  O409    1.962   .     S
Cu358  N402    2.041   .     S
Cu358  O410    1.956   .     S
Cu358  Cu461   2.717   .     S
H369   C445    1.118   .     S
H388   C661    1.111   .     S
O403   C521    1.311   1_455 S
O404   C536    1.381   1_455 S
O411   C532    1.303   1_455 S
O412   C529    1.310   1_455 S
O413   C426    1.316   .     S
O416   C433    1.381   .     S
C417   O514    1.293   .     A
C417   C420    1.446   .     S
C417   O611    1.311   .     S
C418   H466    1.077   .     S
C419   C428    1.449   .     S
C419   C460    1.400   .     A
C419   C563    1.397   .     S
C420   C458    1.404   .     A
C420   C522    1.391   .     S
C421   N506    1.359   .     A
C421   C423    1.436   .     A
C421   O509    1.383   .     S
C422   O510    1.391   .     S
C422   C424    1.442   .     A
C422   N505    1.371   .     A
C423   N505    1.383   .     A
C423   O511    1.383   .     S
C424   O512    1.391   .     S
C424   N506    1.396   .     A
C425   O518    1.306   .     A
C425   C427    1.473   .     S
C425   O620    1.310   .     S
C426   O519    1.304   .     A
C426   C429    1.478   .     S
C427   C434    1.403   .     A
C427   C432    1.408   .     A
C428   O513    1.303   .     A
C428   O619    1.303   .     S
C429   C435    1.402   .     A
C429   C433    1.407   .     A
C430   H500    1.083   .     S
C430   C432    1.394   .     A
C430   C438    1.398   .     A
C431   H501    1.076   .     S
C431   C440    1.401   .     A
C431   C433    1.397   .     A
C432   O612    1.381   .     S
C434   C436    1.408   .     A
C434   H496    1.079   .     S
C435   C437    1.402   .     A
C435   H485    1.076   .     S
C436   C441    1.424   .     A
C436   C438    1.416   .     A
C437   C442    1.416   .     A
C437   C440    1.410   .     A
C438   C1392   1.393   .     S
C439   C456    1.385   .     A
C439   C442    1.411   .     A
C439   H502    1.080   .     S
C440   C1393   1.394   1_554 S
C441   C450    1.416   .     A
C441   C1378   1.423   .     S
C442   C1377   1.423   1_554 S
C443   O520    1.413   .     S
C443   H467    1.115   .     S
C443   H468    1.114   .     S
C443   C444    1.522   .     S
C444   H471    1.110   .     S
C444   H470    1.111   .     S
C444   H469    1.111   .     S
C445   C446    1.523   .     S
C445   H472    1.106   .     S
C445   O508    1.419   .     S
C446   H476    1.110   .     S
C446   H475    1.110   .     S
C446   H477    1.108   .     S
C447   H478    1.109   .     S
C447   H479    1.108   .     S
C447   O509    1.411   .     S
C447   C448    1.520   .     S
C448   H480    1.110   .     S
C448   H482    1.111   .     S
C448   H481    1.111   .     S
C449   O510    1.414   .     S
C449   H483    1.114   .     S
C449   C451    1.529   .     S
C449   H484    1.105   .     S
C450   C457    1.392   .     A
C450   H503    1.076   .     S
C451   H486    1.110   .     S
C451   H487    1.111   .     S
C451   H488    1.106   .     S
C452   H490    1.103   .     S
C452   C453    1.522   .     S
C452   O511    1.422   .     S
C452   H489    1.110   .     S
C453   H491    1.107   .     S
C453   H493    1.110   .     S
C454   C455    1.536   .     S
C454   H494    1.102   .     S
C454   H495    1.111   .     S
C454   O512    1.430   .     S
C455   H497    1.105   .     S
C455   H498    1.105   .     S
C455   H499    1.107   .     S
C456   H463    1.082   .     S
C456   C1374   1.393   1_554 S
C457   H474    1.084   .     S
C457   C1376   1.394   .     S
C458   H504    1.083   .     S
C459   H464    1.074   .     S
C459   C730    1.380   .     S
C460   H465    1.083   .     S
C460   C770    1.389   .     S
Cu461  O519    1.940   .     S
Cu461  N505    2.041   .     S
Cu461  O515    1.956   .     S
Cu461  O516    1.953   .     S
Cu461  O507    1.962   .     S
Cu462  O518    1.940   .     S
Cu462  O517    1.953   .     S
Cu462  O513    1.962   .     S
Cu462  N506    2.041   .     S
Cu462  O514    1.956   .     S
Cu462  Cu565   2.717   .     S
H473   C549    1.118   .     S
H492   C765    1.111   .     S
O517   C530    1.316   .     S
O520   C537    1.381   .     S
C521   O618    1.293   .     A
C521   C524    1.446   .     S
C521   O403    1.311   1_655 S
C522   H570    1.077   .     S
C523   C532    1.449   .     S
C523   C564    1.400   .     A
C523   C355    1.397   1_655 S
C524   C562    1.404   .     A
C524   C314    1.391   1_655 S
C525   N610    1.359   .     A
C525   C527    1.436   .     A
C525   O613    1.383   .     S
C526   O614    1.391   .     S
C526   C528    1.442   .     A
C526   N609    1.371   .     A
C527   N609    1.383   .     A
C527   O615    1.383   .     S
C528   O616    1.391   .     S
C528   N610    1.396   .     A
C529   O622    1.306   .     A
C529   C531    1.473   .     S
C529   O412    1.310   1_655 S
C530   O623    1.304   .     A
C530   C533    1.478   .     S
C531   C538    1.403   .     A
C531   C536    1.408   .     A
C532   O617    1.303   .     A
C532   O411    1.303   1_655 S
C533   C539    1.402   .     A
C533   C537    1.407   .     A
C534   H604    1.083   .     S
C534   C536    1.394   .     A
C534   C542    1.398   .     A
C535   H605    1.076   .     S
C535   C544    1.401   .     A
C535   C537    1.397   .     A
C536   O404    1.381   1_655 S
C538   C540    1.408   .     A
C538   H600    1.079   .     S
C539   C541    1.402   .     A
C539   H589    1.076   .     S
C540   C545    1.424   .     A
C540   C542    1.416   .     A
C541   C546    1.416   .     A
C541   C544    1.410   .     A
C542   C1496   1.393   .     S
C543   C560    1.385   .     A
C543   C546    1.411   .     A
C543   H606    1.080   .     S
C544   C1497   1.394   1_554 S
C545   C554    1.416   .     A
C545   C1482   1.423   .     S
C546   C1481   1.423   1_554 S
C547   O624    1.413   .     S
C547   H571    1.115   .     S
C547   H572    1.114   .     S
C547   C548    1.522   .     S
C548   H575    1.110   .     S
C548   H574    1.111   .     S
C548   H573    1.111   .     S
C549   C550    1.523   .     S
C549   H576    1.106   .     S
C549   O612    1.419   .     S
C550   H580    1.110   .     S
C550   H579    1.110   .     S
C550   H581    1.108   .     S
C551   H582    1.109   .     S
C551   H583    1.108   .     S
C551   O613    1.411   .     S
C551   C552    1.520   .     S
C552   H584    1.110   .     S
C552   H586    1.111   .     S
C552   H585    1.111   .     S
C553   O614    1.414   .     S
C553   H587    1.114   .     S
C553   C555    1.529   .     S
C553   H588    1.105   .     S
C554   C561    1.392   .     A
C554   H607    1.076   .     S
C555   H590    1.110   .     S
C555   H591    1.111   .     S
C555   H592    1.106   .     S
C556   H594    1.103   .     S
C556   C557    1.522   .     S
C556   O615    1.422   .     S
C556   H593    1.110   .     S
C557   H595    1.107   .     S
C557   H597    1.110   .     S
C558   C559    1.536   .     S
C558   H598    1.102   .     S
C558   H599    1.111   .     S
C558   O616    1.430   .     S
C559   H601    1.105   .     S
C559   H602    1.105   .     S
C559   H603    1.107   .     S
C560   H567    1.082   .     S
C560   C1478   1.393   1_554 S
C561   H578    1.084   .     S
C561   C1480   1.394   .     S
C562   H608    1.083   .     S
C563   H568    1.074   .     S
C563   C834    1.380   .     S
C564   H569    1.083   .     S
C564   C874    1.389   .     S
Cu565  O623    1.940   .     S
Cu565  N609    2.041   .     S
Cu565  O619    1.956   .     S
Cu565  O620    1.953   .     S
Cu565  O611    1.962   .     S
Cu566  O622    1.940   .     S
Cu566  O621    1.953   .     S
Cu566  O617    1.962   .     S
Cu566  N610    2.041   .     S
Cu566  O618    1.956   .     S
Cu566  Cu357   2.717   1_655 S
H577   C341    1.118   1_655 S
H596   C869    1.111   .     S
O621   C322    1.316   1_655 S
O624   C329    1.381   1_655 S
C625   O722    1.293   .     A
C625   C628    1.446   .     S
C625   O819    1.311   .     S
C626   H674    1.077   .     S
C626   C836    1.391   1_455 S
C627   C636    1.449   .     S
C627   C668    1.400   .     A
C627   C771    1.397   .     S
C628   C666    1.404   .     A
C628   C730    1.391   .     S
C629   N714    1.359   .     A
C629   C631    1.436   .     A
C629   O717    1.383   .     S
C630   O718    1.391   .     S
C630   C632    1.442   .     A
C630   N713    1.371   .     A
C631   N713    1.383   .     A
C631   O719    1.383   .     S
C632   O720    1.391   .     S
C632   N714    1.396   .     A
C633   O726    1.306   .     A
C633   C635    1.473   .     S
C633   O828    1.310   .     S
C634   O727    1.304   .     A
C634   C637    1.478   .     S
C634   O933    1.316   1_455 S
C635   C642    1.403   .     A
C635   C640    1.408   .     A
C636   O721    1.303   .     A
C636   O827    1.303   .     S
C637   C643    1.402   .     A
C637   C641    1.407   .     A
C638   H708    1.083   .     S
C638   C640    1.394   .     A
C638   C646    1.398   .     A
C639   H709    1.076   .     S
C639   C648    1.401   .     A
C639   C641    1.397   .     A
C640   O820    1.381   .     S
C641   O936    1.381   1_455 S
C642   C644    1.408   .     A
C642   H704    1.079   .     S
C643   C645    1.402   .     A
C643   H693    1.076   .     S
C644   C649    1.424   .     A
C644   C646    1.416   .     A
C645   C650    1.416   .     A
C645   C648    1.410   .     A
C646   C1600   1.393   .     S
C647   C664    1.385   .     A
C647   C650    1.411   .     A
C647   H710    1.080   .     S
C648   C1601   1.394   1_554 S
C649   C658    1.416   .     A
C649   C1586   1.423   .     S
C650   C1585   1.423   1_554 S
C651   O728    1.413   .     S
C651   H675    1.115   .     S
C651   H676    1.114   .     S
C651   C652    1.522   .     S
C652   H679    1.110   .     S
C652   H678    1.111   .     S
C652   H677    1.111   .     S
C653   C654    1.523   .     S
C653   H680    1.106   .     S
C653   O716    1.419   .     S
C653   H889    1.118   1_455 S
C654   H684    1.110   .     S
C654   H683    1.110   .     S
C654   H685    1.108   .     S
C655   H686    1.109   .     S
C655   H687    1.108   .     S
C655   O717    1.411   .     S
C655   C656    1.520   .     S
C656   H688    1.110   .     S
C656   H690    1.111   .     S
C656   H689    1.111   .     S
C657   O718    1.414   .     S
C657   H691    1.114   .     S
C657   C659    1.529   .     S
C657   H692    1.105   .     S
C658   C665    1.392   .     A
C658   H711    1.076   .     S
C659   H694    1.110   .     S
C659   H695    1.111   .     S
C659   H696    1.106   .     S
C660   H698    1.103   .     S
C660   C661    1.522   .     S
C660   O719    1.422   .     S
C660   H697    1.110   .     S
C661   H699    1.107   .     S
C661   H701    1.110   .     S
C662   C663    1.536   .     S
C662   H702    1.102   .     S
C662   H703    1.111   .     S
C662   O720    1.430   .     S
C663   H705    1.105   .     S
C663   H706    1.105   .     S
C663   H707    1.107   .     S
C664   H671    1.082   .     S
C664   C1582   1.393   1_554 S
C665   H682    1.084   .     S
C665   C1584   1.394   .     S
C666   H712    1.083   .     S
C667   H672    1.074   .     S
C667   C2      1.380   1_565 S
C667   C835    1.397   1_455 S
C668   H673    1.083   .     S
C668   C42     1.389   1_565 S
Cu669  O727    1.940   .     S
Cu669  N713    2.041   .     S
Cu669  O723    1.956   .     S
Cu669  O724    1.953   .     S
Cu669  O715    1.962   .     S
Cu669  Cu878   2.717   1_455 S
Cu670  O726    1.940   .     S
Cu670  O725    1.953   .     S
Cu670  O721    1.962   .     S
Cu670  N714    2.041   .     S
Cu670  O722    1.956   .     S
Cu670  Cu773   2.717   .     S
H681   C757    1.118   .     S
H700   C37     1.111   1_565 S
O715   C833    1.311   1_455 S
O716   C848    1.381   1_455 S
O723   C844    1.303   1_455 S
O724   C841    1.310   1_455 S
O725   C738    1.316   .     S
O728   C745    1.381   .     S
C729   O826    1.293   .     A
C729   C732    1.446   .     S
C729   O923    1.311   .     S
C730   H778    1.077   .     S
C731   C740    1.449   .     S
C731   C772    1.400   .     A
C731   C875    1.397   .     S
C732   C770    1.404   .     A
C732   C834    1.391   .     S
C733   N818    1.359   .     A
C733   C735    1.436   .     A
C733   O821    1.383   .     S
C734   O822    1.391   .     S
C734   C736    1.442   .     A
C734   N817    1.371   .     A
C735   N817    1.383   .     A
C735   O823    1.383   .     S
C736   O824    1.391   .     S
C736   N818    1.396   .     A
C737   O830    1.306   .     A
C737   C739    1.473   .     S
C737   O932    1.310   .     S
C738   O831    1.304   .     A
C738   C741    1.478   .     S
C739   C746    1.403   .     A
C739   C744    1.408   .     A
C740   O825    1.303   .     A
C740   O931    1.303   .     S
C741   C747    1.402   .     A
C741   C745    1.407   .     A
C742   H812    1.083   .     S
C742   C744    1.394   .     A
C742   C750    1.398   .     A
C743   H813    1.076   .     S
C743   C752    1.401   .     A
C743   C745    1.397   .     A
C744   O924    1.381   .     S
C746   C748    1.408   .     A
C746   H808    1.079   .     S
C747   C749    1.402   .     A
C747   H797    1.076   .     S
C748   C753    1.424   .     A
C748   C750    1.416   .     A
C749   C754    1.416   .     A
C749   C752    1.410   .     A
C750   C1704   1.393   .     S
C751   C768    1.385   .     A
C751   C754    1.411   .     A
C751   H814    1.080   .     S
C752   C1705   1.394   1_554 S
C753   C762    1.416   .     A
C753   C1690   1.423   .     S
C754   C1689   1.423   1_554 S
C755   O832    1.413   .     S
C755   H779    1.115   .     S
C755   H780    1.114   .     S
C755   C756    1.522   .     S
C756   H783    1.110   .     S
C756   H782    1.111   .     S
C756   H781    1.111   .     S
C757   C758    1.523   .     S
C757   H784    1.106   .     S
C757   O820    1.419   .     S
C758   H788    1.110   .     S
C758   H787    1.110   .     S
C758   H789    1.108   .     S
C759   H790    1.109   .     S
C759   H791    1.108   .     S
C759   O821    1.411   .     S
C759   C760    1.520   .     S
C760   H792    1.110   .     S
C760   H794    1.111   .     S
C760   H793    1.111   .     S
C761   O822    1.414   .     S
C761   H795    1.114   .     S
C761   C763    1.529   .     S
C761   H796    1.105   .     S
C762   C769    1.392   .     A
C762   H815    1.076   .     S
C763   H798    1.110   .     S
C763   H799    1.111   .     S
C763   H800    1.106   .     S
C764   H802    1.103   .     S
C764   C765    1.522   .     S
C764   O823    1.422   .     S
C764   H801    1.110   .     S
C765   H803    1.107   .     S
C765   H805    1.110   .     S
C766   C767    1.536   .     S
C766   H806    1.102   .     S
C766   H807    1.111   .     S
C766   O824    1.430   .     S
C767   H809    1.105   .     S
C767   H810    1.105   .     S
C767   H811    1.107   .     S
C768   H775    1.082   .     S
C768   C1686   1.393   1_554 S
C769   H786    1.084   .     S
C769   C1688   1.394   .     S
C770   H816    1.083   .     S
C771   H776    1.074   .     S
C771   C106    1.380   1_565 S
C772   H777    1.083   .     S
C772   C146    1.389   1_565 S
Cu773  O831    1.940   .     S
Cu773  N817    2.041   .     S
Cu773  O827    1.956   .     S
Cu773  O828    1.953   .     S
Cu773  O819    1.962   .     S
Cu774  O830    1.940   .     S
Cu774  O829    1.953   .     S
Cu774  O825    1.962   .     S
Cu774  N818    2.041   .     S
Cu774  O826    1.956   .     S
Cu774  Cu877   2.717   .     S
H785   C861    1.118   .     S
H804   C141    1.111   1_565 S
O829   C842    1.316   .     S
O832   C849    1.381   .     S
C833   O930    1.293   .     A
C833   C836    1.446   .     S
C833   O715    1.311   1_655 S
C834   H882    1.077   .     S
C835   C844    1.449   .     S
C835   C876    1.400   .     A
C835   C667    1.397   1_655 S
C836   C874    1.404   .     A
C836   C626    1.391   1_655 S
C837   N922    1.359   .     A
C837   C839    1.436   .     A
C837   O925    1.383   .     S
C838   O926    1.391   .     S
C838   C840    1.442   .     A
C838   N921    1.371   .     A
C839   N921    1.383   .     A
C839   O927    1.383   .     S
C840   O928    1.391   .     S
C840   N922    1.396   .     A
C841   O934    1.306   .     A
C841   C843    1.473   .     S
C841   O724    1.310   1_655 S
C842   O935    1.304   .     A
C842   C845    1.478   .     S
C843   C850    1.403   .     A
C843   C848    1.408   .     A
C844   O929    1.303   .     A
C844   O723    1.303   1_655 S
C845   C851    1.402   .     A
C845   C849    1.407   .     A
C846   H916    1.083   .     S
C846   C848    1.394   .     A
C846   C854    1.398   .     A
C847   H917    1.076   .     S
C847   C856    1.401   .     A
C847   C849    1.397   .     A
C848   O716    1.381   1_655 S
C850   C852    1.408   .     A
C850   H912    1.079   .     S
C851   C853    1.402   .     A
C851   H901    1.076   .     S
C852   C857    1.424   .     A
C852   C854    1.416   .     A
C853   C858    1.416   .     A
C853   C856    1.410   .     A
C854   C1808   1.393   .     S
C855   C872    1.385   .     A
C855   C858    1.411   .     A
C855   H918    1.080   .     S
C856   C1809   1.394   1_554 S
C857   C866    1.416   .     A
C857   C1794   1.423   .     S
C858   C1793   1.423   1_554 S
C859   O936    1.413   .     S
C859   H883    1.115   .     S
C859   H884    1.114   .     S
C859   C860    1.522   .     S
C860   H887    1.110   .     S
C860   H886    1.111   .     S
C860   H885    1.111   .     S
C861   C862    1.523   .     S
C861   H888    1.106   .     S
C861   O924    1.419   .     S
C862   H892    1.110   .     S
C862   H891    1.110   .     S
C862   H893    1.108   .     S
C863   H894    1.109   .     S
C863   H895    1.108   .     S
C863   O925    1.411   .     S
C863   C864    1.520   .     S
C864   H896    1.110   .     S
C864   H898    1.111   .     S
C864   H897    1.111   .     S
C865   O926    1.414   .     S
C865   H899    1.114   .     S
C865   C867    1.529   .     S
C865   H900    1.105   .     S
C866   C873    1.392   .     A
C866   H919    1.076   .     S
C867   H902    1.110   .     S
C867   H903    1.111   .     S
C867   H904    1.106   .     S
C868   H906    1.103   .     S
C868   C869    1.522   .     S
C868   O927    1.422   .     S
C868   H905    1.110   .     S
C869   H907    1.107   .     S
C869   H909    1.110   .     S
C870   C871    1.536   .     S
C870   H910    1.102   .     S
C870   H911    1.111   .     S
C870   O928    1.430   .     S
C871   H913    1.105   .     S
C871   H914    1.105   .     S
C871   H915    1.107   .     S
C872   H879    1.082   .     S
C872   C1790   1.393   1_554 S
C873   H890    1.084   .     S
C873   C1792   1.394   .     S
C874   H920    1.083   .     S
C875   H880    1.074   .     S
C875   C210    1.380   1_565 S
C876   H881    1.083   .     S
C876   C250    1.389   1_565 S
Cu877  O935    1.940   .     S
Cu877  N921    2.041   .     S
Cu877  O931    1.956   .     S
Cu877  O932    1.953   .     S
Cu877  O923    1.962   .     S
Cu878  O934    1.940   .     S
Cu878  O933    1.953   .     S
Cu878  O929    1.962   .     S
Cu878  N922    2.041   .     S
Cu878  O930    1.956   .     S
Cu878  Cu669   2.717   1_655 S
H889   C653    1.118   1_655 S
H908   C245    1.111   1_565 S
O933   C634    1.316   1_655 S
O936   C641    1.381   1_655 S
C937   O1034   1.293   .     A
C937   C940    1.446   .     S
C937   O1131   1.311   .     S
C938   H986    1.077   .     S
C938   C1148   1.391   1_455 S
C938   C1603   1.380   1_545 S
C939   C948    1.449   .     S
C939   C980    1.400   .     A
C939   C1083   1.397   .     S
C940   C978    1.404   .     A
C940   C1042   1.391   .     S
C941   N1026   1.359   .     A
C941   C943    1.436   .     A
C941   O1029   1.383   .     S
C942   O1030   1.391   .     S
C942   C944    1.442   .     A
C942   N1025   1.371   .     A
C943   N1025   1.383   .     A
C943   O1031   1.383   .     S
C944   O1032   1.391   .     S
C944   N1026   1.396   .     A
C945   O1038   1.306   .     A
C945   C947    1.473   .     S
C945   O1140   1.310   .     S
C946   O1039   1.304   .     A
C946   C949    1.478   .     S
C946   O1245   1.316   1_455 S
C947   C954    1.403   .     A
C947   C952    1.408   .     A
C948   O1033   1.303   .     A
C948   O1139   1.303   .     S
C949   C955    1.402   .     A
C949   C953    1.407   .     A
C950   H1020   1.083   .     S
C950   C952    1.394   .     A
C950   C958    1.398   .     A
C951   H1021   1.076   .     S
C951   C960    1.401   .     A
C951   C953    1.397   .     A
C952   O1132   1.381   .     S
C953   O1248   1.381   1_455 S
C954   C956    1.408   .     A
C954   H1016   1.079   .     S
C955   C957    1.402   .     A
C955   H1005   1.076   .     S
C956   C961    1.424   .     A
C956   C958    1.416   .     A
C957   C962    1.416   .     A
C957   C960    1.410   .     A
C958   C40     1.393   1_556 S
C959   C976    1.385   .     A
C959   C962    1.411   .     A
C959   H1022   1.080   .     S
C961   C970    1.416   .     A
C961   C26     1.423   1_556 S
C963   O1040   1.413   .     S
C963   H987    1.115   .     S
C963   H988    1.114   .     S
C963   C964    1.522   .     S
C964   H991    1.110   .     S
C964   H990    1.111   .     S
C964   H989    1.111   .     S
C965   C966    1.523   .     S
C965   H992    1.106   .     S
C965   O1028   1.419   .     S
C965   H1201   1.118   1_455 S
C966   H996    1.110   .     S
C966   H995    1.110   .     S
C966   H997    1.108   .     S
C967   H998    1.109   .     S
C967   H999    1.108   .     S
C967   O1029   1.411   .     S
C967   C968    1.520   .     S
C968   H1000   1.110   .     S
C968   H1002   1.111   .     S
C968   H1001   1.111   .     S
C969   O1030   1.414   .     S
C969   H1003   1.114   .     S
C969   C971    1.529   .     S
C969   H1004   1.105   .     S
C970   C977    1.392   .     A
C970   H1023   1.076   .     S
C971   H1006   1.110   .     S
C971   H1007   1.111   .     S
C971   H1008   1.106   .     S
C972   H1010   1.103   .     S
C972   C973    1.522   .     S
C972   O1031   1.422   .     S
C972   H1009   1.110   .     S
C973   H1011   1.107   .     S
C973   H1013   1.110   .     S
C973   H1636   1.111   1_545 S
C974   C975    1.536   .     S
C974   H1014   1.102   .     S
C974   H1015   1.111   .     S
C974   O1032   1.430   .     S
C975   H1017   1.105   .     S
C975   H1018   1.105   .     S
C975   H1019   1.107   .     S
C976   H983    1.082   .     S
C977   H994    1.084   .     S
C977   C24     1.394   1_556 S
C978   H1024   1.083   .     S
C978   C1604   1.389   1_545 S
C979   H984    1.074   .     S
C979   C1250   1.380   .     S
C979   C1147   1.397   1_455 S
C980   H985    1.083   .     S
C980   C1290   1.389   .     S
Cu981  O1039   1.940   .     S
Cu981  N1025   2.041   .     S
Cu981  O1035   1.956   .     S
Cu981  O1036   1.953   .     S
Cu981  O1027   1.962   .     S
Cu981  Cu1190  2.717   1_455 S
Cu982  O1038   1.940   .     S
Cu982  O1037   1.953   .     S
Cu982  O1033   1.962   .     S
Cu982  N1026   2.041   .     S
Cu982  O1034   1.956   .     S
Cu982  Cu1085  2.717   .     S
H993   C1069   1.118   .     S
H1012  C1285   1.111   .     S
O1027  C1145   1.311   1_455 S
O1028  C1160   1.381   1_455 S
O1035  C1156   1.303   1_455 S
O1036  C1153   1.310   1_455 S
O1037  C1050   1.316   .     S
O1040  C1057   1.381   .     S
C1041  O1138   1.293   .     A
C1041  C1044   1.446   .     S
C1041  O1235   1.311   .     S
C1042  H1090   1.077   .     S
C1042  C1707   1.380   1_545 S
C1043  C1052   1.449   .     S
C1043  C1084   1.400   .     A
C1043  C1187   1.397   .     S
C1044  C1082   1.404   .     A
C1044  C1146   1.391   .     S
C1045  N1130   1.359   .     A
C1045  C1047   1.436   .     A
C1045  O1133   1.383   .     S
C1046  O1134   1.391   .     S
C1046  C1048   1.442   .     A
C1046  N1129   1.371   .     A
C1047  N1129   1.383   .     A
C1047  O1135   1.383   .     S
C1048  O1136   1.391   .     S
C1048  N1130   1.396   .     A
C1049  O1142   1.306   .     A
C1049  C1051   1.473   .     S
C1049  O1244   1.310   .     S
C1050  O1143   1.304   .     A
C1050  C1053   1.478   .     S
C1051  C1058   1.403   .     A
C1051  C1056   1.408   .     A
C1052  O1137   1.303   .     A
C1052  O1243   1.303   .     S
C1053  C1059   1.402   .     A
C1053  C1057   1.407   .     A
C1054  H1124   1.083   .     S
C1054  C1056   1.394   .     A
C1054  C1062   1.398   .     A
C1055  H1125   1.076   .     S
C1055  C1064   1.401   .     A
C1055  C1057   1.397   .     A
C1056  O1236   1.381   .     S
C1058  C1060   1.408   .     A
C1058  H1120   1.079   .     S
C1059  C1061   1.402   .     A
C1059  H1109   1.076   .     S
C1060  C1065   1.424   .     A
C1060  C1062   1.416   .     A
C1061  C1066   1.416   .     A
C1061  C1064   1.410   .     A
C1062  C144    1.393   1_556 S
C1063  C1080   1.385   .     A
C1063  C1066   1.411   .     A
C1063  H1126   1.080   .     S
C1065  C1074   1.416   .     A
C1065  C130    1.423   1_556 S
C1067  O1144   1.413   .     S
C1067  H1091   1.115   .     S
C1067  H1092   1.114   .     S
C1067  C1068   1.522   .     S
C1068  H1095   1.110   .     S
C1068  H1094   1.111   .     S
C1068  H1093   1.111   .     S
C1069  C1070   1.523   .     S
C1069  H1096   1.106   .     S
C1069  O1132   1.419   .     S
C1070  H1100   1.110   .     S
C1070  H1099   1.110   .     S
C1070  H1101   1.108   .     S
C1071  H1102   1.109   .     S
C1071  H1103   1.108   .     S
C1071  O1133   1.411   .     S
C1071  C1072   1.520   .     S
C1072  H1104   1.110   .     S
C1072  H1106   1.111   .     S
C1072  H1105   1.111   .     S
C1073  O1134   1.414   .     S
C1073  H1107   1.114   .     S
C1073  C1075   1.529   .     S
C1073  H1108   1.105   .     S
C1074  C1081   1.392   .     A
C1074  H1127   1.076   .     S
C1075  H1110   1.110   .     S
C1075  H1111   1.111   .     S
C1075  H1112   1.106   .     S
C1076  H1114   1.103   .     S
C1076  C1077   1.522   .     S
C1076  O1135   1.422   .     S
C1076  H1113   1.110   .     S
C1077  H1115   1.107   .     S
C1077  H1117   1.110   .     S
C1077  H1740   1.111   1_545 S
C1078  C1079   1.536   .     S
C1078  H1118   1.102   .     S
C1078  H1119   1.111   .     S
C1078  O1136   1.430   .     S
C1079  H1121   1.105   .     S
C1079  H1122   1.105   .     S
C1079  H1123   1.107   .     S
C1080  H1087   1.082   .     S
C1081  H1098   1.084   .     S
C1081  C128    1.394   1_556 S
C1082  H1128   1.083   .     S
C1082  C1708   1.389   1_545 S
C1083  H1088   1.074   .     S
C1083  C1354   1.380   .     S
C1084  H1089   1.083   .     S
C1084  C1394   1.389   .     S
Cu1085 O1143   1.940   .     S
Cu1085 N1129   2.041   .     S
Cu1085 O1139   1.956   .     S
Cu1085 O1140   1.953   .     S
Cu1085 O1131   1.962   .     S
Cu1086 O1142   1.940   .     S
Cu1086 O1141   1.953   .     S
Cu1086 O1137   1.962   .     S
Cu1086 N1130   2.041   .     S
Cu1086 O1138   1.956   .     S
Cu1086 Cu1189  2.717   .     S
H1097  C1173   1.118   .     S
H1116  C1389   1.111   .     S
O1141  C1154   1.316   .     S
O1144  C1161   1.381   .     S
C1145  O1242   1.293   .     A
C1145  C1148   1.446   .     S
C1145  O1027   1.311   1_655 S
C1146  H1194   1.077   .     S
C1146  C1811   1.380   1_545 S
C1147  C1156   1.449   .     S
C1147  C1188   1.400   .     A
C1147  C979    1.397   1_655 S
C1148  C1186   1.404   .     A
C1148  C938    1.391   1_655 S
C1149  N1234   1.359   .     A
C1149  C1151   1.436   .     A
C1149  O1237   1.383   .     S
C1150  O1238   1.391   .     S
C1150  C1152   1.442   .     A
C1150  N1233   1.371   .     A
C1151  N1233   1.383   .     A
C1151  O1239   1.383   .     S
C1152  O1240   1.391   .     S
C1152  N1234   1.396   .     A
C1153  O1246   1.306   .     A
C1153  C1155   1.473   .     S
C1153  O1036   1.310   1_655 S
C1154  O1247   1.304   .     A
C1154  C1157   1.478   .     S
C1155  C1162   1.403   .     A
C1155  C1160   1.408   .     A
C1156  O1241   1.303   .     A
C1156  O1035   1.303   1_655 S
C1157  C1163   1.402   .     A
C1157  C1161   1.407   .     A
C1158  H1228   1.083   .     S
C1158  C1160   1.394   .     A
C1158  C1166   1.398   .     A
C1159  H1229   1.076   .     S
C1159  C1168   1.401   .     A
C1159  C1161   1.397   .     A
C1160  O1028   1.381   1_655 S
C1162  C1164   1.408   .     A
C1162  H1224   1.079   .     S
C1163  C1165   1.402   .     A
C1163  H1213   1.076   .     S
C1164  C1169   1.424   .     A
C1164  C1166   1.416   .     A
C1165  C1170   1.416   .     A
C1165  C1168   1.410   .     A
C1166  C248    1.393   1_556 S
C1167  C1184   1.385   .     A
C1167  C1170   1.411   .     A
C1167  H1230   1.080   .     S
C1169  C1178   1.416   .     A
C1169  C234    1.423   1_556 S
C1171  O1248   1.413   .     S
C1171  H1195   1.115   .     S
C1171  H1196   1.114   .     S
C1171  C1172   1.522   .     S
C1172  H1199   1.110   .     S
C1172  H1198   1.111   .     S
C1172  H1197   1.111   .     S
C1173  C1174   1.523   .     S
C1173  H1200   1.106   .     S
C1173  O1236   1.419   .     S
C1174  H1204   1.110   .     S
C1174  H1203   1.110   .     S
C1174  H1205   1.108   .     S
C1175  H1206   1.109   .     S
C1175  H1207   1.108   .     S
C1175  O1237   1.411   .     S
C1175  C1176   1.520   .     S
C1176  H1208   1.110   .     S
C1176  H1210   1.111   .     S
C1176  H1209   1.111   .     S
C1177  O1238   1.414   .     S
C1177  H1211   1.114   .     S
C1177  C1179   1.529   .     S
C1177  H1212   1.105   .     S
C1178  C1185   1.392   .     A
C1178  H1231   1.076   .     S
C1179  H1214   1.110   .     S
C1179  H1215   1.111   .     S
C1179  H1216   1.106   .     S
C1180  H1218   1.103   .     S
C1180  C1181   1.522   .     S
C1180  O1239   1.422   .     S
C1180  H1217   1.110   .     S
C1181  H1219   1.107   .     S
C1181  H1221   1.110   .     S
C1181  H1844   1.111   1_545 S
C1182  C1183   1.536   .     S
C1182  H1222   1.102   .     S
C1182  H1223   1.111   .     S
C1182  O1240   1.430   .     S
C1183  H1225   1.105   .     S
C1183  H1226   1.105   .     S
C1183  H1227   1.107   .     S
C1184  H1191   1.082   .     S
C1185  H1202   1.084   .     S
C1185  C232    1.394   1_556 S
C1186  H1232   1.083   .     S
C1186  C1812   1.389   1_545 S
C1187  H1192   1.074   .     S
C1187  C1458   1.380   .     S
C1188  H1193   1.083   .     S
C1188  C1498   1.389   .     S
Cu1189 O1247   1.940   .     S
Cu1189 N1233   2.041   .     S
Cu1189 O1243   1.956   .     S
Cu1189 O1244   1.953   .     S
Cu1189 O1235   1.962   .     S
Cu1190 O1246   1.940   .     S
Cu1190 O1245   1.953   .     S
Cu1190 O1241   1.962   .     S
Cu1190 N1234   2.041   .     S
Cu1190 O1242   1.956   .     S
Cu1190 Cu981   2.717   1_655 S
H1201  C965    1.118   1_655 S
H1220  C1493   1.111   .     S
O1245  C946    1.316   1_655 S
O1248  C953    1.381   1_655 S
C1249  O1346   1.293   .     A
C1249  C1252   1.446   .     S
C1249  O1443   1.311   .     S
C1250  H1298   1.077   .     S
C1250  C1460   1.391   1_455 S
C1251  C1260   1.449   .     S
C1251  C1292   1.400   .     A
C1251  C1395   1.397   .     S
C1252  C1290   1.404   .     A
C1252  C1354   1.391   .     S
C1253  N1338   1.359   .     A
C1253  C1255   1.436   .     A
C1253  O1341   1.383   .     S
C1254  O1342   1.391   .     S
C1254  C1256   1.442   .     A
C1254  N1337   1.371   .     A
C1255  N1337   1.383   .     A
C1255  O1343   1.383   .     S
C1256  O1344   1.391   .     S
C1256  N1338   1.396   .     A
C1257  O1350   1.306   .     A
C1257  C1259   1.473   .     S
C1257  O1452   1.310   .     S
C1258  O1351   1.304   .     A
C1258  C1261   1.478   .     S
C1258  O1557   1.316   1_455 S
C1259  C1266   1.403   .     A
C1259  C1264   1.408   .     A
C1260  O1345   1.303   .     A
C1260  O1451   1.303   .     S
C1261  C1267   1.402   .     A
C1261  C1265   1.407   .     A
C1262  H1332   1.083   .     S
C1262  C1264   1.394   .     A
C1262  C1270   1.398   .     A
C1263  H1333   1.076   .     S
C1263  C1272   1.401   .     A
C1263  C1265   1.397   .     A
C1264  O1444   1.381   .     S
C1265  O1560   1.381   1_455 S
C1266  C1268   1.408   .     A
C1266  H1328   1.079   .     S
C1267  C1269   1.402   .     A
C1267  H1317   1.076   .     S
C1268  C1273   1.424   .     A
C1268  C1270   1.416   .     A
C1269  C1274   1.416   .     A
C1269  C1272   1.410   .     A
C1270  C352    1.393   1_556 S
C1271  C1288   1.385   .     A
C1271  C1274   1.411   .     A
C1271  H1334   1.080   .     S
C1273  C1282   1.416   .     A
C1273  C338    1.423   1_556 S
C1275  O1352   1.413   .     S
C1275  H1299   1.115   .     S
C1275  H1300   1.114   .     S
C1275  C1276   1.522   .     S
C1276  H1303   1.110   .     S
C1276  H1302   1.111   .     S
C1276  H1301   1.111   .     S
C1277  C1278   1.523   .     S
C1277  H1304   1.106   .     S
C1277  O1340   1.419   .     S
C1277  H1513   1.118   1_455 S
C1278  H1308   1.110   .     S
C1278  H1307   1.110   .     S
C1278  H1309   1.108   .     S
C1279  H1310   1.109   .     S
C1279  H1311   1.108   .     S
C1279  O1341   1.411   .     S
C1279  C1280   1.520   .     S
C1280  H1312   1.110   .     S
C1280  H1314   1.111   .     S
C1280  H1313   1.111   .     S
C1281  O1342   1.414   .     S
C1281  H1315   1.114   .     S
C1281  C1283   1.529   .     S
C1281  H1316   1.105   .     S
C1282  C1289   1.392   .     A
C1282  H1335   1.076   .     S
C1283  H1318   1.110   .     S
C1283  H1319   1.111   .     S
C1283  H1320   1.106   .     S
C1284  H1322   1.103   .     S
C1284  C1285   1.522   .     S
C1284  O1343   1.422   .     S
C1284  H1321   1.110   .     S
C1285  H1323   1.107   .     S
C1285  H1325   1.110   .     S
C1286  C1287   1.536   .     S
C1286  H1326   1.102   .     S
C1286  H1327   1.111   .     S
C1286  O1344   1.430   .     S
C1287  H1329   1.105   .     S
C1287  H1330   1.105   .     S
C1287  H1331   1.107   .     S
C1288  H1295   1.082   .     S
C1289  H1306   1.084   .     S
C1289  C336    1.394   1_556 S
C1290  H1336   1.083   .     S
C1291  H1296   1.074   .     S
C1291  C1562   1.380   .     S
C1291  C1459   1.397   1_455 S
C1292  H1297   1.083   .     S
C1292  C1602   1.389   .     S
Cu1293 O1351   1.940   .     S
Cu1293 N1337   2.041   .     S
Cu1293 O1347   1.956   .     S
Cu1293 O1348   1.953   .     S
Cu1293 O1339   1.962   .     S
Cu1293 Cu1502  2.717   1_455 S
Cu1294 O1350   1.940   .     S
Cu1294 O1349   1.953   .     S
Cu1294 O1345   1.962   .     S
Cu1294 N1338   2.041   .     S
Cu1294 O1346   1.956   .     S
Cu1294 Cu1397  2.717   .     S
H1305  C1381   1.118   .     S
H1324  C1597   1.111   .     S
O1339  C1457   1.311   1_455 S
O1340  C1472   1.381   1_455 S
O1347  C1468   1.303   1_455 S
O1348  C1465   1.310   1_455 S
O1349  C1362   1.316   .     S
O1352  C1369   1.381   .     S
C1353  O1450   1.293   .     A
C1353  C1356   1.446   .     S
C1353  O1547   1.311   .     S
C1354  H1402   1.077   .     S
C1355  C1364   1.449   .     S
C1355  C1396   1.400   .     A
C1355  C1499   1.397   .     S
C1356  C1394   1.404   .     A
C1356  C1458   1.391   .     S
C1357  N1442   1.359   .     A
C1357  C1359   1.436   .     A
C1357  O1445   1.383   .     S
C1358  O1446   1.391   .     S
C1358  C1360   1.442   .     A
C1358  N1441   1.371   .     A
C1359  N1441   1.383   .     A
C1359  O1447   1.383   .     S
C1360  O1448   1.391   .     S
C1360  N1442   1.396   .     A
C1361  O1454   1.306   .     A
C1361  C1363   1.473   .     S
C1361  O1556   1.310   .     S
C1362  O1455   1.304   .     A
C1362  C1365   1.478   .     S
C1363  C1370   1.403   .     A
C1363  C1368   1.408   .     A
C1364  O1449   1.303   .     A
C1364  O1555   1.303   .     S
C1365  C1371   1.402   .     A
C1365  C1369   1.407   .     A
C1366  H1436   1.083   .     S
C1366  C1368   1.394   .     A
C1366  C1374   1.398   .     A
C1367  H1437   1.076   .     S
C1367  C1376   1.401   .     A
C1367  C1369   1.397   .     A
C1368  O1548   1.381   .     S
C1370  C1372   1.408   .     A
C1370  H1432   1.079   .     S
C1371  C1373   1.402   .     A
C1371  H1421   1.076   .     S
C1372  C1377   1.424   .     A
C1372  C1374   1.416   .     A
C1373  C1378   1.416   .     A
C1373  C1376   1.410   .     A
C1374  C456    1.393   1_556 S
C1375  C1392   1.385   .     A
C1375  C1378   1.411   .     A
C1375  H1438   1.080   .     S
C1377  C1386   1.416   .     A
C1377  C442    1.423   1_556 S
C1379  O1456   1.413   .     S
C1379  H1403   1.115   .     S
C1379  H1404   1.114   .     S
C1379  C1380   1.522   .     S
C1380  H1407   1.110   .     S
C1380  H1406   1.111   .     S
C1380  H1405   1.111   .     S
C1381  C1382   1.523   .     S
C1381  H1408   1.106   .     S
C1381  O1444   1.419   .     S
C1382  H1412   1.110   .     S
C1382  H1411   1.110   .     S
C1382  H1413   1.108   .     S
C1383  H1414   1.109   .     S
C1383  H1415   1.108   .     S
C1383  O1445   1.411   .     S
C1383  C1384   1.520   .     S
C1384  H1416   1.110   .     S
C1384  H1418   1.111   .     S
C1384  H1417   1.111   .     S
C1385  O1446   1.414   .     S
C1385  H1419   1.114   .     S
C1385  C1387   1.529   .     S
C1385  H1420   1.105   .     S
C1386  C1393   1.392   .     A
C1386  H1439   1.076   .     S
C1387  H1422   1.110   .     S
C1387  H1423   1.111   .     S
C1387  H1424   1.106   .     S
C1388  H1426   1.103   .     S
C1388  C1389   1.522   .     S
C1388  O1447   1.422   .     S
C1388  H1425   1.110   .     S
C1389  H1427   1.107   .     S
C1389  H1429   1.110   .     S
C1390  C1391   1.536   .     S
C1390  H1430   1.102   .     S
C1390  H1431   1.111   .     S
C1390  O1448   1.430   .     S
C1391  H1433   1.105   .     S
C1391  H1434   1.105   .     S
C1391  H1435   1.107   .     S
C1392  H1399   1.082   .     S
C1393  H1410   1.084   .     S
C1393  C440    1.394   1_556 S
C1394  H1440   1.083   .     S
C1395  H1400   1.074   .     S
C1395  C1666   1.380   .     S
C1396  H1401   1.083   .     S
C1396  C1706   1.389   .     S
Cu1397 O1455   1.940   .     S
Cu1397 N1441   2.041   .     S
Cu1397 O1451   1.956   .     S
Cu1397 O1452   1.953   .     S
Cu1397 O1443   1.962   .     S
Cu1398 O1454   1.940   .     S
Cu1398 O1453   1.953   .     S
Cu1398 O1449   1.962   .     S
Cu1398 N1442   2.041   .     S
Cu1398 O1450   1.956   .     S
Cu1398 Cu1501  2.717   .     S
H1409  C1485   1.118   .     S
H1428  C1701   1.111   .     S
O1453  C1466   1.316   .     S
O1456  C1473   1.381   .     S
C1457  O1554   1.293   .     A
C1457  C1460   1.446   .     S
C1457  O1339   1.311   1_655 S
C1458  H1506   1.077   .     S
C1459  C1468   1.449   .     S
C1459  C1500   1.400   .     A
C1459  C1291   1.397   1_655 S
C1460  C1498   1.404   .     A
C1460  C1250   1.391   1_655 S
C1461  N1546   1.359   .     A
C1461  C1463   1.436   .     A
C1461  O1549   1.383   .     S
C1462  O1550   1.391   .     S
C1462  C1464   1.442   .     A
C1462  N1545   1.371   .     A
C1463  N1545   1.383   .     A
C1463  O1551   1.383   .     S
C1464  O1552   1.391   .     S
C1464  N1546   1.396   .     A
C1465  O1558   1.306   .     A
C1465  C1467   1.473   .     S
C1465  O1348   1.310   1_655 S
C1466  O1559   1.304   .     A
C1466  C1469   1.478   .     S
C1467  C1474   1.403   .     A
C1467  C1472   1.408   .     A
C1468  O1553   1.303   .     A
C1468  O1347   1.303   1_655 S
C1469  C1475   1.402   .     A
C1469  C1473   1.407   .     A
C1470  H1540   1.083   .     S
C1470  C1472   1.394   .     A
C1470  C1478   1.398   .     A
C1471  H1541   1.076   .     S
C1471  C1480   1.401   .     A
C1471  C1473   1.397   .     A
C1472  O1340   1.381   1_655 S
C1474  C1476   1.408   .     A
C1474  H1536   1.079   .     S
C1475  C1477   1.402   .     A
C1475  H1525   1.076   .     S
C1476  C1481   1.424   .     A
C1476  C1478   1.416   .     A
C1477  C1482   1.416   .     A
C1477  C1480   1.410   .     A
C1478  C560    1.393   1_556 S
C1479  C1496   1.385   .     A
C1479  C1482   1.411   .     A
C1479  H1542   1.080   .     S
C1481  C1490   1.416   .     A
C1481  C546    1.423   1_556 S
C1483  O1560   1.413   .     S
C1483  H1507   1.115   .     S
C1483  H1508   1.114   .     S
C1483  C1484   1.522   .     S
C1484  H1511   1.110   .     S
C1484  H1510   1.111   .     S
C1484  H1509   1.111   .     S
C1485  C1486   1.523   .     S
C1485  H1512   1.106   .     S
C1485  O1548   1.419   .     S
C1486  H1516   1.110   .     S
C1486  H1515   1.110   .     S
C1486  H1517   1.108   .     S
C1487  H1518   1.109   .     S
C1487  H1519   1.108   .     S
C1487  O1549   1.411   .     S
C1487  C1488   1.520   .     S
C1488  H1520   1.110   .     S
C1488  H1522   1.111   .     S
C1488  H1521   1.111   .     S
C1489  O1550   1.414   .     S
C1489  H1523   1.114   .     S
C1489  C1491   1.529   .     S
C1489  H1524   1.105   .     S
C1490  C1497   1.392   .     A
C1490  H1543   1.076   .     S
C1491  H1526   1.110   .     S
C1491  H1527   1.111   .     S
C1491  H1528   1.106   .     S
C1492  H1530   1.103   .     S
C1492  C1493   1.522   .     S
C1492  O1551   1.422   .     S
C1492  H1529   1.110   .     S
C1493  H1531   1.107   .     S
C1493  H1533   1.110   .     S
C1494  C1495   1.536   .     S
C1494  H1534   1.102   .     S
C1494  H1535   1.111   .     S
C1494  O1552   1.430   .     S
C1495  H1537   1.105   .     S
C1495  H1538   1.105   .     S
C1495  H1539   1.107   .     S
C1496  H1503   1.082   .     S
C1497  H1514   1.084   .     S
C1497  C544    1.394   1_556 S
C1498  H1544   1.083   .     S
C1499  H1504   1.074   .     S
C1499  C1770   1.380   .     S
C1500  H1505   1.083   .     S
C1500  C1810   1.389   .     S
Cu1501 O1559   1.940   .     S
Cu1501 N1545   2.041   .     S
Cu1501 O1555   1.956   .     S
Cu1501 O1556   1.953   .     S
Cu1501 O1547   1.962   .     S
Cu1502 O1558   1.940   .     S
Cu1502 O1557   1.953   .     S
Cu1502 O1553   1.962   .     S
Cu1502 N1546   2.041   .     S
Cu1502 O1554   1.956   .     S
Cu1502 Cu1293  2.717   1_655 S
H1513  C1277   1.118   1_655 S
H1532  C1805   1.111   .     S
O1557  C1258   1.316   1_655 S
O1560  C1265   1.381   1_655 S
C1561  O1658   1.293   .     A
C1561  C1564   1.446   .     S
C1561  O1755   1.311   .     S
C1562  H1610   1.077   .     S
C1562  C1772   1.391   1_455 S
C1563  C1572   1.449   .     S
C1563  C1604   1.400   .     A
C1563  C1707   1.397   .     S
C1564  C1602   1.404   .     A
C1564  C1666   1.391   .     S
C1565  N1650   1.359   .     A
C1565  C1567   1.436   .     A
C1565  O1653   1.383   .     S
C1566  O1654   1.391   .     S
C1566  C1568   1.442   .     A
C1566  N1649   1.371   .     A
C1567  N1649   1.383   .     A
C1567  O1655   1.383   .     S
C1568  O1656   1.391   .     S
C1568  N1650   1.396   .     A
C1569  O1662   1.306   .     A
C1569  C1571   1.473   .     S
C1569  O1764   1.310   .     S
C1570  O1663   1.304   .     A
C1570  C1573   1.478   .     S
C1570  O1869   1.316   1_455 S
C1571  C1578   1.403   .     A
C1571  C1576   1.408   .     A
C1572  O1657   1.303   .     A
C1572  O1763   1.303   .     S
C1573  C1579   1.402   .     A
C1573  C1577   1.407   .     A
C1574  H1644   1.083   .     S
C1574  C1576   1.394   .     A
C1574  C1582   1.398   .     A
C1575  H1645   1.076   .     S
C1575  C1584   1.401   .     A
C1575  C1577   1.397   .     A
C1576  O1756   1.381   .     S
C1577  O1872   1.381   1_455 S
C1578  C1580   1.408   .     A
C1578  H1640   1.079   .     S
C1579  C1581   1.402   .     A
C1579  H1629   1.076   .     S
C1580  C1585   1.424   .     A
C1580  C1582   1.416   .     A
C1581  C1586   1.416   .     A
C1581  C1584   1.410   .     A
C1582  C664    1.393   1_556 S
C1583  C1600   1.385   .     A
C1583  C1586   1.411   .     A
C1583  H1646   1.080   .     S
C1585  C1594   1.416   .     A
C1585  C650    1.423   1_556 S
C1587  O1664   1.413   .     S
C1587  H1611   1.115   .     S
C1587  H1612   1.114   .     S
C1587  C1588   1.522   .     S
C1588  H1615   1.110   .     S
C1588  H1614   1.111   .     S
C1588  H1613   1.111   .     S
C1589  C1590   1.523   .     S
C1589  H1616   1.106   .     S
C1589  O1652   1.419   .     S
C1589  H1825   1.118   1_455 S
C1590  H1620   1.110   .     S
C1590  H1619   1.110   .     S
C1590  H1621   1.108   .     S
C1591  H1622   1.109   .     S
C1591  H1623   1.108   .     S
C1591  O1653   1.411   .     S
C1591  C1592   1.520   .     S
C1592  H1624   1.110   .     S
C1592  H1626   1.111   .     S
C1592  H1625   1.111   .     S
C1593  O1654   1.414   .     S
C1593  H1627   1.114   .     S
C1593  C1595   1.529   .     S
C1593  H1628   1.105   .     S
C1594  C1601   1.392   .     A
C1594  H1647   1.076   .     S
C1595  H1630   1.110   .     S
C1595  H1631   1.111   .     S
C1595  H1632   1.106   .     S
C1596  H1634   1.103   .     S
C1596  C1597   1.522   .     S
C1596  O1655   1.422   .     S
C1596  H1633   1.110   .     S
C1597  H1635   1.107   .     S
C1597  H1637   1.110   .     S
C1598  C1599   1.536   .     S
C1598  H1638   1.102   .     S
C1598  H1639   1.111   .     S
C1598  O1656   1.430   .     S
C1599  H1641   1.105   .     S
C1599  H1642   1.105   .     S
C1599  H1643   1.107   .     S
C1600  H1607   1.082   .     S
C1601  H1618   1.084   .     S
C1601  C648    1.394   1_556 S
C1602  H1648   1.083   .     S
C1603  H1608   1.074   .     S
C1603  C938    1.380   1_565 S
C1603  C1771   1.397   1_455 S
C1604  H1609   1.083   .     S
C1604  C978    1.389   1_565 S
Cu1605 O1663   1.940   .     S
Cu1605 N1649   2.041   .     S
Cu1605 O1659   1.956   .     S
Cu1605 O1660   1.953   .     S
Cu1605 O1651   1.962   .     S
Cu1605 Cu1814  2.717   1_455 S
Cu1606 O1662   1.940   .     S
Cu1606 O1661   1.953   .     S
Cu1606 O1657   1.962   .     S
Cu1606 N1650   2.041   .     S
Cu1606 O1658   1.956   .     S
Cu1606 Cu1709  2.717   .     S
H1617  C1693   1.118   .     S
H1636  C973    1.111   1_565 S
O1651  C1769   1.311   1_455 S
O1652  C1784   1.381   1_455 S
O1659  C1780   1.303   1_455 S
O1660  C1777   1.310   1_455 S
O1661  C1674   1.316   .     S
O1664  C1681   1.381   .     S
C1665  O1762   1.293   .     A
C1665  C1668   1.446   .     S
C1665  O1859   1.311   .     S
C1666  H1714   1.077   .     S
C1667  C1676   1.449   .     S
C1667  C1708   1.400   .     A
C1667  C1811   1.397   .     S
C1668  C1706   1.404   .     A
C1668  C1770   1.391   .     S
C1669  N1754   1.359   .     A
C1669  C1671   1.436   .     A
C1669  O1757   1.383   .     S
C1670  O1758   1.391   .     S
C1670  C1672   1.442   .     A
C1670  N1753   1.371   .     A
C1671  N1753   1.383   .     A
C1671  O1759   1.383   .     S
C1672  O1760   1.391   .     S
C1672  N1754   1.396   .     A
C1673  O1766   1.306   .     A
C1673  C1675   1.473   .     S
C1673  O1868   1.310   .     S
C1674  O1767   1.304   .     A
C1674  C1677   1.478   .     S
C1675  C1682   1.403   .     A
C1675  C1680   1.408   .     A
C1676  O1761   1.303   .     A
C1676  O1867   1.303   .     S
C1677  C1683   1.402   .     A
C1677  C1681   1.407   .     A
C1678  H1748   1.083   .     S
C1678  C1680   1.394   .     A
C1678  C1686   1.398   .     A
C1679  H1749   1.076   .     S
C1679  C1688   1.401   .     A
C1679  C1681   1.397   .     A
C1680  O1860   1.381   .     S
C1682  C1684   1.408   .     A
C1682  H1744   1.079   .     S
C1683  C1685   1.402   .     A
C1683  H1733   1.076   .     S
C1684  C1689   1.424   .     A
C1684  C1686   1.416   .     A
C1685  C1690   1.416   .     A
C1685  C1688   1.410   .     A
C1686  C768    1.393   1_556 S
C1687  C1704   1.385   .     A
C1687  C1690   1.411   .     A
C1687  H1750   1.080   .     S
C1689  C1698   1.416   .     A
C1689  C754    1.423   1_556 S
C1691  O1768   1.413   .     S
C1691  H1715   1.115   .     S
C1691  H1716   1.114   .     S
C1691  C1692   1.522   .     S
C1692  H1719   1.110   .     S
C1692  H1718   1.111   .     S
C1692  H1717   1.111   .     S
C1693  C1694   1.523   .     S
C1693  H1720   1.106   .     S
C1693  O1756   1.419   .     S
C1694  H1724   1.110   .     S
C1694  H1723   1.110   .     S
C1694  H1725   1.108   .     S
C1695  H1726   1.109   .     S
C1695  H1727   1.108   .     S
C1695  O1757   1.411   .     S
C1695  C1696   1.520   .     S
C1696  H1728   1.110   .     S
C1696  H1730   1.111   .     S
C1696  H1729   1.111   .     S
C1697  O1758   1.414   .     S
C1697  H1731   1.114   .     S
C1697  C1699   1.529   .     S
C1697  H1732   1.105   .     S
C1698  C1705   1.392   .     A
C1698  H1751   1.076   .     S
C1699  H1734   1.110   .     S
C1699  H1735   1.111   .     S
C1699  H1736   1.106   .     S
C1700  H1738   1.103   .     S
C1700  C1701   1.522   .     S
C1700  O1759   1.422   .     S
C1700  H1737   1.110   .     S
C1701  H1739   1.107   .     S
C1701  H1741   1.110   .     S
C1702  C1703   1.536   .     S
C1702  H1742   1.102   .     S
C1702  H1743   1.111   .     S
C1702  O1760   1.430   .     S
C1703  H1745   1.105   .     S
C1703  H1746   1.105   .     S
C1703  H1747   1.107   .     S
C1704  H1711   1.082   .     S
C1705  H1722   1.084   .     S
C1705  C752    1.394   1_556 S
C1706  H1752   1.083   .     S
C1707  H1712   1.074   .     S
C1707  C1042   1.380   1_565 S
C1708  H1713   1.083   .     S
C1708  C1082   1.389   1_565 S
Cu1709 O1767   1.940   .     S
Cu1709 N1753   2.041   .     S
Cu1709 O1763   1.956   .     S
Cu1709 O1764   1.953   .     S
Cu1709 O1755   1.962   .     S
Cu1710 O1766   1.940   .     S
Cu1710 O1765   1.953   .     S
Cu1710 O1761   1.962   .     S
Cu1710 N1754   2.041   .     S
Cu1710 O1762   1.956   .     S
Cu1710 Cu1813  2.717   .     S
H1721  C1797   1.118   .     S
H1740  C1077   1.111   1_565 S
O1765  C1778   1.316   .     S
O1768  C1785   1.381   .     S
C1769  O1866   1.293   .     A
C1769  C1772   1.446   .     S
C1769  O1651   1.311   1_655 S
C1770  H1818   1.077   .     S
C1771  C1780   1.449   .     S
C1771  C1812   1.400   .     A
C1771  C1603   1.397   1_655 S
C1772  C1810   1.404   .     A
C1772  C1562   1.391   1_655 S
C1773  N1858   1.359   .     A
C1773  C1775   1.436   .     A
C1773  O1861   1.383   .     S
C1774  O1862   1.391   .     S
C1774  C1776   1.442   .     A
C1774  N1857   1.371   .     A
C1775  N1857   1.383   .     A
C1775  O1863   1.383   .     S
C1776  O1864   1.391   .     S
C1776  N1858   1.396   .     A
C1777  O1870   1.306   .     A
C1777  C1779   1.473   .     S
C1777  O1660   1.310   1_655 S
C1778  O1871   1.304   .     A
C1778  C1781   1.478   .     S
C1779  C1786   1.403   .     A
C1779  C1784   1.408   .     A
C1780  O1865   1.303   .     A
C1780  O1659   1.303   1_655 S
C1781  C1787   1.402   .     A
C1781  C1785   1.407   .     A
C1782  H1852   1.083   .     S
C1782  C1784   1.394   .     A
C1782  C1790   1.398   .     A
C1783  H1853   1.076   .     S
C1783  C1792   1.401   .     A
C1783  C1785   1.397   .     A
C1784  O1652   1.381   1_655 S
C1786  C1788   1.408   .     A
C1786  H1848   1.079   .     S
C1787  C1789   1.402   .     A
C1787  H1837   1.076   .     S
C1788  C1793   1.424   .     A
C1788  C1790   1.416   .     A
C1789  C1794   1.416   .     A
C1789  C1792   1.410   .     A
C1790  C872    1.393   1_556 S
C1791  C1808   1.385   .     A
C1791  C1794   1.411   .     A
C1791  H1854   1.080   .     S
C1793  C1802   1.416   .     A
C1793  C858    1.423   1_556 S
C1795  O1872   1.413   .     S
C1795  H1819   1.115   .     S
C1795  H1820   1.114   .     S
C1795  C1796   1.522   .     S
C1796  H1823   1.110   .     S
C1796  H1822   1.111   .     S
C1796  H1821   1.111   .     S
C1797  C1798   1.523   .     S
C1797  H1824   1.106   .     S
C1797  O1860   1.419   .     S
C1798  H1828   1.110   .     S
C1798  H1827   1.110   .     S
C1798  H1829   1.108   .     S
C1799  H1830   1.109   .     S
C1799  H1831   1.108   .     S
C1799  O1861   1.411   .     S
C1799  C1800   1.520   .     S
C1800  H1832   1.110   .     S
C1800  H1834   1.111   .     S
C1800  H1833   1.111   .     S
C1801  O1862   1.414   .     S
C1801  H1835   1.114   .     S
C1801  C1803   1.529   .     S
C1801  H1836   1.105   .     S
C1802  C1809   1.392   .     A
C1802  H1855   1.076   .     S
C1803  H1838   1.110   .     S
C1803  H1839   1.111   .     S
C1803  H1840   1.106   .     S
C1804  H1842   1.103   .     S
C1804  C1805   1.522   .     S
C1804  O1863   1.422   .     S
C1804  H1841   1.110   .     S
C1805  H1843   1.107   .     S
C1805  H1845   1.110   .     S
C1806  C1807   1.536   .     S
C1806  H1846   1.102   .     S
C1806  H1847   1.111   .     S
C1806  O1864   1.430   .     S
C1807  H1849   1.105   .     S
C1807  H1850   1.105   .     S
C1807  H1851   1.107   .     S
C1808  H1815   1.082   .     S
C1809  H1826   1.084   .     S
C1809  C856    1.394   1_556 S
C1810  H1856   1.083   .     S
C1811  H1816   1.074   .     S
C1811  C1146   1.380   1_565 S
C1812  H1817   1.083   .     S
C1812  C1186   1.389   1_565 S
Cu1813 O1871   1.940   .     S
Cu1813 N1857   2.041   .     S
Cu1813 O1867   1.956   .     S
Cu1813 O1868   1.953   .     S
Cu1813 O1859   1.962   .     S
Cu1814 O1870   1.940   .     S
Cu1814 O1869   1.953   .     S
Cu1814 O1865   1.962   .     S
Cu1814 N1858   2.041   .     S
Cu1814 O1866   1.956   .     S
Cu1814 Cu1605  2.717   1_655 S
H1825  C1589   1.118   1_655 S
H1844  C1181   1.111   1_565 S
O1869  C1570   1.316   1_655 S
O1872  C1577   1.381   1_655 S
