data_str_m2_o5_o17_pcu_sym.9
_audit_creation_date              2020-01-03
_audit_creation_method            'Materials Studio'
_symmetry_space_group_name_H-M    'P1'
_symmetry_Int_Tables_number       1
_symmetry_cell_setting            triclinic
loop_
_symmetry_equiv_pos_as_xyz
  x,y,z
_cell_length_a                    30.2076
_cell_length_b                    27.2212
_cell_length_c                    23.3791
_cell_angle_alpha                 90.0604
_cell_angle_beta                  89.9447
_cell_angle_gamma                 89.8729
loop_
_atom_site_label
_atom_site_type_symbol
_atom_site_fract_x
_atom_site_fract_y
_atom_site_fract_z
_atom_site_U_iso_or_equiv
_atom_site_adp_type
_atom_site_occupancy
O1     O     0.25000   0.09613   0.21425   0.00000  Uiso   1.00
O2     O     0.25000   0.23720   0.11908   0.00000  Uiso   1.00
O3     O     0.25000   0.23720   0.21425   0.00000  Uiso   1.00
O4     O     0.25000   0.09613   0.11908   0.00000  Uiso   1.00
C5     C     0.25001   0.07336   0.16665   0.00000  Uiso   1.00
C6     C     0.24999   0.25997   0.16668   0.00000  Uiso   1.00
O7     O     0.18513   0.16667   0.21427   0.00000  Uiso   1.00
O8     O     0.31487   0.16667   0.11907   0.00000  Uiso   1.00
O9     O     0.31487   0.16667   0.21427   0.00000  Uiso   1.00
O10    O     0.18513   0.16667   0.11907   0.00000  Uiso   1.00
C11    C     0.16443   0.16628   0.16671   0.00000  Uiso   1.00
C12    C     0.33557   0.16707   0.16664   0.00000  Uiso   1.00
Cu13   Cu    0.25000   0.16667   0.22303   0.00000  Uiso   1.00
Cu14   Cu    0.25000   0.16667   0.11031   0.00000  Uiso   1.00
N15    N     0.25000   0.16667   0.02561   0.00000  Uiso   1.00
N16    N     0.25000   0.16667   0.30773   0.00000  Uiso   1.00
C17    C     0.40614   0.20929   0.14845   0.00000  Uiso   1.00
C18    C     0.09375   0.12457   0.18544   0.00000  Uiso   1.00
C19    C     0.40591   0.12575   0.18610   0.00000  Uiso   1.00
C20    C     0.09420   0.20814   0.14792   0.00000  Uiso   1.00
C21    C     0.38366   0.16731   0.16667   0.00000  Uiso   1.00
C22    C     0.11635   0.16632   0.16682   0.00000  Uiso   1.00
C23    C     0.45283   0.12590   0.18939   0.00000  Uiso   1.00
C24    C     0.04721   0.20848   0.14555   0.00000  Uiso   1.00
C25    C     0.45298   0.20912   0.14611   0.00000  Uiso   1.00
C26    C     0.04698   0.12524   0.18877   0.00000  Uiso   1.00
C27    C     0.47646   0.16736   0.16761   0.00000  Uiso   1.00
C28    C     0.02354   0.16704   0.16732   0.00000  Uiso   1.00
C29    C     0.47668   0.08628   0.21388   0.00000  Uiso   1.00
C30    C     0.02334   0.24860   0.12218   0.00000  Uiso   1.00
C31    C     0.47712   0.24902   0.12242   0.00000  Uiso   1.00
C32    C     0.02288   0.08585   0.21363   0.00000  Uiso   1.00
C33    C     0.25000   0.02181   0.16664   0.00000  Uiso   1.00
C34    C     0.25000   0.31153   0.16669   0.00000  Uiso   1.00
N35    N     0.45432   0.04624   0.24147   0.00000  Uiso   1.00
H36    H     0.46377   0.04511   0.28448   0.00000  Uiso   1.00
H37    H     0.46371   0.01330   0.22178   0.00000  Uiso   1.00
N38    N     0.04567   0.28934   0.09600   0.00000  Uiso   1.00
H39    H     0.03629   0.32176   0.11684   0.00000  Uiso   1.00
H40    H     0.03621   0.29159   0.05305   0.00000  Uiso   1.00
N41    N     0.45623   0.29056   0.09567   0.00000  Uiso   1.00
H42    H     0.43948   0.31168   0.12613   0.00000  Uiso   1.00
H43    H     0.43563   0.27888   0.06246   0.00000  Uiso   1.00
N44    N     0.04385   0.04515   0.24198   0.00000  Uiso   1.00
H45    H     0.06501   0.05786   0.27408   0.00000  Uiso   1.00
H46    H     0.06007   0.02278   0.21226   0.00000  Uiso   1.00
N47    N     0.38090   0.25245   0.13445   0.00000  Uiso   1.00
H48    H     0.36025   0.24483   0.09973   0.00000  Uiso   1.00
H49    H     0.36152   0.26251   0.16968   0.00000  Uiso   1.00
N50    N     0.11872   0.08099   0.19847   0.00000  Uiso   1.00
H51    H     0.13750   0.07093   0.16270   0.00000  Uiso   1.00
H52    H     0.13996   0.08812   0.23274   0.00000  Uiso   1.00
N53    N     0.37931   0.08366   0.20008   0.00000  Uiso   1.00
H54    H     0.37983   0.07743   0.24416   0.00000  Uiso   1.00
H55    H     0.38984   0.05308   0.17659   0.00000  Uiso   1.00
N56    N     0.12103   0.24986   0.13316   0.00000  Uiso   1.00
H57    H     0.11157   0.28044   0.15738   0.00000  Uiso   1.00
H58    H     0.11947   0.25639   0.08918   0.00000  Uiso   1.00
O59    O     0.75000   0.09613   0.21425   0.00000  Uiso   1.00
O60    O     0.75000   0.23720   0.11908   0.00000  Uiso   1.00
O61    O     0.75000   0.23720   0.21425   0.00000  Uiso   1.00
O62    O     0.75000   0.09613   0.11908   0.00000  Uiso   1.00
C63    C     0.75001   0.07336   0.16665   0.00000  Uiso   1.00
C64    C     0.74999   0.25997   0.16668   0.00000  Uiso   1.00
O65    O     0.68513   0.16667   0.21427   0.00000  Uiso   1.00
O66    O     0.81487   0.16667   0.11907   0.00000  Uiso   1.00
O67    O     0.81487   0.16667   0.21427   0.00000  Uiso   1.00
O68    O     0.68513   0.16667   0.11907   0.00000  Uiso   1.00
C69    C     0.66443   0.16628   0.16671   0.00000  Uiso   1.00
C70    C     0.83557   0.16707   0.16664   0.00000  Uiso   1.00
Cu71   Cu    0.75000   0.16667   0.22303   0.00000  Uiso   1.00
Cu72   Cu    0.75000   0.16667   0.11031   0.00000  Uiso   1.00
N73    N     0.75000   0.16667   0.02561   0.00000  Uiso   1.00
N74    N     0.75000   0.16667   0.30773   0.00000  Uiso   1.00
C75    C     0.90614   0.20929   0.14845   0.00000  Uiso   1.00
C76    C     0.59375   0.12457   0.18544   0.00000  Uiso   1.00
C77    C     0.90591   0.12575   0.18610   0.00000  Uiso   1.00
C78    C     0.59420   0.20814   0.14792   0.00000  Uiso   1.00
C79    C     0.88366   0.16731   0.16667   0.00000  Uiso   1.00
C80    C     0.61635   0.16632   0.16682   0.00000  Uiso   1.00
C81    C     0.95283   0.12590   0.18939   0.00000  Uiso   1.00
C82    C     0.54721   0.20848   0.14555   0.00000  Uiso   1.00
C83    C     0.95298   0.20912   0.14611   0.00000  Uiso   1.00
C84    C     0.54698   0.12524   0.18877   0.00000  Uiso   1.00
C85    C     0.97646   0.16736   0.16761   0.00000  Uiso   1.00
C86    C     0.52354   0.16704   0.16732   0.00000  Uiso   1.00
C87    C     0.97668   0.08628   0.21388   0.00000  Uiso   1.00
C88    C     0.52334   0.24860   0.12218   0.00000  Uiso   1.00
C89    C     0.97712   0.24902   0.12242   0.00000  Uiso   1.00
C90    C     0.52288   0.08585   0.21363   0.00000  Uiso   1.00
C91    C     0.75000   0.02181   0.16664   0.00000  Uiso   1.00
C92    C     0.75000   0.31153   0.16669   0.00000  Uiso   1.00
N93    N     0.95432   0.04624   0.24147   0.00000  Uiso   1.00
H94    H     0.96377   0.04511   0.28448   0.00000  Uiso   1.00
H95    H     0.96371   0.01330   0.22178   0.00000  Uiso   1.00
N96    N     0.54567   0.28934   0.09600   0.00000  Uiso   1.00
H97    H     0.53629   0.32176   0.11684   0.00000  Uiso   1.00
H98    H     0.53621   0.29159   0.05305   0.00000  Uiso   1.00
N99    N     0.95623   0.29056   0.09567   0.00000  Uiso   1.00
H100   H     0.93948   0.31168   0.12613   0.00000  Uiso   1.00
H101   H     0.93563   0.27888   0.06246   0.00000  Uiso   1.00
N102   N     0.54385   0.04515   0.24198   0.00000  Uiso   1.00
H103   H     0.56501   0.05786   0.27408   0.00000  Uiso   1.00
H104   H     0.56007   0.02278   0.21226   0.00000  Uiso   1.00
N105   N     0.88090   0.25245   0.13445   0.00000  Uiso   1.00
H106   H     0.86025   0.24483   0.09973   0.00000  Uiso   1.00
H107   H     0.86152   0.26251   0.16968   0.00000  Uiso   1.00
N108   N     0.61872   0.08099   0.19847   0.00000  Uiso   1.00
H109   H     0.63750   0.07093   0.16270   0.00000  Uiso   1.00
H110   H     0.63996   0.08812   0.23274   0.00000  Uiso   1.00
N111   N     0.87931   0.08366   0.20008   0.00000  Uiso   1.00
H112   H     0.87983   0.07743   0.24416   0.00000  Uiso   1.00
H113   H     0.88984   0.05308   0.17659   0.00000  Uiso   1.00
N114   N     0.62103   0.24986   0.13316   0.00000  Uiso   1.00
H115   H     0.61157   0.28044   0.15738   0.00000  Uiso   1.00
H116   H     0.61947   0.25639   0.08918   0.00000  Uiso   1.00
O117   O     0.25000   0.42946   0.21425   0.00000  Uiso   1.00
O118   O     0.25000   0.57054   0.11908   0.00000  Uiso   1.00
O119   O     0.25000   0.57054   0.21425   0.00000  Uiso   1.00
O120   O     0.25000   0.42946   0.11908   0.00000  Uiso   1.00
C121   C     0.25001   0.40669   0.16665   0.00000  Uiso   1.00
C122   C     0.24999   0.59331   0.16668   0.00000  Uiso   1.00
O123   O     0.18513   0.50000   0.21427   0.00000  Uiso   1.00
O124   O     0.31487   0.50000   0.11907   0.00000  Uiso   1.00
O125   O     0.31487   0.50000   0.21427   0.00000  Uiso   1.00
O126   O     0.18513   0.50000   0.11907   0.00000  Uiso   1.00
C127   C     0.16443   0.49962   0.16671   0.00000  Uiso   1.00
C128   C     0.33557   0.50040   0.16664   0.00000  Uiso   1.00
Cu129  Cu    0.25000   0.50000   0.22303   0.00000  Uiso   1.00
Cu130  Cu    0.25000   0.50000   0.11031   0.00000  Uiso   1.00
N131   N     0.25000   0.50000   0.02561   0.00000  Uiso   1.00
N132   N     0.25000   0.50000   0.30773   0.00000  Uiso   1.00
C133   C     0.40614   0.54262   0.14845   0.00000  Uiso   1.00
C134   C     0.09375   0.45790   0.18544   0.00000  Uiso   1.00
C135   C     0.40591   0.45909   0.18610   0.00000  Uiso   1.00
C136   C     0.09420   0.54147   0.14792   0.00000  Uiso   1.00
C137   C     0.38366   0.50065   0.16667   0.00000  Uiso   1.00
C138   C     0.11635   0.49965   0.16682   0.00000  Uiso   1.00
C139   C     0.45283   0.45924   0.18939   0.00000  Uiso   1.00
C140   C     0.04721   0.54181   0.14555   0.00000  Uiso   1.00
C141   C     0.45298   0.54245   0.14611   0.00000  Uiso   1.00
C142   C     0.04698   0.45857   0.18877   0.00000  Uiso   1.00
C143   C     0.47646   0.50070   0.16761   0.00000  Uiso   1.00
C144   C     0.02354   0.50038   0.16732   0.00000  Uiso   1.00
C145   C     0.47668   0.41961   0.21388   0.00000  Uiso   1.00
C146   C     0.02334   0.58193   0.12218   0.00000  Uiso   1.00
C147   C     0.47712   0.58236   0.12242   0.00000  Uiso   1.00
C148   C     0.02288   0.41918   0.21363   0.00000  Uiso   1.00
C149   C     0.25000   0.35514   0.16664   0.00000  Uiso   1.00
C150   C     0.25000   0.64486   0.16669   0.00000  Uiso   1.00
N151   N     0.45432   0.37958   0.24147   0.00000  Uiso   1.00
H152   H     0.46377   0.37845   0.28448   0.00000  Uiso   1.00
H153   H     0.46371   0.34663   0.22178   0.00000  Uiso   1.00
N154   N     0.04567   0.62268   0.09600   0.00000  Uiso   1.00
H155   H     0.03629   0.65509   0.11684   0.00000  Uiso   1.00
H156   H     0.03621   0.62492   0.05305   0.00000  Uiso   1.00
N157   N     0.45623   0.62389   0.09567   0.00000  Uiso   1.00
H158   H     0.43948   0.64501   0.12613   0.00000  Uiso   1.00
H159   H     0.43563   0.61222   0.06246   0.00000  Uiso   1.00
N160   N     0.04385   0.37848   0.24198   0.00000  Uiso   1.00
H161   H     0.06501   0.39119   0.27408   0.00000  Uiso   1.00
H162   H     0.06007   0.35611   0.21226   0.00000  Uiso   1.00
N163   N     0.38090   0.58579   0.13445   0.00000  Uiso   1.00
H164   H     0.36025   0.57817   0.09973   0.00000  Uiso   1.00
H165   H     0.36152   0.59585   0.16968   0.00000  Uiso   1.00
N166   N     0.11872   0.41432   0.19847   0.00000  Uiso   1.00
H167   H     0.13750   0.40426   0.16270   0.00000  Uiso   1.00
H168   H     0.13996   0.42146   0.23274   0.00000  Uiso   1.00
N169   N     0.37931   0.41699   0.20008   0.00000  Uiso   1.00
H170   H     0.37983   0.41076   0.24416   0.00000  Uiso   1.00
H171   H     0.38984   0.38642   0.17659   0.00000  Uiso   1.00
N172   N     0.12103   0.58319   0.13316   0.00000  Uiso   1.00
H173   H     0.11157   0.61377   0.15738   0.00000  Uiso   1.00
H174   H     0.11947   0.58972   0.08918   0.00000  Uiso   1.00
O175   O     0.75000   0.42946   0.21425   0.00000  Uiso   1.00
O176   O     0.75000   0.57054   0.11908   0.00000  Uiso   1.00
O177   O     0.75000   0.57054   0.21425   0.00000  Uiso   1.00
O178   O     0.75000   0.42946   0.11908   0.00000  Uiso   1.00
C179   C     0.75001   0.40669   0.16665   0.00000  Uiso   1.00
C180   C     0.74999   0.59331   0.16668   0.00000  Uiso   1.00
O181   O     0.68513   0.50000   0.21427   0.00000  Uiso   1.00
O182   O     0.81487   0.50000   0.11907   0.00000  Uiso   1.00
O183   O     0.81487   0.50000   0.21427   0.00000  Uiso   1.00
O184   O     0.68513   0.50000   0.11907   0.00000  Uiso   1.00
C185   C     0.66443   0.49962   0.16671   0.00000  Uiso   1.00
C186   C     0.83557   0.50040   0.16664   0.00000  Uiso   1.00
Cu187  Cu    0.75000   0.50000   0.22303   0.00000  Uiso   1.00
Cu188  Cu    0.75000   0.50000   0.11031   0.00000  Uiso   1.00
N189   N     0.75000   0.50000   0.02561   0.00000  Uiso   1.00
N190   N     0.75000   0.50000   0.30773   0.00000  Uiso   1.00
C191   C     0.90614   0.54262   0.14845   0.00000  Uiso   1.00
C192   C     0.59375   0.45790   0.18544   0.00000  Uiso   1.00
C193   C     0.90591   0.45909   0.18610   0.00000  Uiso   1.00
C194   C     0.59420   0.54147   0.14792   0.00000  Uiso   1.00
C195   C     0.88366   0.50065   0.16667   0.00000  Uiso   1.00
C196   C     0.61635   0.49965   0.16682   0.00000  Uiso   1.00
C197   C     0.95283   0.45924   0.18939   0.00000  Uiso   1.00
C198   C     0.54721   0.54181   0.14555   0.00000  Uiso   1.00
C199   C     0.95298   0.54245   0.14611   0.00000  Uiso   1.00
C200   C     0.54698   0.45857   0.18877   0.00000  Uiso   1.00
C201   C     0.97646   0.50070   0.16761   0.00000  Uiso   1.00
C202   C     0.52354   0.50038   0.16732   0.00000  Uiso   1.00
C203   C     0.97668   0.41961   0.21388   0.00000  Uiso   1.00
C204   C     0.52334   0.58193   0.12218   0.00000  Uiso   1.00
C205   C     0.97712   0.58236   0.12242   0.00000  Uiso   1.00
C206   C     0.52288   0.41918   0.21363   0.00000  Uiso   1.00
C207   C     0.75000   0.35514   0.16664   0.00000  Uiso   1.00
C208   C     0.75000   0.64486   0.16669   0.00000  Uiso   1.00
N209   N     0.95432   0.37958   0.24147   0.00000  Uiso   1.00
H210   H     0.96377   0.37845   0.28448   0.00000  Uiso   1.00
H211   H     0.96371   0.34663   0.22178   0.00000  Uiso   1.00
N212   N     0.54567   0.62268   0.09600   0.00000  Uiso   1.00
H213   H     0.53629   0.65509   0.11684   0.00000  Uiso   1.00
H214   H     0.53621   0.62492   0.05305   0.00000  Uiso   1.00
N215   N     0.95623   0.62389   0.09567   0.00000  Uiso   1.00
H216   H     0.93948   0.64501   0.12613   0.00000  Uiso   1.00
H217   H     0.93563   0.61222   0.06246   0.00000  Uiso   1.00
N218   N     0.54385   0.37848   0.24198   0.00000  Uiso   1.00
H219   H     0.56501   0.39119   0.27408   0.00000  Uiso   1.00
H220   H     0.56007   0.35611   0.21226   0.00000  Uiso   1.00
N221   N     0.88090   0.58579   0.13445   0.00000  Uiso   1.00
H222   H     0.86025   0.57817   0.09973   0.00000  Uiso   1.00
H223   H     0.86152   0.59585   0.16968   0.00000  Uiso   1.00
N224   N     0.61872   0.41432   0.19847   0.00000  Uiso   1.00
H225   H     0.63750   0.40426   0.16270   0.00000  Uiso   1.00
H226   H     0.63996   0.42146   0.23274   0.00000  Uiso   1.00
N227   N     0.87931   0.41699   0.20008   0.00000  Uiso   1.00
H228   H     0.87983   0.41076   0.24416   0.00000  Uiso   1.00
H229   H     0.88984   0.38642   0.17659   0.00000  Uiso   1.00
N230   N     0.62103   0.58319   0.13316   0.00000  Uiso   1.00
H231   H     0.61157   0.61377   0.15738   0.00000  Uiso   1.00
H232   H     0.61947   0.58972   0.08918   0.00000  Uiso   1.00
O233   O     0.25000   0.76280   0.21425   0.00000  Uiso   1.00
O234   O     0.25000   0.90387   0.11908   0.00000  Uiso   1.00
O235   O     0.25000   0.90387   0.21425   0.00000  Uiso   1.00
O236   O     0.25000   0.76280   0.11908   0.00000  Uiso   1.00
C237   C     0.25001   0.74003   0.16665   0.00000  Uiso   1.00
C238   C     0.24999   0.92664   0.16668   0.00000  Uiso   1.00
O239   O     0.18513   0.83333   0.21427   0.00000  Uiso   1.00
O240   O     0.31487   0.83333   0.11907   0.00000  Uiso   1.00
O241   O     0.31487   0.83333   0.21427   0.00000  Uiso   1.00
O242   O     0.18513   0.83333   0.11907   0.00000  Uiso   1.00
C243   C     0.16443   0.83295   0.16671   0.00000  Uiso   1.00
C244   C     0.33557   0.83373   0.16664   0.00000  Uiso   1.00
Cu245  Cu    0.25000   0.83333   0.22303   0.00000  Uiso   1.00
Cu246  Cu    0.25000   0.83333   0.11031   0.00000  Uiso   1.00
N247   N     0.25000   0.83333   0.02561   0.00000  Uiso   1.00
N248   N     0.25000   0.83333   0.30773   0.00000  Uiso   1.00
C249   C     0.40614   0.87596   0.14845   0.00000  Uiso   1.00
C250   C     0.09375   0.79123   0.18544   0.00000  Uiso   1.00
C251   C     0.40591   0.79242   0.18610   0.00000  Uiso   1.00
C252   C     0.09420   0.87481   0.14792   0.00000  Uiso   1.00
C253   C     0.38366   0.83398   0.16667   0.00000  Uiso   1.00
C254   C     0.11635   0.83298   0.16682   0.00000  Uiso   1.00
C255   C     0.45283   0.79257   0.18939   0.00000  Uiso   1.00
C256   C     0.04721   0.87514   0.14555   0.00000  Uiso   1.00
C257   C     0.45298   0.87579   0.14611   0.00000  Uiso   1.00
C258   C     0.04698   0.79191   0.18877   0.00000  Uiso   1.00
C259   C     0.47646   0.83403   0.16761   0.00000  Uiso   1.00
C260   C     0.02354   0.83371   0.16732   0.00000  Uiso   1.00
C261   C     0.47668   0.75295   0.21388   0.00000  Uiso   1.00
C262   C     0.02334   0.91526   0.12218   0.00000  Uiso   1.00
C263   C     0.47712   0.91569   0.12242   0.00000  Uiso   1.00
C264   C     0.02288   0.75252   0.21363   0.00000  Uiso   1.00
C265   C     0.25000   0.68847   0.16664   0.00000  Uiso   1.00
C266   C     0.25000   0.97819   0.16669   0.00000  Uiso   1.00
N267   N     0.45432   0.71291   0.24147   0.00000  Uiso   1.00
H268   H     0.46377   0.71178   0.28448   0.00000  Uiso   1.00
H269   H     0.46371   0.67997   0.22178   0.00000  Uiso   1.00
N270   N     0.04567   0.95601   0.09600   0.00000  Uiso   1.00
H271   H     0.03629   0.98843   0.11684   0.00000  Uiso   1.00
H272   H     0.03621   0.95825   0.05305   0.00000  Uiso   1.00
N273   N     0.45623   0.95722   0.09567   0.00000  Uiso   1.00
H274   H     0.43948   0.97835   0.12613   0.00000  Uiso   1.00
H275   H     0.43563   0.94555   0.06246   0.00000  Uiso   1.00
N276   N     0.04385   0.71181   0.24198   0.00000  Uiso   1.00
H277   H     0.06501   0.72452   0.27408   0.00000  Uiso   1.00
H278   H     0.06007   0.68944   0.21226   0.00000  Uiso   1.00
N279   N     0.38090   0.91912   0.13445   0.00000  Uiso   1.00
H280   H     0.36025   0.91150   0.09973   0.00000  Uiso   1.00
H281   H     0.36152   0.92918   0.16968   0.00000  Uiso   1.00
N282   N     0.11872   0.74766   0.19847   0.00000  Uiso   1.00
H283   H     0.13750   0.73760   0.16270   0.00000  Uiso   1.00
H284   H     0.13996   0.75479   0.23274   0.00000  Uiso   1.00
N285   N     0.37931   0.75033   0.20008   0.00000  Uiso   1.00
H286   H     0.37983   0.74410   0.24416   0.00000  Uiso   1.00
H287   H     0.38984   0.71975   0.17659   0.00000  Uiso   1.00
N288   N     0.12103   0.91652   0.13316   0.00000  Uiso   1.00
H289   H     0.11157   0.94711   0.15738   0.00000  Uiso   1.00
H290   H     0.11947   0.92305   0.08918   0.00000  Uiso   1.00
O291   O     0.75000   0.76280   0.21425   0.00000  Uiso   1.00
O292   O     0.75000   0.90387   0.11908   0.00000  Uiso   1.00
O293   O     0.75000   0.90387   0.21425   0.00000  Uiso   1.00
O294   O     0.75000   0.76280   0.11908   0.00000  Uiso   1.00
C295   C     0.75001   0.74003   0.16665   0.00000  Uiso   1.00
C296   C     0.74999   0.92664   0.16668   0.00000  Uiso   1.00
O297   O     0.68513   0.83333   0.21427   0.00000  Uiso   1.00
O298   O     0.81487   0.83333   0.11907   0.00000  Uiso   1.00
O299   O     0.81487   0.83333   0.21427   0.00000  Uiso   1.00
O300   O     0.68513   0.83333   0.11907   0.00000  Uiso   1.00
C301   C     0.66443   0.83295   0.16671   0.00000  Uiso   1.00
C302   C     0.83557   0.83373   0.16664   0.00000  Uiso   1.00
Cu303  Cu    0.75000   0.83333   0.22303   0.00000  Uiso   1.00
Cu304  Cu    0.75000   0.83333   0.11031   0.00000  Uiso   1.00
N305   N     0.75000   0.83333   0.02561   0.00000  Uiso   1.00
N306   N     0.75000   0.83333   0.30773   0.00000  Uiso   1.00
C307   C     0.90614   0.87596   0.14845   0.00000  Uiso   1.00
C308   C     0.59375   0.79123   0.18544   0.00000  Uiso   1.00
C309   C     0.90591   0.79242   0.18610   0.00000  Uiso   1.00
C310   C     0.59420   0.87481   0.14792   0.00000  Uiso   1.00
C311   C     0.88366   0.83398   0.16667   0.00000  Uiso   1.00
C312   C     0.61635   0.83298   0.16682   0.00000  Uiso   1.00
C313   C     0.95283   0.79257   0.18939   0.00000  Uiso   1.00
C314   C     0.54721   0.87514   0.14555   0.00000  Uiso   1.00
C315   C     0.95298   0.87579   0.14611   0.00000  Uiso   1.00
C316   C     0.54698   0.79191   0.18877   0.00000  Uiso   1.00
C317   C     0.97646   0.83403   0.16761   0.00000  Uiso   1.00
C318   C     0.52354   0.83371   0.16732   0.00000  Uiso   1.00
C319   C     0.97668   0.75295   0.21388   0.00000  Uiso   1.00
C320   C     0.52334   0.91526   0.12218   0.00000  Uiso   1.00
C321   C     0.97712   0.91569   0.12242   0.00000  Uiso   1.00
C322   C     0.52288   0.75252   0.21363   0.00000  Uiso   1.00
C323   C     0.75000   0.68847   0.16664   0.00000  Uiso   1.00
C324   C     0.75000   0.97819   0.16669   0.00000  Uiso   1.00
N325   N     0.95432   0.71291   0.24147   0.00000  Uiso   1.00
H326   H     0.96377   0.71178   0.28448   0.00000  Uiso   1.00
H327   H     0.96371   0.67997   0.22178   0.00000  Uiso   1.00
N328   N     0.54567   0.95601   0.09600   0.00000  Uiso   1.00
H329   H     0.53629   0.98843   0.11684   0.00000  Uiso   1.00
H330   H     0.53621   0.95825   0.05305   0.00000  Uiso   1.00
N331   N     0.95623   0.95722   0.09567   0.00000  Uiso   1.00
H332   H     0.93948   0.97835   0.12613   0.00000  Uiso   1.00
H333   H     0.93563   0.94555   0.06246   0.00000  Uiso   1.00
N334   N     0.54385   0.71181   0.24198   0.00000  Uiso   1.00
H335   H     0.56501   0.72452   0.27408   0.00000  Uiso   1.00
H336   H     0.56007   0.68944   0.21226   0.00000  Uiso   1.00
N337   N     0.88090   0.91912   0.13445   0.00000  Uiso   1.00
H338   H     0.86025   0.91150   0.09973   0.00000  Uiso   1.00
H339   H     0.86152   0.92918   0.16968   0.00000  Uiso   1.00
N340   N     0.61872   0.74766   0.19847   0.00000  Uiso   1.00
H341   H     0.63750   0.73760   0.16270   0.00000  Uiso   1.00
H342   H     0.63996   0.75479   0.23274   0.00000  Uiso   1.00
N343   N     0.87931   0.75033   0.20008   0.00000  Uiso   1.00
H344   H     0.87983   0.74410   0.24416   0.00000  Uiso   1.00
H345   H     0.88984   0.71975   0.17659   0.00000  Uiso   1.00
N346   N     0.62103   0.91652   0.13316   0.00000  Uiso   1.00
H347   H     0.61157   0.94711   0.15738   0.00000  Uiso   1.00
H348   H     0.61947   0.92305   0.08918   0.00000  Uiso   1.00
O349   O     0.25000   0.09613   0.54759   0.00000  Uiso   1.00
O350   O     0.25000   0.23720   0.45241   0.00000  Uiso   1.00
O351   O     0.25000   0.23720   0.54759   0.00000  Uiso   1.00
O352   O     0.25000   0.09613   0.45241   0.00000  Uiso   1.00
C353   C     0.25001   0.07336   0.49998   0.00000  Uiso   1.00
C354   C     0.24999   0.25997   0.50002   0.00000  Uiso   1.00
O355   O     0.18513   0.16667   0.54760   0.00000  Uiso   1.00
O356   O     0.31487   0.16667   0.45240   0.00000  Uiso   1.00
O357   O     0.31487   0.16667   0.54760   0.00000  Uiso   1.00
O358   O     0.18513   0.16667   0.45240   0.00000  Uiso   1.00
C359   C     0.16443   0.16628   0.50004   0.00000  Uiso   1.00
C360   C     0.33557   0.16707   0.49997   0.00000  Uiso   1.00
Cu361  Cu    0.25000   0.16667   0.55636   0.00000  Uiso   1.00
Cu362  Cu    0.25000   0.16667   0.44364   0.00000  Uiso   1.00
N363   N     0.25000   0.16667   0.35894   0.00000  Uiso   1.00
N364   N     0.25000   0.16667   0.64106   0.00000  Uiso   1.00
C365   C     0.40614   0.20929   0.48179   0.00000  Uiso   1.00
C366   C     0.09375   0.12457   0.51877   0.00000  Uiso   1.00
C367   C     0.40591   0.12575   0.51943   0.00000  Uiso   1.00
C368   C     0.09420   0.20814   0.48125   0.00000  Uiso   1.00
C369   C     0.38366   0.16731   0.50000   0.00000  Uiso   1.00
C370   C     0.11635   0.16632   0.50016   0.00000  Uiso   1.00
C371   C     0.45283   0.12590   0.52272   0.00000  Uiso   1.00
C372   C     0.04721   0.20848   0.47889   0.00000  Uiso   1.00
C373   C     0.45298   0.20912   0.47945   0.00000  Uiso   1.00
C374   C     0.04698   0.12524   0.52210   0.00000  Uiso   1.00
C375   C     0.47646   0.16736   0.50095   0.00000  Uiso   1.00
C376   C     0.02354   0.16704   0.50065   0.00000  Uiso   1.00
C377   C     0.47668   0.08628   0.54722   0.00000  Uiso   1.00
C378   C     0.02334   0.24860   0.45551   0.00000  Uiso   1.00
C379   C     0.47712   0.24902   0.45576   0.00000  Uiso   1.00
C380   C     0.02288   0.08585   0.54696   0.00000  Uiso   1.00
C381   C     0.25000   0.02181   0.49998   0.00000  Uiso   1.00
C382   C     0.25000   0.31153   0.50002   0.00000  Uiso   1.00
N383   N     0.45432   0.04624   0.57480   0.00000  Uiso   1.00
H384   H     0.46377   0.04511   0.61781   0.00000  Uiso   1.00
H385   H     0.46371   0.01330   0.55512   0.00000  Uiso   1.00
N386   N     0.04567   0.28934   0.42933   0.00000  Uiso   1.00
H387   H     0.03629   0.32176   0.45017   0.00000  Uiso   1.00
H388   H     0.03621   0.29159   0.38639   0.00000  Uiso   1.00
N389   N     0.45623   0.29056   0.42900   0.00000  Uiso   1.00
H390   H     0.43948   0.31168   0.45946   0.00000  Uiso   1.00
H391   H     0.43563   0.27888   0.39579   0.00000  Uiso   1.00
N392   N     0.04385   0.04515   0.57532   0.00000  Uiso   1.00
H393   H     0.06501   0.05786   0.60741   0.00000  Uiso   1.00
H394   H     0.06007   0.02278   0.54559   0.00000  Uiso   1.00
N395   N     0.38090   0.25245   0.46778   0.00000  Uiso   1.00
H396   H     0.36025   0.24483   0.43306   0.00000  Uiso   1.00
H397   H     0.36152   0.26251   0.50302   0.00000  Uiso   1.00
N398   N     0.11872   0.08099   0.53181   0.00000  Uiso   1.00
H399   H     0.13750   0.07093   0.49603   0.00000  Uiso   1.00
H400   H     0.13996   0.08812   0.56607   0.00000  Uiso   1.00
N401   N     0.37931   0.08366   0.53341   0.00000  Uiso   1.00
H402   H     0.37983   0.07743   0.57749   0.00000  Uiso   1.00
H403   H     0.38984   0.05308   0.50992   0.00000  Uiso   1.00
N404   N     0.12103   0.24986   0.46649   0.00000  Uiso   1.00
H405   H     0.11157   0.28044   0.49071   0.00000  Uiso   1.00
H406   H     0.11947   0.25639   0.42251   0.00000  Uiso   1.00
O407   O     0.75000   0.09613   0.54759   0.00000  Uiso   1.00
O408   O     0.75000   0.23720   0.45241   0.00000  Uiso   1.00
O409   O     0.75000   0.23720   0.54759   0.00000  Uiso   1.00
O410   O     0.75000   0.09613   0.45241   0.00000  Uiso   1.00
C411   C     0.75001   0.07336   0.49998   0.00000  Uiso   1.00
C412   C     0.74999   0.25997   0.50002   0.00000  Uiso   1.00
O413   O     0.68513   0.16667   0.54760   0.00000  Uiso   1.00
O414   O     0.81487   0.16667   0.45240   0.00000  Uiso   1.00
O415   O     0.81487   0.16667   0.54760   0.00000  Uiso   1.00
O416   O     0.68513   0.16667   0.45240   0.00000  Uiso   1.00
C417   C     0.66443   0.16628   0.50004   0.00000  Uiso   1.00
C418   C     0.83557   0.16707   0.49997   0.00000  Uiso   1.00
Cu419  Cu    0.75000   0.16667   0.55636   0.00000  Uiso   1.00
Cu420  Cu    0.75000   0.16667   0.44364   0.00000  Uiso   1.00
N421   N     0.75000   0.16667   0.35894   0.00000  Uiso   1.00
N422   N     0.75000   0.16667   0.64106   0.00000  Uiso   1.00
C423   C     0.90614   0.20929   0.48179   0.00000  Uiso   1.00
C424   C     0.59375   0.12457   0.51877   0.00000  Uiso   1.00
C425   C     0.90591   0.12575   0.51943   0.00000  Uiso   1.00
C426   C     0.59420   0.20814   0.48125   0.00000  Uiso   1.00
C427   C     0.88366   0.16731   0.50000   0.00000  Uiso   1.00
C428   C     0.61635   0.16632   0.50016   0.00000  Uiso   1.00
C429   C     0.95283   0.12590   0.52272   0.00000  Uiso   1.00
C430   C     0.54721   0.20848   0.47889   0.00000  Uiso   1.00
C431   C     0.95298   0.20912   0.47945   0.00000  Uiso   1.00
C432   C     0.54698   0.12524   0.52210   0.00000  Uiso   1.00
C433   C     0.97646   0.16736   0.50095   0.00000  Uiso   1.00
C434   C     0.52354   0.16704   0.50065   0.00000  Uiso   1.00
C435   C     0.97668   0.08628   0.54722   0.00000  Uiso   1.00
C436   C     0.52334   0.24860   0.45551   0.00000  Uiso   1.00
C437   C     0.97712   0.24902   0.45576   0.00000  Uiso   1.00
C438   C     0.52288   0.08585   0.54696   0.00000  Uiso   1.00
C439   C     0.75000   0.02181   0.49998   0.00000  Uiso   1.00
C440   C     0.75000   0.31153   0.50002   0.00000  Uiso   1.00
N441   N     0.95432   0.04624   0.57480   0.00000  Uiso   1.00
H442   H     0.96377   0.04511   0.61781   0.00000  Uiso   1.00
H443   H     0.96371   0.01330   0.55512   0.00000  Uiso   1.00
N444   N     0.54567   0.28934   0.42933   0.00000  Uiso   1.00
H445   H     0.53629   0.32176   0.45017   0.00000  Uiso   1.00
H446   H     0.53621   0.29159   0.38639   0.00000  Uiso   1.00
N447   N     0.95623   0.29056   0.42900   0.00000  Uiso   1.00
H448   H     0.93948   0.31168   0.45946   0.00000  Uiso   1.00
H449   H     0.93563   0.27888   0.39579   0.00000  Uiso   1.00
N450   N     0.54385   0.04515   0.57532   0.00000  Uiso   1.00
H451   H     0.56501   0.05786   0.60741   0.00000  Uiso   1.00
H452   H     0.56007   0.02278   0.54559   0.00000  Uiso   1.00
N453   N     0.88090   0.25245   0.46778   0.00000  Uiso   1.00
H454   H     0.86025   0.24483   0.43306   0.00000  Uiso   1.00
H455   H     0.86152   0.26251   0.50302   0.00000  Uiso   1.00
N456   N     0.61872   0.08099   0.53181   0.00000  Uiso   1.00
H457   H     0.63750   0.07093   0.49603   0.00000  Uiso   1.00
H458   H     0.63996   0.08812   0.56607   0.00000  Uiso   1.00
N459   N     0.87931   0.08366   0.53341   0.00000  Uiso   1.00
H460   H     0.87983   0.07743   0.57749   0.00000  Uiso   1.00
H461   H     0.88984   0.05308   0.50992   0.00000  Uiso   1.00
N462   N     0.62103   0.24986   0.46649   0.00000  Uiso   1.00
H463   H     0.61157   0.28044   0.49071   0.00000  Uiso   1.00
H464   H     0.61947   0.25639   0.42251   0.00000  Uiso   1.00
O465   O     0.25000   0.42946   0.54759   0.00000  Uiso   1.00
O466   O     0.25000   0.57054   0.45241   0.00000  Uiso   1.00
O467   O     0.25000   0.57054   0.54759   0.00000  Uiso   1.00
O468   O     0.25000   0.42946   0.45241   0.00000  Uiso   1.00
C469   C     0.25001   0.40669   0.49998   0.00000  Uiso   1.00
C470   C     0.24999   0.59331   0.50002   0.00000  Uiso   1.00
O471   O     0.18513   0.50000   0.54760   0.00000  Uiso   1.00
O472   O     0.31487   0.50000   0.45240   0.00000  Uiso   1.00
O473   O     0.31487   0.50000   0.54760   0.00000  Uiso   1.00
O474   O     0.18513   0.50000   0.45240   0.00000  Uiso   1.00
C475   C     0.16443   0.49962   0.50004   0.00000  Uiso   1.00
C476   C     0.33557   0.50040   0.49997   0.00000  Uiso   1.00
Cu477  Cu    0.25000   0.50000   0.55636   0.00000  Uiso   1.00
Cu478  Cu    0.25000   0.50000   0.44364   0.00000  Uiso   1.00
N479   N     0.25000   0.50000   0.35894   0.00000  Uiso   1.00
N480   N     0.25000   0.50000   0.64106   0.00000  Uiso   1.00
C481   C     0.40614   0.54262   0.48179   0.00000  Uiso   1.00
C482   C     0.09375   0.45790   0.51877   0.00000  Uiso   1.00
C483   C     0.40591   0.45909   0.51943   0.00000  Uiso   1.00
C484   C     0.09420   0.54147   0.48125   0.00000  Uiso   1.00
C485   C     0.38366   0.50065   0.50000   0.00000  Uiso   1.00
C486   C     0.11635   0.49965   0.50016   0.00000  Uiso   1.00
C487   C     0.45283   0.45924   0.52272   0.00000  Uiso   1.00
C488   C     0.04721   0.54181   0.47889   0.00000  Uiso   1.00
C489   C     0.45298   0.54245   0.47945   0.00000  Uiso   1.00
C490   C     0.04698   0.45857   0.52210   0.00000  Uiso   1.00
C491   C     0.47646   0.50070   0.50095   0.00000  Uiso   1.00
C492   C     0.02354   0.50038   0.50065   0.00000  Uiso   1.00
C493   C     0.47668   0.41961   0.54722   0.00000  Uiso   1.00
C494   C     0.02334   0.58193   0.45551   0.00000  Uiso   1.00
C495   C     0.47712   0.58236   0.45576   0.00000  Uiso   1.00
C496   C     0.02288   0.41918   0.54696   0.00000  Uiso   1.00
C497   C     0.25000   0.35514   0.49998   0.00000  Uiso   1.00
C498   C     0.25000   0.64486   0.50002   0.00000  Uiso   1.00
N499   N     0.45432   0.37958   0.57480   0.00000  Uiso   1.00
H500   H     0.46377   0.37845   0.61781   0.00000  Uiso   1.00
H501   H     0.46371   0.34663   0.55512   0.00000  Uiso   1.00
N502   N     0.04567   0.62268   0.42933   0.00000  Uiso   1.00
H503   H     0.03629   0.65509   0.45017   0.00000  Uiso   1.00
H504   H     0.03621   0.62492   0.38639   0.00000  Uiso   1.00
N505   N     0.45623   0.62389   0.42900   0.00000  Uiso   1.00
H506   H     0.43948   0.64501   0.45946   0.00000  Uiso   1.00
H507   H     0.43563   0.61222   0.39579   0.00000  Uiso   1.00
N508   N     0.04385   0.37848   0.57532   0.00000  Uiso   1.00
H509   H     0.06501   0.39119   0.60741   0.00000  Uiso   1.00
H510   H     0.06007   0.35611   0.54559   0.00000  Uiso   1.00
N511   N     0.38090   0.58579   0.46778   0.00000  Uiso   1.00
H512   H     0.36025   0.57817   0.43306   0.00000  Uiso   1.00
H513   H     0.36152   0.59585   0.50302   0.00000  Uiso   1.00
N514   N     0.11872   0.41432   0.53181   0.00000  Uiso   1.00
H515   H     0.13750   0.40426   0.49603   0.00000  Uiso   1.00
H516   H     0.13996   0.42146   0.56607   0.00000  Uiso   1.00
N517   N     0.37931   0.41699   0.53341   0.00000  Uiso   1.00
H518   H     0.37983   0.41076   0.57749   0.00000  Uiso   1.00
H519   H     0.38984   0.38642   0.50992   0.00000  Uiso   1.00
N520   N     0.12103   0.58319   0.46649   0.00000  Uiso   1.00
H521   H     0.11157   0.61377   0.49071   0.00000  Uiso   1.00
H522   H     0.11947   0.58972   0.42251   0.00000  Uiso   1.00
O523   O     0.75000   0.42946   0.54759   0.00000  Uiso   1.00
O524   O     0.75000   0.57054   0.45241   0.00000  Uiso   1.00
O525   O     0.75000   0.57054   0.54759   0.00000  Uiso   1.00
O526   O     0.75000   0.42946   0.45241   0.00000  Uiso   1.00
C527   C     0.75001   0.40669   0.49998   0.00000  Uiso   1.00
C528   C     0.74999   0.59331   0.50002   0.00000  Uiso   1.00
O529   O     0.68513   0.50000   0.54760   0.00000  Uiso   1.00
O530   O     0.81487   0.50000   0.45240   0.00000  Uiso   1.00
O531   O     0.81487   0.50000   0.54760   0.00000  Uiso   1.00
O532   O     0.68513   0.50000   0.45240   0.00000  Uiso   1.00
C533   C     0.66443   0.49962   0.50004   0.00000  Uiso   1.00
C534   C     0.83557   0.50040   0.49997   0.00000  Uiso   1.00
Cu535  Cu    0.75000   0.50000   0.55636   0.00000  Uiso   1.00
Cu536  Cu    0.75000   0.50000   0.44364   0.00000  Uiso   1.00
N537   N     0.75000   0.50000   0.35894   0.00000  Uiso   1.00
N538   N     0.75000   0.50000   0.64106   0.00000  Uiso   1.00
C539   C     0.90614   0.54262   0.48179   0.00000  Uiso   1.00
C540   C     0.59375   0.45790   0.51877   0.00000  Uiso   1.00
C541   C     0.90591   0.45909   0.51943   0.00000  Uiso   1.00
C542   C     0.59420   0.54147   0.48125   0.00000  Uiso   1.00
C543   C     0.88366   0.50065   0.50000   0.00000  Uiso   1.00
C544   C     0.61635   0.49965   0.50016   0.00000  Uiso   1.00
C545   C     0.95283   0.45924   0.52272   0.00000  Uiso   1.00
C546   C     0.54721   0.54181   0.47889   0.00000  Uiso   1.00
C547   C     0.95298   0.54245   0.47945   0.00000  Uiso   1.00
C548   C     0.54698   0.45857   0.52210   0.00000  Uiso   1.00
C549   C     0.97646   0.50070   0.50095   0.00000  Uiso   1.00
C550   C     0.52354   0.50038   0.50065   0.00000  Uiso   1.00
C551   C     0.97668   0.41961   0.54722   0.00000  Uiso   1.00
C552   C     0.52334   0.58193   0.45551   0.00000  Uiso   1.00
C553   C     0.97712   0.58236   0.45576   0.00000  Uiso   1.00
C554   C     0.52288   0.41918   0.54696   0.00000  Uiso   1.00
C555   C     0.75000   0.35514   0.49998   0.00000  Uiso   1.00
C556   C     0.75000   0.64486   0.50002   0.00000  Uiso   1.00
N557   N     0.95432   0.37958   0.57480   0.00000  Uiso   1.00
H558   H     0.96377   0.37845   0.61781   0.00000  Uiso   1.00
H559   H     0.96371   0.34663   0.55512   0.00000  Uiso   1.00
N560   N     0.54567   0.62268   0.42933   0.00000  Uiso   1.00
H561   H     0.53629   0.65509   0.45017   0.00000  Uiso   1.00
H562   H     0.53621   0.62492   0.38639   0.00000  Uiso   1.00
N563   N     0.95623   0.62389   0.42900   0.00000  Uiso   1.00
H564   H     0.93948   0.64501   0.45946   0.00000  Uiso   1.00
H565   H     0.93563   0.61222   0.39579   0.00000  Uiso   1.00
N566   N     0.54385   0.37848   0.57532   0.00000  Uiso   1.00
H567   H     0.56501   0.39119   0.60741   0.00000  Uiso   1.00
H568   H     0.56007   0.35611   0.54559   0.00000  Uiso   1.00
N569   N     0.88090   0.58579   0.46778   0.00000  Uiso   1.00
H570   H     0.86025   0.57817   0.43306   0.00000  Uiso   1.00
H571   H     0.86152   0.59585   0.50302   0.00000  Uiso   1.00
N572   N     0.61872   0.41432   0.53181   0.00000  Uiso   1.00
H573   H     0.63750   0.40426   0.49603   0.00000  Uiso   1.00
H574   H     0.63996   0.42146   0.56607   0.00000  Uiso   1.00
N575   N     0.87931   0.41699   0.53341   0.00000  Uiso   1.00
H576   H     0.87983   0.41076   0.57749   0.00000  Uiso   1.00
H577   H     0.88984   0.38642   0.50992   0.00000  Uiso   1.00
N578   N     0.62103   0.58319   0.46649   0.00000  Uiso   1.00
H579   H     0.61157   0.61377   0.49071   0.00000  Uiso   1.00
H580   H     0.61947   0.58972   0.42251   0.00000  Uiso   1.00
O581   O     0.25000   0.76280   0.54759   0.00000  Uiso   1.00
O582   O     0.25000   0.90387   0.45241   0.00000  Uiso   1.00
O583   O     0.25000   0.90387   0.54759   0.00000  Uiso   1.00
O584   O     0.25000   0.76280   0.45241   0.00000  Uiso   1.00
C585   C     0.25001   0.74003   0.49998   0.00000  Uiso   1.00
C586   C     0.24999   0.92664   0.50002   0.00000  Uiso   1.00
O587   O     0.18513   0.83333   0.54760   0.00000  Uiso   1.00
O588   O     0.31487   0.83333   0.45240   0.00000  Uiso   1.00
O589   O     0.31487   0.83333   0.54760   0.00000  Uiso   1.00
O590   O     0.18513   0.83333   0.45240   0.00000  Uiso   1.00
C591   C     0.16443   0.83295   0.50004   0.00000  Uiso   1.00
C592   C     0.33557   0.83373   0.49997   0.00000  Uiso   1.00
Cu593  Cu    0.25000   0.83333   0.55636   0.00000  Uiso   1.00
Cu594  Cu    0.25000   0.83333   0.44364   0.00000  Uiso   1.00
N595   N     0.25000   0.83333   0.35894   0.00000  Uiso   1.00
N596   N     0.25000   0.83333   0.64106   0.00000  Uiso   1.00
C597   C     0.40614   0.87596   0.48179   0.00000  Uiso   1.00
C598   C     0.09375   0.79123   0.51877   0.00000  Uiso   1.00
C599   C     0.40591   0.79242   0.51943   0.00000  Uiso   1.00
C600   C     0.09420   0.87481   0.48125   0.00000  Uiso   1.00
C601   C     0.38366   0.83398   0.50000   0.00000  Uiso   1.00
C602   C     0.11635   0.83298   0.50016   0.00000  Uiso   1.00
C603   C     0.45283   0.79257   0.52272   0.00000  Uiso   1.00
C604   C     0.04721   0.87514   0.47889   0.00000  Uiso   1.00
C605   C     0.45298   0.87579   0.47945   0.00000  Uiso   1.00
C606   C     0.04698   0.79191   0.52210   0.00000  Uiso   1.00
C607   C     0.47646   0.83403   0.50095   0.00000  Uiso   1.00
C608   C     0.02354   0.83371   0.50065   0.00000  Uiso   1.00
C609   C     0.47668   0.75295   0.54722   0.00000  Uiso   1.00
C610   C     0.02334   0.91526   0.45551   0.00000  Uiso   1.00
C611   C     0.47712   0.91569   0.45576   0.00000  Uiso   1.00
C612   C     0.02288   0.75252   0.54696   0.00000  Uiso   1.00
C613   C     0.25000   0.68847   0.49998   0.00000  Uiso   1.00
C614   C     0.25000   0.97819   0.50002   0.00000  Uiso   1.00
N615   N     0.45432   0.71291   0.57480   0.00000  Uiso   1.00
H616   H     0.46377   0.71178   0.61781   0.00000  Uiso   1.00
H617   H     0.46371   0.67997   0.55512   0.00000  Uiso   1.00
N618   N     0.04567   0.95601   0.42933   0.00000  Uiso   1.00
H619   H     0.03629   0.98843   0.45017   0.00000  Uiso   1.00
H620   H     0.03621   0.95825   0.38639   0.00000  Uiso   1.00
N621   N     0.45623   0.95722   0.42900   0.00000  Uiso   1.00
H622   H     0.43948   0.97835   0.45946   0.00000  Uiso   1.00
H623   H     0.43563   0.94555   0.39579   0.00000  Uiso   1.00
N624   N     0.04385   0.71181   0.57532   0.00000  Uiso   1.00
H625   H     0.06501   0.72452   0.60741   0.00000  Uiso   1.00
H626   H     0.06007   0.68944   0.54559   0.00000  Uiso   1.00
N627   N     0.38090   0.91912   0.46778   0.00000  Uiso   1.00
H628   H     0.36025   0.91150   0.43306   0.00000  Uiso   1.00
H629   H     0.36152   0.92918   0.50302   0.00000  Uiso   1.00
N630   N     0.11872   0.74766   0.53181   0.00000  Uiso   1.00
H631   H     0.13750   0.73760   0.49603   0.00000  Uiso   1.00
H632   H     0.13996   0.75479   0.56607   0.00000  Uiso   1.00
N633   N     0.37931   0.75033   0.53341   0.00000  Uiso   1.00
H634   H     0.37983   0.74410   0.57749   0.00000  Uiso   1.00
H635   H     0.38984   0.71975   0.50992   0.00000  Uiso   1.00
N636   N     0.12103   0.91652   0.46649   0.00000  Uiso   1.00
H637   H     0.11157   0.94711   0.49071   0.00000  Uiso   1.00
H638   H     0.11947   0.92305   0.42251   0.00000  Uiso   1.00
O639   O     0.75000   0.76280   0.54759   0.00000  Uiso   1.00
O640   O     0.75000   0.90387   0.45241   0.00000  Uiso   1.00
O641   O     0.75000   0.90387   0.54759   0.00000  Uiso   1.00
O642   O     0.75000   0.76280   0.45241   0.00000  Uiso   1.00
C643   C     0.75001   0.74003   0.49998   0.00000  Uiso   1.00
C644   C     0.74999   0.92664   0.50002   0.00000  Uiso   1.00
O645   O     0.68513   0.83333   0.54760   0.00000  Uiso   1.00
O646   O     0.81487   0.83333   0.45240   0.00000  Uiso   1.00
O647   O     0.81487   0.83333   0.54760   0.00000  Uiso   1.00
O648   O     0.68513   0.83333   0.45240   0.00000  Uiso   1.00
C649   C     0.66443   0.83295   0.50004   0.00000  Uiso   1.00
C650   C     0.83557   0.83373   0.49997   0.00000  Uiso   1.00
Cu651  Cu    0.75000   0.83333   0.55636   0.00000  Uiso   1.00
Cu652  Cu    0.75000   0.83333   0.44364   0.00000  Uiso   1.00
N653   N     0.75000   0.83333   0.35894   0.00000  Uiso   1.00
N654   N     0.75000   0.83333   0.64106   0.00000  Uiso   1.00
C655   C     0.90614   0.87596   0.48179   0.00000  Uiso   1.00
C656   C     0.59375   0.79123   0.51877   0.00000  Uiso   1.00
C657   C     0.90591   0.79242   0.51943   0.00000  Uiso   1.00
C658   C     0.59420   0.87481   0.48125   0.00000  Uiso   1.00
C659   C     0.88366   0.83398   0.50000   0.00000  Uiso   1.00
C660   C     0.61635   0.83298   0.50016   0.00000  Uiso   1.00
C661   C     0.95283   0.79257   0.52272   0.00000  Uiso   1.00
C662   C     0.54721   0.87514   0.47889   0.00000  Uiso   1.00
C663   C     0.95298   0.87579   0.47945   0.00000  Uiso   1.00
C664   C     0.54698   0.79191   0.52210   0.00000  Uiso   1.00
C665   C     0.97646   0.83403   0.50095   0.00000  Uiso   1.00
C666   C     0.52354   0.83371   0.50065   0.00000  Uiso   1.00
C667   C     0.97668   0.75295   0.54722   0.00000  Uiso   1.00
C668   C     0.52334   0.91526   0.45551   0.00000  Uiso   1.00
C669   C     0.97712   0.91569   0.45576   0.00000  Uiso   1.00
C670   C     0.52288   0.75252   0.54696   0.00000  Uiso   1.00
C671   C     0.75000   0.68847   0.49998   0.00000  Uiso   1.00
C672   C     0.75000   0.97819   0.50002   0.00000  Uiso   1.00
N673   N     0.95432   0.71291   0.57480   0.00000  Uiso   1.00
H674   H     0.96377   0.71178   0.61781   0.00000  Uiso   1.00
H675   H     0.96371   0.67997   0.55512   0.00000  Uiso   1.00
N676   N     0.54567   0.95601   0.42933   0.00000  Uiso   1.00
H677   H     0.53629   0.98843   0.45017   0.00000  Uiso   1.00
H678   H     0.53621   0.95825   0.38639   0.00000  Uiso   1.00
N679   N     0.95623   0.95722   0.42900   0.00000  Uiso   1.00
H680   H     0.93948   0.97835   0.45946   0.00000  Uiso   1.00
H681   H     0.93563   0.94555   0.39579   0.00000  Uiso   1.00
N682   N     0.54385   0.71181   0.57532   0.00000  Uiso   1.00
H683   H     0.56501   0.72452   0.60741   0.00000  Uiso   1.00
H684   H     0.56007   0.68944   0.54559   0.00000  Uiso   1.00
N685   N     0.88090   0.91912   0.46778   0.00000  Uiso   1.00
H686   H     0.86025   0.91150   0.43306   0.00000  Uiso   1.00
H687   H     0.86152   0.92918   0.50302   0.00000  Uiso   1.00
N688   N     0.61872   0.74766   0.53181   0.00000  Uiso   1.00
H689   H     0.63750   0.73760   0.49603   0.00000  Uiso   1.00
H690   H     0.63996   0.75479   0.56607   0.00000  Uiso   1.00
N691   N     0.87931   0.75033   0.53341   0.00000  Uiso   1.00
H692   H     0.87983   0.74410   0.57749   0.00000  Uiso   1.00
H693   H     0.88984   0.71975   0.50992   0.00000  Uiso   1.00
N694   N     0.62103   0.91652   0.46649   0.00000  Uiso   1.00
H695   H     0.61157   0.94711   0.49071   0.00000  Uiso   1.00
H696   H     0.61947   0.92305   0.42251   0.00000  Uiso   1.00
O697   O     0.25000   0.09613   0.88092   0.00000  Uiso   1.00
O698   O     0.25000   0.23720   0.78575   0.00000  Uiso   1.00
O699   O     0.25000   0.23720   0.88092   0.00000  Uiso   1.00
O700   O     0.25000   0.09613   0.78575   0.00000  Uiso   1.00
C701   C     0.25001   0.07336   0.83332   0.00000  Uiso   1.00
C702   C     0.24999   0.25997   0.83335   0.00000  Uiso   1.00
O703   O     0.18513   0.16667   0.88093   0.00000  Uiso   1.00
O704   O     0.31487   0.16667   0.78573   0.00000  Uiso   1.00
O705   O     0.31487   0.16667   0.88093   0.00000  Uiso   1.00
O706   O     0.18513   0.16667   0.78573   0.00000  Uiso   1.00
C707   C     0.16443   0.16628   0.83337   0.00000  Uiso   1.00
C708   C     0.33557   0.16707   0.83330   0.00000  Uiso   1.00
Cu709  Cu    0.25000   0.16667   0.88969   0.00000  Uiso   1.00
Cu710  Cu    0.25000   0.16667   0.77697   0.00000  Uiso   1.00
N711   N     0.25000   0.16667   0.69227   0.00000  Uiso   1.00
N712   N     0.25000   0.16667   0.97439   0.00000  Uiso   1.00
C713   C     0.40614   0.20929   0.81512   0.00000  Uiso   1.00
C714   C     0.09375   0.12457   0.85210   0.00000  Uiso   1.00
C715   C     0.40591   0.12575   0.85277   0.00000  Uiso   1.00
C716   C     0.09420   0.20814   0.81459   0.00000  Uiso   1.00
C717   C     0.38366   0.16731   0.83334   0.00000  Uiso   1.00
C718   C     0.11635   0.16632   0.83349   0.00000  Uiso   1.00
C719   C     0.45283   0.12590   0.85606   0.00000  Uiso   1.00
C720   C     0.04721   0.20848   0.81222   0.00000  Uiso   1.00
C721   C     0.45298   0.20912   0.81278   0.00000  Uiso   1.00
C722   C     0.04698   0.12524   0.85544   0.00000  Uiso   1.00
C723   C     0.47646   0.16736   0.83428   0.00000  Uiso   1.00
C724   C     0.02354   0.16704   0.83399   0.00000  Uiso   1.00
C725   C     0.47668   0.08628   0.88055   0.00000  Uiso   1.00
C726   C     0.02334   0.24860   0.78885   0.00000  Uiso   1.00
C727   C     0.47712   0.24902   0.78909   0.00000  Uiso   1.00
C728   C     0.02288   0.08585   0.88030   0.00000  Uiso   1.00
C729   C     0.25000   0.02181   0.83331   0.00000  Uiso   1.00
C730   C     0.25000   0.31153   0.83336   0.00000  Uiso   1.00
N731   N     0.45432   0.04624   0.90814   0.00000  Uiso   1.00
H732   H     0.46377   0.04511   0.95114   0.00000  Uiso   1.00
H733   H     0.46371   0.01330   0.88845   0.00000  Uiso   1.00
N734   N     0.04567   0.28934   0.76267   0.00000  Uiso   1.00
H735   H     0.03629   0.32176   0.78351   0.00000  Uiso   1.00
H736   H     0.03621   0.29159   0.71972   0.00000  Uiso   1.00
N737   N     0.45623   0.29056   0.76233   0.00000  Uiso   1.00
H738   H     0.43948   0.31168   0.79280   0.00000  Uiso   1.00
H739   H     0.43563   0.27888   0.72912   0.00000  Uiso   1.00
N740   N     0.04385   0.04515   0.90865   0.00000  Uiso   1.00
H741   H     0.06501   0.05786   0.94075   0.00000  Uiso   1.00
H742   H     0.06007   0.02278   0.87892   0.00000  Uiso   1.00
N743   N     0.38090   0.25245   0.80112   0.00000  Uiso   1.00
H744   H     0.36025   0.24483   0.76640   0.00000  Uiso   1.00
H745   H     0.36152   0.26251   0.83635   0.00000  Uiso   1.00
N746   N     0.11872   0.08099   0.86514   0.00000  Uiso   1.00
H747   H     0.13750   0.07093   0.82936   0.00000  Uiso   1.00
H748   H     0.13996   0.08812   0.89940   0.00000  Uiso   1.00
N749   N     0.37931   0.08366   0.86675   0.00000  Uiso   1.00
H750   H     0.37983   0.07743   0.91083   0.00000  Uiso   1.00
H751   H     0.38984   0.05308   0.84326   0.00000  Uiso   1.00
N752   N     0.12103   0.24986   0.79983   0.00000  Uiso   1.00
H753   H     0.11157   0.28044   0.82404   0.00000  Uiso   1.00
H754   H     0.11947   0.25639   0.75584   0.00000  Uiso   1.00
O755   O     0.75000   0.09613   0.88092   0.00000  Uiso   1.00
O756   O     0.75000   0.23720   0.78575   0.00000  Uiso   1.00
O757   O     0.75000   0.23720   0.88092   0.00000  Uiso   1.00
O758   O     0.75000   0.09613   0.78575   0.00000  Uiso   1.00
C759   C     0.75001   0.07336   0.83332   0.00000  Uiso   1.00
C760   C     0.74999   0.25997   0.83335   0.00000  Uiso   1.00
O761   O     0.68513   0.16667   0.88093   0.00000  Uiso   1.00
O762   O     0.81487   0.16667   0.78573   0.00000  Uiso   1.00
O763   O     0.81487   0.16667   0.88093   0.00000  Uiso   1.00
O764   O     0.68513   0.16667   0.78573   0.00000  Uiso   1.00
C765   C     0.66443   0.16628   0.83337   0.00000  Uiso   1.00
C766   C     0.83557   0.16707   0.83330   0.00000  Uiso   1.00
Cu767  Cu    0.75000   0.16667   0.88969   0.00000  Uiso   1.00
Cu768  Cu    0.75000   0.16667   0.77697   0.00000  Uiso   1.00
N769   N     0.75000   0.16667   0.69227   0.00000  Uiso   1.00
N770   N     0.75000   0.16667   0.97439   0.00000  Uiso   1.00
C771   C     0.90614   0.20929   0.81512   0.00000  Uiso   1.00
C772   C     0.59375   0.12457   0.85210   0.00000  Uiso   1.00
C773   C     0.90591   0.12575   0.85277   0.00000  Uiso   1.00
C774   C     0.59420   0.20814   0.81459   0.00000  Uiso   1.00
C775   C     0.88366   0.16731   0.83334   0.00000  Uiso   1.00
C776   C     0.61635   0.16632   0.83349   0.00000  Uiso   1.00
C777   C     0.95283   0.12590   0.85606   0.00000  Uiso   1.00
C778   C     0.54721   0.20848   0.81222   0.00000  Uiso   1.00
C779   C     0.95298   0.20912   0.81278   0.00000  Uiso   1.00
C780   C     0.54698   0.12524   0.85544   0.00000  Uiso   1.00
C781   C     0.97646   0.16736   0.83428   0.00000  Uiso   1.00
C782   C     0.52354   0.16704   0.83399   0.00000  Uiso   1.00
C783   C     0.97668   0.08628   0.88055   0.00000  Uiso   1.00
C784   C     0.52334   0.24860   0.78885   0.00000  Uiso   1.00
C785   C     0.97712   0.24902   0.78909   0.00000  Uiso   1.00
C786   C     0.52288   0.08585   0.88030   0.00000  Uiso   1.00
C787   C     0.75000   0.02181   0.83331   0.00000  Uiso   1.00
C788   C     0.75000   0.31153   0.83336   0.00000  Uiso   1.00
N789   N     0.95432   0.04624   0.90814   0.00000  Uiso   1.00
H790   H     0.96377   0.04511   0.95114   0.00000  Uiso   1.00
H791   H     0.96371   0.01330   0.88845   0.00000  Uiso   1.00
N792   N     0.54567   0.28934   0.76267   0.00000  Uiso   1.00
H793   H     0.53629   0.32176   0.78351   0.00000  Uiso   1.00
H794   H     0.53621   0.29159   0.71972   0.00000  Uiso   1.00
N795   N     0.95623   0.29056   0.76233   0.00000  Uiso   1.00
H796   H     0.93948   0.31168   0.79280   0.00000  Uiso   1.00
H797   H     0.93563   0.27888   0.72912   0.00000  Uiso   1.00
N798   N     0.54385   0.04515   0.90865   0.00000  Uiso   1.00
H799   H     0.56501   0.05786   0.94075   0.00000  Uiso   1.00
H800   H     0.56007   0.02278   0.87892   0.00000  Uiso   1.00
N801   N     0.88090   0.25245   0.80112   0.00000  Uiso   1.00
H802   H     0.86025   0.24483   0.76640   0.00000  Uiso   1.00
H803   H     0.86152   0.26251   0.83635   0.00000  Uiso   1.00
N804   N     0.61872   0.08099   0.86514   0.00000  Uiso   1.00
H805   H     0.63750   0.07093   0.82936   0.00000  Uiso   1.00
H806   H     0.63996   0.08812   0.89940   0.00000  Uiso   1.00
N807   N     0.87931   0.08366   0.86675   0.00000  Uiso   1.00
H808   H     0.87983   0.07743   0.91083   0.00000  Uiso   1.00
H809   H     0.88984   0.05308   0.84326   0.00000  Uiso   1.00
N810   N     0.62103   0.24986   0.79983   0.00000  Uiso   1.00
H811   H     0.61157   0.28044   0.82404   0.00000  Uiso   1.00
H812   H     0.61947   0.25639   0.75584   0.00000  Uiso   1.00
O813   O     0.25000   0.42946   0.88092   0.00000  Uiso   1.00
O814   O     0.25000   0.57054   0.78575   0.00000  Uiso   1.00
O815   O     0.25000   0.57054   0.88092   0.00000  Uiso   1.00
O816   O     0.25000   0.42946   0.78575   0.00000  Uiso   1.00
C817   C     0.25001   0.40669   0.83332   0.00000  Uiso   1.00
C818   C     0.24999   0.59331   0.83335   0.00000  Uiso   1.00
O819   O     0.18513   0.50000   0.88093   0.00000  Uiso   1.00
O820   O     0.31487   0.50000   0.78573   0.00000  Uiso   1.00
O821   O     0.31487   0.50000   0.88093   0.00000  Uiso   1.00
O822   O     0.18513   0.50000   0.78573   0.00000  Uiso   1.00
C823   C     0.16443   0.49962   0.83337   0.00000  Uiso   1.00
C824   C     0.33557   0.50040   0.83330   0.00000  Uiso   1.00
Cu825  Cu    0.25000   0.50000   0.88969   0.00000  Uiso   1.00
Cu826  Cu    0.25000   0.50000   0.77697   0.00000  Uiso   1.00
N827   N     0.25000   0.50000   0.69227   0.00000  Uiso   1.00
N828   N     0.25000   0.50000   0.97439   0.00000  Uiso   1.00
C829   C     0.40614   0.54262   0.81512   0.00000  Uiso   1.00
C830   C     0.09375   0.45790   0.85210   0.00000  Uiso   1.00
C831   C     0.40591   0.45909   0.85277   0.00000  Uiso   1.00
C832   C     0.09420   0.54147   0.81459   0.00000  Uiso   1.00
C833   C     0.38366   0.50065   0.83334   0.00000  Uiso   1.00
C834   C     0.11635   0.49965   0.83349   0.00000  Uiso   1.00
C835   C     0.45283   0.45924   0.85606   0.00000  Uiso   1.00
C836   C     0.04721   0.54181   0.81222   0.00000  Uiso   1.00
C837   C     0.45298   0.54245   0.81278   0.00000  Uiso   1.00
C838   C     0.04698   0.45857   0.85544   0.00000  Uiso   1.00
C839   C     0.47646   0.50070   0.83428   0.00000  Uiso   1.00
C840   C     0.02354   0.50038   0.83399   0.00000  Uiso   1.00
C841   C     0.47668   0.41961   0.88055   0.00000  Uiso   1.00
C842   C     0.02334   0.58193   0.78885   0.00000  Uiso   1.00
C843   C     0.47712   0.58236   0.78909   0.00000  Uiso   1.00
C844   C     0.02288   0.41918   0.88030   0.00000  Uiso   1.00
C845   C     0.25000   0.35514   0.83331   0.00000  Uiso   1.00
C846   C     0.25000   0.64486   0.83336   0.00000  Uiso   1.00
N847   N     0.45432   0.37958   0.90814   0.00000  Uiso   1.00
H848   H     0.46377   0.37845   0.95114   0.00000  Uiso   1.00
H849   H     0.46371   0.34663   0.88845   0.00000  Uiso   1.00
N850   N     0.04567   0.62268   0.76267   0.00000  Uiso   1.00
H851   H     0.03629   0.65509   0.78351   0.00000  Uiso   1.00
H852   H     0.03621   0.62492   0.71972   0.00000  Uiso   1.00
N853   N     0.45623   0.62389   0.76233   0.00000  Uiso   1.00
H854   H     0.43948   0.64501   0.79280   0.00000  Uiso   1.00
H855   H     0.43563   0.61222   0.72912   0.00000  Uiso   1.00
N856   N     0.04385   0.37848   0.90865   0.00000  Uiso   1.00
H857   H     0.06501   0.39119   0.94075   0.00000  Uiso   1.00
H858   H     0.06007   0.35611   0.87892   0.00000  Uiso   1.00
N859   N     0.38090   0.58579   0.80112   0.00000  Uiso   1.00
H860   H     0.36025   0.57817   0.76640   0.00000  Uiso   1.00
H861   H     0.36152   0.59585   0.83635   0.00000  Uiso   1.00
N862   N     0.11872   0.41432   0.86514   0.00000  Uiso   1.00
H863   H     0.13750   0.40426   0.82936   0.00000  Uiso   1.00
H864   H     0.13996   0.42146   0.89940   0.00000  Uiso   1.00
N865   N     0.37931   0.41699   0.86675   0.00000  Uiso   1.00
H866   H     0.37983   0.41076   0.91083   0.00000  Uiso   1.00
H867   H     0.38984   0.38642   0.84326   0.00000  Uiso   1.00
N868   N     0.12103   0.58319   0.79983   0.00000  Uiso   1.00
H869   H     0.11157   0.61377   0.82404   0.00000  Uiso   1.00
H870   H     0.11947   0.58972   0.75584   0.00000  Uiso   1.00
O871   O     0.75000   0.42946   0.88092   0.00000  Uiso   1.00
O872   O     0.75000   0.57054   0.78575   0.00000  Uiso   1.00
O873   O     0.75000   0.57054   0.88092   0.00000  Uiso   1.00
O874   O     0.75000   0.42946   0.78575   0.00000  Uiso   1.00
C875   C     0.75001   0.40669   0.83332   0.00000  Uiso   1.00
C876   C     0.74999   0.59331   0.83335   0.00000  Uiso   1.00
O877   O     0.68513   0.50000   0.88093   0.00000  Uiso   1.00
O878   O     0.81487   0.50000   0.78573   0.00000  Uiso   1.00
O879   O     0.81487   0.50000   0.88093   0.00000  Uiso   1.00
O880   O     0.68513   0.50000   0.78573   0.00000  Uiso   1.00
C881   C     0.66443   0.49962   0.83337   0.00000  Uiso   1.00
C882   C     0.83557   0.50040   0.83330   0.00000  Uiso   1.00
Cu883  Cu    0.75000   0.50000   0.88969   0.00000  Uiso   1.00
Cu884  Cu    0.75000   0.50000   0.77697   0.00000  Uiso   1.00
N885   N     0.75000   0.50000   0.69227   0.00000  Uiso   1.00
N886   N     0.75000   0.50000   0.97439   0.00000  Uiso   1.00
C887   C     0.90614   0.54262   0.81512   0.00000  Uiso   1.00
C888   C     0.59375   0.45790   0.85210   0.00000  Uiso   1.00
C889   C     0.90591   0.45909   0.85277   0.00000  Uiso   1.00
C890   C     0.59420   0.54147   0.81459   0.00000  Uiso   1.00
C891   C     0.88366   0.50065   0.83334   0.00000  Uiso   1.00
C892   C     0.61635   0.49965   0.83349   0.00000  Uiso   1.00
C893   C     0.95283   0.45924   0.85606   0.00000  Uiso   1.00
C894   C     0.54721   0.54181   0.81222   0.00000  Uiso   1.00
C895   C     0.95298   0.54245   0.81278   0.00000  Uiso   1.00
C896   C     0.54698   0.45857   0.85544   0.00000  Uiso   1.00
C897   C     0.97646   0.50070   0.83428   0.00000  Uiso   1.00
C898   C     0.52354   0.50038   0.83399   0.00000  Uiso   1.00
C899   C     0.97668   0.41961   0.88055   0.00000  Uiso   1.00
C900   C     0.52334   0.58193   0.78885   0.00000  Uiso   1.00
C901   C     0.97712   0.58236   0.78909   0.00000  Uiso   1.00
C902   C     0.52288   0.41918   0.88030   0.00000  Uiso   1.00
C903   C     0.75000   0.35514   0.83331   0.00000  Uiso   1.00
C904   C     0.75000   0.64486   0.83336   0.00000  Uiso   1.00
N905   N     0.95432   0.37958   0.90814   0.00000  Uiso   1.00
H906   H     0.96377   0.37845   0.95114   0.00000  Uiso   1.00
H907   H     0.96371   0.34663   0.88845   0.00000  Uiso   1.00
N908   N     0.54567   0.62268   0.76267   0.00000  Uiso   1.00
H909   H     0.53629   0.65509   0.78351   0.00000  Uiso   1.00
H910   H     0.53621   0.62492   0.71972   0.00000  Uiso   1.00
N911   N     0.95623   0.62389   0.76233   0.00000  Uiso   1.00
H912   H     0.93948   0.64501   0.79280   0.00000  Uiso   1.00
H913   H     0.93563   0.61222   0.72912   0.00000  Uiso   1.00
N914   N     0.54385   0.37848   0.90865   0.00000  Uiso   1.00
H915   H     0.56501   0.39119   0.94075   0.00000  Uiso   1.00
H916   H     0.56007   0.35611   0.87892   0.00000  Uiso   1.00
N917   N     0.88090   0.58579   0.80112   0.00000  Uiso   1.00
H918   H     0.86025   0.57817   0.76640   0.00000  Uiso   1.00
H919   H     0.86152   0.59585   0.83635   0.00000  Uiso   1.00
N920   N     0.61872   0.41432   0.86514   0.00000  Uiso   1.00
H921   H     0.63750   0.40426   0.82936   0.00000  Uiso   1.00
H922   H     0.63996   0.42146   0.89940   0.00000  Uiso   1.00
N923   N     0.87931   0.41699   0.86675   0.00000  Uiso   1.00
H924   H     0.87983   0.41076   0.91083   0.00000  Uiso   1.00
H925   H     0.88984   0.38642   0.84326   0.00000  Uiso   1.00
N926   N     0.62103   0.58319   0.79983   0.00000  Uiso   1.00
H927   H     0.61157   0.61377   0.82404   0.00000  Uiso   1.00
H928   H     0.61947   0.58972   0.75584   0.00000  Uiso   1.00
O929   O     0.25000   0.76280   0.88092   0.00000  Uiso   1.00
O930   O     0.25000   0.90387   0.78575   0.00000  Uiso   1.00
O931   O     0.25000   0.90387   0.88092   0.00000  Uiso   1.00
O932   O     0.25000   0.76280   0.78575   0.00000  Uiso   1.00
C933   C     0.25001   0.74003   0.83332   0.00000  Uiso   1.00
C934   C     0.24999   0.92664   0.83335   0.00000  Uiso   1.00
O935   O     0.18513   0.83333   0.88093   0.00000  Uiso   1.00
O936   O     0.31487   0.83333   0.78573   0.00000  Uiso   1.00
O937   O     0.31487   0.83333   0.88093   0.00000  Uiso   1.00
O938   O     0.18513   0.83333   0.78573   0.00000  Uiso   1.00
C939   C     0.16443   0.83295   0.83337   0.00000  Uiso   1.00
C940   C     0.33557   0.83373   0.83330   0.00000  Uiso   1.00
Cu941  Cu    0.25000   0.83333   0.88969   0.00000  Uiso   1.00
Cu942  Cu    0.25000   0.83333   0.77697   0.00000  Uiso   1.00
N943   N     0.25000   0.83333   0.69227   0.00000  Uiso   1.00
N944   N     0.25000   0.83333   0.97439   0.00000  Uiso   1.00
C945   C     0.40614   0.87596   0.81512   0.00000  Uiso   1.00
C946   C     0.09375   0.79123   0.85210   0.00000  Uiso   1.00
C947   C     0.40591   0.79242   0.85277   0.00000  Uiso   1.00
C948   C     0.09420   0.87481   0.81459   0.00000  Uiso   1.00
C949   C     0.38366   0.83398   0.83334   0.00000  Uiso   1.00
C950   C     0.11635   0.83298   0.83349   0.00000  Uiso   1.00
C951   C     0.45283   0.79257   0.85606   0.00000  Uiso   1.00
C952   C     0.04721   0.87514   0.81222   0.00000  Uiso   1.00
C953   C     0.45298   0.87579   0.81278   0.00000  Uiso   1.00
C954   C     0.04698   0.79191   0.85544   0.00000  Uiso   1.00
C955   C     0.47646   0.83403   0.83428   0.00000  Uiso   1.00
C956   C     0.02354   0.83371   0.83399   0.00000  Uiso   1.00
C957   C     0.47668   0.75295   0.88055   0.00000  Uiso   1.00
C958   C     0.02334   0.91526   0.78885   0.00000  Uiso   1.00
C959   C     0.47712   0.91569   0.78909   0.00000  Uiso   1.00
C960   C     0.02288   0.75252   0.88030   0.00000  Uiso   1.00
C961   C     0.25000   0.68847   0.83331   0.00000  Uiso   1.00
C962   C     0.25000   0.97819   0.83336   0.00000  Uiso   1.00
N963   N     0.45432   0.71291   0.90814   0.00000  Uiso   1.00
H964   H     0.46377   0.71178   0.95114   0.00000  Uiso   1.00
H965   H     0.46371   0.67997   0.88845   0.00000  Uiso   1.00
N966   N     0.04567   0.95601   0.76267   0.00000  Uiso   1.00
H967   H     0.03629   0.98843   0.78351   0.00000  Uiso   1.00
H968   H     0.03621   0.95825   0.71972   0.00000  Uiso   1.00
N969   N     0.45623   0.95722   0.76233   0.00000  Uiso   1.00
H970   H     0.43948   0.97835   0.79280   0.00000  Uiso   1.00
H971   H     0.43563   0.94555   0.72912   0.00000  Uiso   1.00
N972   N     0.04385   0.71181   0.90865   0.00000  Uiso   1.00
H973   H     0.06501   0.72452   0.94075   0.00000  Uiso   1.00
H974   H     0.06007   0.68944   0.87892   0.00000  Uiso   1.00
N975   N     0.38090   0.91912   0.80112   0.00000  Uiso   1.00
H976   H     0.36025   0.91150   0.76640   0.00000  Uiso   1.00
H977   H     0.36152   0.92918   0.83635   0.00000  Uiso   1.00
N978   N     0.11872   0.74766   0.86514   0.00000  Uiso   1.00
H979   H     0.13750   0.73760   0.82936   0.00000  Uiso   1.00
H980   H     0.13996   0.75479   0.89940   0.00000  Uiso   1.00
N981   N     0.37931   0.75033   0.86675   0.00000  Uiso   1.00
H982   H     0.37983   0.74410   0.91083   0.00000  Uiso   1.00
H983   H     0.38984   0.71975   0.84326   0.00000  Uiso   1.00
N984   N     0.12103   0.91652   0.79983   0.00000  Uiso   1.00
H985   H     0.11157   0.94711   0.82404   0.00000  Uiso   1.00
H986   H     0.11947   0.92305   0.75584   0.00000  Uiso   1.00
O987   O     0.75000   0.76280   0.88092   0.00000  Uiso   1.00
O988   O     0.75000   0.90387   0.78575   0.00000  Uiso   1.00
O989   O     0.75000   0.90387   0.88092   0.00000  Uiso   1.00
O990   O     0.75000   0.76280   0.78575   0.00000  Uiso   1.00
C991   C     0.75001   0.74003   0.83332   0.00000  Uiso   1.00
C992   C     0.74999   0.92664   0.83335   0.00000  Uiso   1.00
O993   O     0.68513   0.83333   0.88093   0.00000  Uiso   1.00
O994   O     0.81487   0.83333   0.78573   0.00000  Uiso   1.00
O995   O     0.81487   0.83333   0.88093   0.00000  Uiso   1.00
O996   O     0.68513   0.83333   0.78573   0.00000  Uiso   1.00
C997   C     0.66443   0.83295   0.83337   0.00000  Uiso   1.00
C998   C     0.83557   0.83373   0.83330   0.00000  Uiso   1.00
Cu999  Cu    0.75000   0.83333   0.88969   0.00000  Uiso   1.00
Cu1000 Cu    0.75000   0.83333   0.77697   0.00000  Uiso   1.00
N1001  N     0.75000   0.83333   0.69227   0.00000  Uiso   1.00
N1002  N     0.75000   0.83333   0.97439   0.00000  Uiso   1.00
C1003  C     0.90614   0.87596   0.81512   0.00000  Uiso   1.00
C1004  C     0.59375   0.79123   0.85210   0.00000  Uiso   1.00
C1005  C     0.90591   0.79242   0.85277   0.00000  Uiso   1.00
C1006  C     0.59420   0.87481   0.81459   0.00000  Uiso   1.00
C1007  C     0.88366   0.83398   0.83334   0.00000  Uiso   1.00
C1008  C     0.61635   0.83298   0.83349   0.00000  Uiso   1.00
C1009  C     0.95283   0.79257   0.85606   0.00000  Uiso   1.00
C1010  C     0.54721   0.87514   0.81222   0.00000  Uiso   1.00
C1011  C     0.95298   0.87579   0.81278   0.00000  Uiso   1.00
C1012  C     0.54698   0.79191   0.85544   0.00000  Uiso   1.00
C1013  C     0.97646   0.83403   0.83428   0.00000  Uiso   1.00
C1014  C     0.52354   0.83371   0.83399   0.00000  Uiso   1.00
C1015  C     0.97668   0.75295   0.88055   0.00000  Uiso   1.00
C1016  C     0.52334   0.91526   0.78885   0.00000  Uiso   1.00
C1017  C     0.97712   0.91569   0.78909   0.00000  Uiso   1.00
C1018  C     0.52288   0.75252   0.88030   0.00000  Uiso   1.00
C1019  C     0.75000   0.68847   0.83331   0.00000  Uiso   1.00
C1020  C     0.75000   0.97819   0.83336   0.00000  Uiso   1.00
N1021  N     0.95432   0.71291   0.90814   0.00000  Uiso   1.00
H1022  H     0.96377   0.71178   0.95114   0.00000  Uiso   1.00
H1023  H     0.96371   0.67997   0.88845   0.00000  Uiso   1.00
N1024  N     0.54567   0.95601   0.76267   0.00000  Uiso   1.00
H1025  H     0.53629   0.98843   0.78351   0.00000  Uiso   1.00
H1026  H     0.53621   0.95825   0.71972   0.00000  Uiso   1.00
N1027  N     0.95623   0.95722   0.76233   0.00000  Uiso   1.00
H1028  H     0.93948   0.97835   0.79280   0.00000  Uiso   1.00
H1029  H     0.93563   0.94555   0.72912   0.00000  Uiso   1.00
N1030  N     0.54385   0.71181   0.90865   0.00000  Uiso   1.00
H1031  H     0.56501   0.72452   0.94075   0.00000  Uiso   1.00
H1032  H     0.56007   0.68944   0.87892   0.00000  Uiso   1.00
N1033  N     0.88090   0.91912   0.80112   0.00000  Uiso   1.00
H1034  H     0.86025   0.91150   0.76640   0.00000  Uiso   1.00
H1035  H     0.86152   0.92918   0.83635   0.00000  Uiso   1.00
N1036  N     0.61872   0.74766   0.86514   0.00000  Uiso   1.00
H1037  H     0.63750   0.73760   0.82936   0.00000  Uiso   1.00
H1038  H     0.63996   0.75479   0.89940   0.00000  Uiso   1.00
N1039  N     0.87931   0.75033   0.86675   0.00000  Uiso   1.00
H1040  H     0.87983   0.74410   0.91083   0.00000  Uiso   1.00
H1041  H     0.88984   0.71975   0.84326   0.00000  Uiso   1.00
N1042  N     0.62103   0.91652   0.79983   0.00000  Uiso   1.00
H1043  H     0.61157   0.94711   0.82404   0.00000  Uiso   1.00
H1044  H     0.61947   0.92305   0.75584   0.00000  Uiso   1.00
loop_
_geom_bond_atom_site_label_1
_geom_bond_atom_site_label_2
_geom_bond_distance
_geom_bond_site_symmetry_2
_ccdc_geom_bond_type
O1     C5      1.273   .     A
O1     Cu13    1.931   .     S
O2     C6      1.273   .     A
O2     Cu14    1.931   .     S
O3     Cu13    1.931   .     S
O3     C6      1.274   .     A
O4     Cu14    1.931   .     S
O4     C5      1.274   .     A
C5     C33     1.403   .     S
C6     C34     1.403   .     S
O7     Cu13    1.970   .     S
O7     C11     1.276   .     A
O8     C12     1.276   .     A
O8     Cu14    1.970   .     S
O9     C12     1.277   .     A
O9     Cu13    1.970   .     S
O10    C11     1.277   .     A
O10    Cu14    1.970   .     S
C11    C22     1.453   .     S
C12    C21     1.453   .     S
Cu13   Cu14    2.635   .     S
Cu13   N16     1.980   .     S
Cu14   N15     1.980   .     S
N15    N712    1.197   1_554 S
N16    N363    1.197   .     S
C17    C25     1.416   .     A
C17    C21     1.397   .     A
C17    N47     1.437   .     S
C18    N50     1.438   .     S
C18    C22     1.397   .     A
C18    C26     1.415   .     A
C19    N53     1.439   .     S
C19    C23     1.420   .     A
C19    C21     1.392   .     A
C20    N56     1.439   .     S
C20    C22     1.392   .     A
C20    C24     1.420   .     A
C23    C27     1.430   .     A
C23    C29     1.417   .     A
C24    C28     1.431   .     A
C24    C30     1.418   .     A
C25    C31     1.422   .     A
C25    C27     1.431   .     A
C26    C32     1.422   .     A
C26    C28     1.430   .     A
C27    C86     1.422   .     S
C28    C85     1.422   1_455 S
C29    N35     1.437   .     S
C29    C90     1.396   .     S
C30    N38     1.437   .     S
C30    C89     1.396   1_455 S
C31    N41     1.438   .     S
C31    C88     1.396   .     S
C32    N44     1.438   .     S
C32    C87     1.396   1_455 S
C33    C266    1.187   1_545 S
C34    C149    1.187   .     S
N35    H37     1.046   .     S
N35    H36     1.046   .     S
N38    H40     1.046   .     S
N38    H39     1.046   .     S
N41    H42     1.045   .     S
N41    H43     1.045   .     S
N44    H45     1.045   .     S
N44    H46     1.045   .     S
N47    H48     1.045   .     S
N47    H49     1.046   .     S
N50    H52     1.045   .     S
N50    H51     1.046   .     S
N53    H55     1.045   .     S
N53    H54     1.045   .     S
N56    H58     1.045   .     S
N56    H57     1.045   .     S
O59    C63     1.273   .     A
O59    Cu71    1.931   .     S
O60    C64     1.273   .     A
O60    Cu72    1.931   .     S
O61    Cu71    1.931   .     S
O61    C64     1.274   .     A
O62    Cu72    1.931   .     S
O62    C63     1.274   .     A
C63    C91     1.403   .     S
C64    C92     1.403   .     S
O65    Cu71    1.970   .     S
O65    C69     1.276   .     A
O66    C70     1.276   .     A
O66    Cu72    1.970   .     S
O67    C70     1.277   .     A
O67    Cu71    1.970   .     S
O68    C69     1.277   .     A
O68    Cu72    1.970   .     S
C69    C80     1.453   .     S
C70    C79     1.453   .     S
Cu71   Cu72    2.635   .     S
Cu71   N74     1.980   .     S
Cu72   N73     1.980   .     S
N73    N770    1.197   1_554 S
N74    N421    1.197   .     S
C75    C83     1.416   .     A
C75    C79     1.397   .     A
C75    N105    1.437   .     S
C76    N108    1.438   .     S
C76    C80     1.397   .     A
C76    C84     1.415   .     A
C77    N111    1.439   .     S
C77    C81     1.420   .     A
C77    C79     1.392   .     A
C78    N114    1.439   .     S
C78    C80     1.392   .     A
C78    C82     1.420   .     A
C81    C85     1.430   .     A
C81    C87     1.417   .     A
C82    C86     1.431   .     A
C82    C88     1.418   .     A
C83    C89     1.422   .     A
C83    C85     1.431   .     A
C84    C90     1.422   .     A
C84    C86     1.430   .     A
C85    C28     1.422   1_655 S
C87    N93     1.437   .     S
C87    C32     1.396   1_655 S
C88    N96     1.437   .     S
C89    N99     1.438   .     S
C89    C30     1.396   1_655 S
C90    N102    1.438   .     S
C91    C324    1.187   1_545 S
C92    C207    1.187   .     S
N93    H95     1.046   .     S
N93    H94     1.046   .     S
N96    H98     1.046   .     S
N96    H97     1.046   .     S
N99    H100    1.045   .     S
N99    H101    1.045   .     S
N102   H103    1.045   .     S
N102   H104    1.045   .     S
N105   H106    1.045   .     S
N105   H107    1.046   .     S
N108   H110    1.045   .     S
N108   H109    1.046   .     S
N111   H113    1.045   .     S
N111   H112    1.045   .     S
N114   H116    1.045   .     S
N114   H115    1.045   .     S
O117   C121    1.273   .     A
O117   Cu129   1.931   .     S
O118   C122    1.273   .     A
O118   Cu130   1.931   .     S
O119   Cu129   1.931   .     S
O119   C122    1.274   .     A
O120   Cu130   1.931   .     S
O120   C121    1.274   .     A
C121   C149    1.403   .     S
C122   C150    1.403   .     S
O123   Cu129   1.970   .     S
O123   C127    1.276   .     A
O124   C128    1.276   .     A
O124   Cu130   1.970   .     S
O125   C128    1.277   .     A
O125   Cu129   1.970   .     S
O126   C127    1.277   .     A
O126   Cu130   1.970   .     S
C127   C138    1.453   .     S
C128   C137    1.453   .     S
Cu129  Cu130   2.635   .     S
Cu129  N132    1.980   .     S
Cu130  N131    1.980   .     S
N131   N828    1.197   1_554 S
N132   N479    1.197   .     S
C133   C141    1.416   .     A
C133   C137    1.397   .     A
C133   N163    1.437   .     S
C134   N166    1.438   .     S
C134   C138    1.397   .     A
C134   C142    1.415   .     A
C135   N169    1.439   .     S
C135   C139    1.420   .     A
C135   C137    1.392   .     A
C136   N172    1.439   .     S
C136   C138    1.392   .     A
C136   C140    1.420   .     A
C139   C143    1.430   .     A
C139   C145    1.417   .     A
C140   C144    1.431   .     A
C140   C146    1.418   .     A
C141   C147    1.422   .     A
C141   C143    1.431   .     A
C142   C148    1.422   .     A
C142   C144    1.430   .     A
C143   C202    1.422   .     S
C144   C201    1.422   1_455 S
C145   N151    1.437   .     S
C145   C206    1.396   .     S
C146   N154    1.437   .     S
C146   C205    1.396   1_455 S
C147   N157    1.438   .     S
C147   C204    1.396   .     S
C148   N160    1.438   .     S
C148   C203    1.396   1_455 S
C150   C265    1.187   .     S
N151   H153    1.046   .     S
N151   H152    1.046   .     S
N154   H156    1.046   .     S
N154   H155    1.046   .     S
N157   H158    1.045   .     S
N157   H159    1.045   .     S
N160   H161    1.045   .     S
N160   H162    1.045   .     S
N163   H164    1.045   .     S
N163   H165    1.046   .     S
N166   H168    1.045   .     S
N166   H167    1.046   .     S
N169   H171    1.045   .     S
N169   H170    1.045   .     S
N172   H174    1.045   .     S
N172   H173    1.045   .     S
O175   C179    1.273   .     A
O175   Cu187   1.931   .     S
O176   C180    1.273   .     A
O176   Cu188   1.931   .     S
O177   Cu187   1.931   .     S
O177   C180    1.274   .     A
O178   Cu188   1.931   .     S
O178   C179    1.274   .     A
C179   C207    1.403   .     S
C180   C208    1.403   .     S
O181   Cu187   1.970   .     S
O181   C185    1.276   .     A
O182   C186    1.276   .     A
O182   Cu188   1.970   .     S
O183   C186    1.277   .     A
O183   Cu187   1.970   .     S
O184   C185    1.277   .     A
O184   Cu188   1.970   .     S
C185   C196    1.453   .     S
C186   C195    1.453   .     S
Cu187  Cu188   2.635   .     S
Cu187  N190    1.980   .     S
Cu188  N189    1.980   .     S
N189   N886    1.197   1_554 S
N190   N537    1.197   .     S
C191   C199    1.416   .     A
C191   C195    1.397   .     A
C191   N221    1.437   .     S
C192   N224    1.438   .     S
C192   C196    1.397   .     A
C192   C200    1.415   .     A
C193   N227    1.439   .     S
C193   C197    1.420   .     A
C193   C195    1.392   .     A
C194   N230    1.439   .     S
C194   C196    1.392   .     A
C194   C198    1.420   .     A
C197   C201    1.430   .     A
C197   C203    1.417   .     A
C198   C202    1.431   .     A
C198   C204    1.418   .     A
C199   C205    1.422   .     A
C199   C201    1.431   .     A
C200   C206    1.422   .     A
C200   C202    1.430   .     A
C201   C144    1.422   1_655 S
C203   N209    1.437   .     S
C203   C148    1.396   1_655 S
C204   N212    1.437   .     S
C205   N215    1.438   .     S
C205   C146    1.396   1_655 S
C206   N218    1.438   .     S
C208   C323    1.187   .     S
N209   H211    1.046   .     S
N209   H210    1.046   .     S
N212   H214    1.046   .     S
N212   H213    1.046   .     S
N215   H216    1.045   .     S
N215   H217    1.045   .     S
N218   H219    1.045   .     S
N218   H220    1.045   .     S
N221   H222    1.045   .     S
N221   H223    1.046   .     S
N224   H226    1.045   .     S
N224   H225    1.046   .     S
N227   H229    1.045   .     S
N227   H228    1.045   .     S
N230   H232    1.045   .     S
N230   H231    1.045   .     S
O233   C237    1.273   .     A
O233   Cu245   1.931   .     S
O234   C238    1.273   .     A
O234   Cu246   1.931   .     S
O235   Cu245   1.931   .     S
O235   C238    1.274   .     A
O236   Cu246   1.931   .     S
O236   C237    1.274   .     A
C237   C265    1.403   .     S
C238   C266    1.403   .     S
O239   Cu245   1.970   .     S
O239   C243    1.276   .     A
O240   C244    1.276   .     A
O240   Cu246   1.970   .     S
O241   C244    1.277   .     A
O241   Cu245   1.970   .     S
O242   C243    1.277   .     A
O242   Cu246   1.970   .     S
C243   C254    1.453   .     S
C244   C253    1.453   .     S
Cu245  Cu246   2.635   .     S
Cu245  N248    1.980   .     S
Cu246  N247    1.980   .     S
N247   N944    1.197   1_554 S
N248   N595    1.197   .     S
C249   C257    1.416   .     A
C249   C253    1.397   .     A
C249   N279    1.437   .     S
C250   N282    1.438   .     S
C250   C254    1.397   .     A
C250   C258    1.415   .     A
C251   N285    1.439   .     S
C251   C255    1.420   .     A
C251   C253    1.392   .     A
C252   N288    1.439   .     S
C252   C254    1.392   .     A
C252   C256    1.420   .     A
C255   C259    1.430   .     A
C255   C261    1.417   .     A
C256   C260    1.431   .     A
C256   C262    1.418   .     A
C257   C263    1.422   .     A
C257   C259    1.431   .     A
C258   C264    1.422   .     A
C258   C260    1.430   .     A
C259   C318    1.422   .     S
C260   C317    1.422   1_455 S
C261   N267    1.437   .     S
C261   C322    1.396   .     S
C262   N270    1.437   .     S
C262   C321    1.396   1_455 S
C263   N273    1.438   .     S
C263   C320    1.396   .     S
C264   N276    1.438   .     S
C264   C319    1.396   1_455 S
C266   C33     1.187   1_565 S
N267   H269    1.046   .     S
N267   H268    1.046   .     S
N270   H272    1.046   .     S
N270   H271    1.046   .     S
N273   H274    1.045   .     S
N273   H275    1.045   .     S
N276   H277    1.045   .     S
N276   H278    1.045   .     S
N279   H280    1.045   .     S
N279   H281    1.046   .     S
N282   H284    1.045   .     S
N282   H283    1.046   .     S
N285   H287    1.045   .     S
N285   H286    1.045   .     S
N288   H290    1.045   .     S
N288   H289    1.045   .     S
O291   C295    1.273   .     A
O291   Cu303   1.931   .     S
O292   C296    1.273   .     A
O292   Cu304   1.931   .     S
O293   Cu303   1.931   .     S
O293   C296    1.274   .     A
O294   Cu304   1.931   .     S
O294   C295    1.274   .     A
C295   C323    1.403   .     S
C296   C324    1.403   .     S
O297   Cu303   1.970   .     S
O297   C301    1.276   .     A
O298   C302    1.276   .     A
O298   Cu304   1.970   .     S
O299   C302    1.277   .     A
O299   Cu303   1.970   .     S
O300   C301    1.277   .     A
O300   Cu304   1.970   .     S
C301   C312    1.453   .     S
C302   C311    1.453   .     S
Cu303  Cu304   2.635   .     S
Cu303  N306    1.980   .     S
Cu304  N305    1.980   .     S
N305   N1002   1.197   1_554 S
N306   N653    1.197   .     S
C307   C315    1.416   .     A
C307   C311    1.397   .     A
C307   N337    1.437   .     S
C308   N340    1.438   .     S
C308   C312    1.397   .     A
C308   C316    1.415   .     A
C309   N343    1.439   .     S
C309   C313    1.420   .     A
C309   C311    1.392   .     A
C310   N346    1.439   .     S
C310   C312    1.392   .     A
C310   C314    1.420   .     A
C313   C317    1.430   .     A
C313   C319    1.417   .     A
C314   C318    1.431   .     A
C314   C320    1.418   .     A
C315   C321    1.422   .     A
C315   C317    1.431   .     A
C316   C322    1.422   .     A
C316   C318    1.430   .     A
C317   C260    1.422   1_655 S
C319   N325    1.437   .     S
C319   C264    1.396   1_655 S
C320   N328    1.437   .     S
C321   N331    1.438   .     S
C321   C262    1.396   1_655 S
C322   N334    1.438   .     S
C324   C91     1.187   1_565 S
N325   H327    1.046   .     S
N325   H326    1.046   .     S
N328   H330    1.046   .     S
N328   H329    1.046   .     S
N331   H332    1.045   .     S
N331   H333    1.045   .     S
N334   H335    1.045   .     S
N334   H336    1.045   .     S
N337   H338    1.045   .     S
N337   H339    1.046   .     S
N340   H342    1.045   .     S
N340   H341    1.046   .     S
N343   H345    1.045   .     S
N343   H344    1.045   .     S
N346   H348    1.045   .     S
N346   H347    1.045   .     S
O349   C353    1.273   .     A
O349   Cu361   1.931   .     S
O350   C354    1.273   .     A
O350   Cu362   1.931   .     S
O351   Cu361   1.931   .     S
O351   C354    1.274   .     A
O352   Cu362   1.931   .     S
O352   C353    1.274   .     A
C353   C381    1.403   .     S
C354   C382    1.403   .     S
O355   Cu361   1.970   .     S
O355   C359    1.276   .     A
O356   C360    1.276   .     A
O356   Cu362   1.970   .     S
O357   C360    1.277   .     A
O357   Cu361   1.970   .     S
O358   C359    1.277   .     A
O358   Cu362   1.970   .     S
C359   C370    1.453   .     S
C360   C369    1.453   .     S
Cu361  Cu362   2.635   .     S
Cu361  N364    1.980   .     S
Cu362  N363    1.980   .     S
N364   N711    1.197   .     S
C365   C373    1.416   .     A
C365   C369    1.397   .     A
C365   N395    1.437   .     S
C366   N398    1.438   .     S
C366   C370    1.397   .     A
C366   C374    1.415   .     A
C367   N401    1.439   .     S
C367   C371    1.420   .     A
C367   C369    1.392   .     A
C368   N404    1.439   .     S
C368   C370    1.392   .     A
C368   C372    1.420   .     A
C371   C375    1.430   .     A
C371   C377    1.417   .     A
C372   C376    1.431   .     A
C372   C378    1.418   .     A
C373   C379    1.422   .     A
C373   C375    1.431   .     A
C374   C380    1.422   .     A
C374   C376    1.430   .     A
C375   C434    1.422   .     S
C376   C433    1.422   1_455 S
C377   N383    1.437   .     S
C377   C438    1.396   .     S
C378   N386    1.437   .     S
C378   C437    1.396   1_455 S
C379   N389    1.438   .     S
C379   C436    1.396   .     S
C380   N392    1.438   .     S
C380   C435    1.396   1_455 S
C381   C614    1.187   1_545 S
C382   C497    1.187   .     S
N383   H385    1.046   .     S
N383   H384    1.046   .     S
N386   H388    1.046   .     S
N386   H387    1.046   .     S
N389   H390    1.045   .     S
N389   H391    1.045   .     S
N392   H393    1.045   .     S
N392   H394    1.045   .     S
N395   H396    1.045   .     S
N395   H397    1.046   .     S
N398   H400    1.045   .     S
N398   H399    1.046   .     S
N401   H403    1.045   .     S
N401   H402    1.045   .     S
N404   H406    1.045   .     S
N404   H405    1.045   .     S
O407   C411    1.273   .     A
O407   Cu419   1.931   .     S
O408   C412    1.273   .     A
O408   Cu420   1.931   .     S
O409   Cu419   1.931   .     S
O409   C412    1.274   .     A
O410   Cu420   1.931   .     S
O410   C411    1.274   .     A
C411   C439    1.403   .     S
C412   C440    1.403   .     S
O413   Cu419   1.970   .     S
O413   C417    1.276   .     A
O414   C418    1.276   .     A
O414   Cu420   1.970   .     S
O415   C418    1.277   .     A
O415   Cu419   1.970   .     S
O416   C417    1.277   .     A
O416   Cu420   1.970   .     S
C417   C428    1.453   .     S
C418   C427    1.453   .     S
Cu419  Cu420   2.635   .     S
Cu419  N422    1.980   .     S
Cu420  N421    1.980   .     S
N422   N769    1.197   .     S
C423   C431    1.416   .     A
C423   C427    1.397   .     A
C423   N453    1.437   .     S
C424   N456    1.438   .     S
C424   C428    1.397   .     A
C424   C432    1.415   .     A
C425   N459    1.439   .     S
C425   C429    1.420   .     A
C425   C427    1.392   .     A
C426   N462    1.439   .     S
C426   C428    1.392   .     A
C426   C430    1.420   .     A
C429   C433    1.430   .     A
C429   C435    1.417   .     A
C430   C434    1.431   .     A
C430   C436    1.418   .     A
C431   C437    1.422   .     A
C431   C433    1.431   .     A
C432   C438    1.422   .     A
C432   C434    1.430   .     A
C433   C376    1.422   1_655 S
C435   N441    1.437   .     S
C435   C380    1.396   1_655 S
C436   N444    1.437   .     S
C437   N447    1.438   .     S
C437   C378    1.396   1_655 S
C438   N450    1.438   .     S
C439   C672    1.187   1_545 S
C440   C555    1.187   .     S
N441   H443    1.046   .     S
N441   H442    1.046   .     S
N444   H446    1.046   .     S
N444   H445    1.046   .     S
N447   H448    1.045   .     S
N447   H449    1.045   .     S
N450   H451    1.045   .     S
N450   H452    1.045   .     S
N453   H454    1.045   .     S
N453   H455    1.046   .     S
N456   H458    1.045   .     S
N456   H457    1.046   .     S
N459   H461    1.045   .     S
N459   H460    1.045   .     S
N462   H464    1.045   .     S
N462   H463    1.045   .     S
O465   C469    1.273   .     A
O465   Cu477   1.931   .     S
O466   C470    1.273   .     A
O466   Cu478   1.931   .     S
O467   Cu477   1.931   .     S
O467   C470    1.274   .     A
O468   Cu478   1.931   .     S
O468   C469    1.274   .     A
C469   C497    1.403   .     S
C470   C498    1.403   .     S
O471   Cu477   1.970   .     S
O471   C475    1.276   .     A
O472   C476    1.276   .     A
O472   Cu478   1.970   .     S
O473   C476    1.277   .     A
O473   Cu477   1.970   .     S
O474   C475    1.277   .     A
O474   Cu478   1.970   .     S
C475   C486    1.453   .     S
C476   C485    1.453   .     S
Cu477  Cu478   2.635   .     S
Cu477  N480    1.980   .     S
Cu478  N479    1.980   .     S
N480   N827    1.197   .     S
C481   C489    1.416   .     A
C481   C485    1.397   .     A
C481   N511    1.437   .     S
C482   N514    1.438   .     S
C482   C486    1.397   .     A
C482   C490    1.415   .     A
C483   N517    1.439   .     S
C483   C487    1.420   .     A
C483   C485    1.392   .     A
C484   N520    1.439   .     S
C484   C486    1.392   .     A
C484   C488    1.420   .     A
C487   C491    1.430   .     A
C487   C493    1.417   .     A
C488   C492    1.431   .     A
C488   C494    1.418   .     A
C489   C495    1.422   .     A
C489   C491    1.431   .     A
C490   C496    1.422   .     A
C490   C492    1.430   .     A
C491   C550    1.422   .     S
C492   C549    1.422   1_455 S
C493   N499    1.437   .     S
C493   C554    1.396   .     S
C494   N502    1.437   .     S
C494   C553    1.396   1_455 S
C495   N505    1.438   .     S
C495   C552    1.396   .     S
C496   N508    1.438   .     S
C496   C551    1.396   1_455 S
C498   C613    1.187   .     S
N499   H501    1.046   .     S
N499   H500    1.046   .     S
N502   H504    1.046   .     S
N502   H503    1.046   .     S
N505   H506    1.045   .     S
N505   H507    1.045   .     S
N508   H509    1.045   .     S
N508   H510    1.045   .     S
N511   H512    1.045   .     S
N511   H513    1.046   .     S
N514   H516    1.045   .     S
N514   H515    1.046   .     S
N517   H519    1.045   .     S
N517   H518    1.045   .     S
N520   H522    1.045   .     S
N520   H521    1.045   .     S
O523   C527    1.273   .     A
O523   Cu535   1.931   .     S
O524   C528    1.273   .     A
O524   Cu536   1.931   .     S
O525   Cu535   1.931   .     S
O525   C528    1.274   .     A
O526   Cu536   1.931   .     S
O526   C527    1.274   .     A
C527   C555    1.403   .     S
C528   C556    1.403   .     S
O529   Cu535   1.970   .     S
O529   C533    1.276   .     A
O530   C534    1.276   .     A
O530   Cu536   1.970   .     S
O531   C534    1.277   .     A
O531   Cu535   1.970   .     S
O532   C533    1.277   .     A
O532   Cu536   1.970   .     S
C533   C544    1.453   .     S
C534   C543    1.453   .     S
Cu535  Cu536   2.635   .     S
Cu535  N538    1.980   .     S
Cu536  N537    1.980   .     S
N538   N885    1.197   .     S
C539   C547    1.416   .     A
C539   C543    1.397   .     A
C539   N569    1.437   .     S
C540   N572    1.438   .     S
C540   C544    1.397   .     A
C540   C548    1.415   .     A
C541   N575    1.439   .     S
C541   C545    1.420   .     A
C541   C543    1.392   .     A
C542   N578    1.439   .     S
C542   C544    1.392   .     A
C542   C546    1.420   .     A
C545   C549    1.430   .     A
C545   C551    1.417   .     A
C546   C550    1.431   .     A
C546   C552    1.418   .     A
C547   C553    1.422   .     A
C547   C549    1.431   .     A
C548   C554    1.422   .     A
C548   C550    1.430   .     A
C549   C492    1.422   1_655 S
C551   N557    1.437   .     S
C551   C496    1.396   1_655 S
C552   N560    1.437   .     S
C553   N563    1.438   .     S
C553   C494    1.396   1_655 S
C554   N566    1.438   .     S
C556   C671    1.187   .     S
N557   H559    1.046   .     S
N557   H558    1.046   .     S
N560   H562    1.046   .     S
N560   H561    1.046   .     S
N563   H564    1.045   .     S
N563   H565    1.045   .     S
N566   H567    1.045   .     S
N566   H568    1.045   .     S
N569   H570    1.045   .     S
N569   H571    1.046   .     S
N572   H574    1.045   .     S
N572   H573    1.046   .     S
N575   H577    1.045   .     S
N575   H576    1.045   .     S
N578   H580    1.045   .     S
N578   H579    1.045   .     S
O581   C585    1.273   .     A
O581   Cu593   1.931   .     S
O582   C586    1.273   .     A
O582   Cu594   1.931   .     S
O583   Cu593   1.931   .     S
O583   C586    1.274   .     A
O584   Cu594   1.931   .     S
O584   C585    1.274   .     A
C585   C613    1.403   .     S
C586   C614    1.403   .     S
O587   Cu593   1.970   .     S
O587   C591    1.276   .     A
O588   C592    1.276   .     A
O588   Cu594   1.970   .     S
O589   C592    1.277   .     A
O589   Cu593   1.970   .     S
O590   C591    1.277   .     A
O590   Cu594   1.970   .     S
C591   C602    1.453   .     S
C592   C601    1.453   .     S
Cu593  Cu594   2.635   .     S
Cu593  N596    1.980   .     S
Cu594  N595    1.980   .     S
N596   N943    1.197   .     S
C597   C605    1.416   .     A
C597   C601    1.397   .     A
C597   N627    1.437   .     S
C598   N630    1.438   .     S
C598   C602    1.397   .     A
C598   C606    1.415   .     A
C599   N633    1.439   .     S
C599   C603    1.420   .     A
C599   C601    1.392   .     A
C600   N636    1.439   .     S
C600   C602    1.392   .     A
C600   C604    1.420   .     A
C603   C607    1.430   .     A
C603   C609    1.417   .     A
C604   C608    1.431   .     A
C604   C610    1.418   .     A
C605   C611    1.422   .     A
C605   C607    1.431   .     A
C606   C612    1.422   .     A
C606   C608    1.430   .     A
C607   C666    1.422   .     S
C608   C665    1.422   1_455 S
C609   N615    1.437   .     S
C609   C670    1.396   .     S
C610   N618    1.437   .     S
C610   C669    1.396   1_455 S
C611   N621    1.438   .     S
C611   C668    1.396   .     S
C612   N624    1.438   .     S
C612   C667    1.396   1_455 S
C614   C381    1.187   1_565 S
N615   H617    1.046   .     S
N615   H616    1.046   .     S
N618   H620    1.046   .     S
N618   H619    1.046   .     S
N621   H622    1.045   .     S
N621   H623    1.045   .     S
N624   H625    1.045   .     S
N624   H626    1.045   .     S
N627   H628    1.045   .     S
N627   H629    1.046   .     S
N630   H632    1.045   .     S
N630   H631    1.046   .     S
N633   H635    1.045   .     S
N633   H634    1.045   .     S
N636   H638    1.045   .     S
N636   H637    1.045   .     S
O639   C643    1.273   .     A
O639   Cu651   1.931   .     S
O640   C644    1.273   .     A
O640   Cu652   1.931   .     S
O641   Cu651   1.931   .     S
O641   C644    1.274   .     A
O642   Cu652   1.931   .     S
O642   C643    1.274   .     A
C643   C671    1.403   .     S
C644   C672    1.403   .     S
O645   Cu651   1.970   .     S
O645   C649    1.276   .     A
O646   C650    1.276   .     A
O646   Cu652   1.970   .     S
O647   C650    1.277   .     A
O647   Cu651   1.970   .     S
O648   C649    1.277   .     A
O648   Cu652   1.970   .     S
C649   C660    1.453   .     S
C650   C659    1.453   .     S
Cu651  Cu652   2.635   .     S
Cu651  N654    1.980   .     S
Cu652  N653    1.980   .     S
N654   N1001   1.197   .     S
C655   C663    1.416   .     A
C655   C659    1.397   .     A
C655   N685    1.437   .     S
C656   N688    1.438   .     S
C656   C660    1.397   .     A
C656   C664    1.415   .     A
C657   N691    1.439   .     S
C657   C661    1.420   .     A
C657   C659    1.392   .     A
C658   N694    1.439   .     S
C658   C660    1.392   .     A
C658   C662    1.420   .     A
C661   C665    1.430   .     A
C661   C667    1.417   .     A
C662   C666    1.431   .     A
C662   C668    1.418   .     A
C663   C669    1.422   .     A
C663   C665    1.431   .     A
C664   C670    1.422   .     A
C664   C666    1.430   .     A
C665   C608    1.422   1_655 S
C667   N673    1.437   .     S
C667   C612    1.396   1_655 S
C668   N676    1.437   .     S
C669   N679    1.438   .     S
C669   C610    1.396   1_655 S
C670   N682    1.438   .     S
C672   C439    1.187   1_565 S
N673   H675    1.046   .     S
N673   H674    1.046   .     S
N676   H678    1.046   .     S
N676   H677    1.046   .     S
N679   H680    1.045   .     S
N679   H681    1.045   .     S
N682   H683    1.045   .     S
N682   H684    1.045   .     S
N685   H686    1.045   .     S
N685   H687    1.046   .     S
N688   H690    1.045   .     S
N688   H689    1.046   .     S
N691   H693    1.045   .     S
N691   H692    1.045   .     S
N694   H696    1.045   .     S
N694   H695    1.045   .     S
O697   C701    1.273   .     A
O697   Cu709   1.931   .     S
O698   C702    1.273   .     A
O698   Cu710   1.931   .     S
O699   Cu709   1.931   .     S
O699   C702    1.274   .     A
O700   Cu710   1.931   .     S
O700   C701    1.274   .     A
C701   C729    1.403   .     S
C702   C730    1.403   .     S
O703   Cu709   1.970   .     S
O703   C707    1.276   .     A
O704   C708    1.276   .     A
O704   Cu710   1.970   .     S
O705   C708    1.277   .     A
O705   Cu709   1.970   .     S
O706   C707    1.277   .     A
O706   Cu710   1.970   .     S
C707   C718    1.453   .     S
C708   C717    1.453   .     S
Cu709  Cu710   2.635   .     S
Cu709  N712    1.980   .     S
Cu710  N711    1.980   .     S
N712   N15     1.197   1_556 S
C713   C721    1.416   .     A
C713   C717    1.397   .     A
C713   N743    1.437   .     S
C714   N746    1.438   .     S
C714   C718    1.397   .     A
C714   C722    1.415   .     A
C715   N749    1.439   .     S
C715   C719    1.420   .     A
C715   C717    1.392   .     A
C716   N752    1.439   .     S
C716   C718    1.392   .     A
C716   C720    1.420   .     A
C719   C723    1.430   .     A
C719   C725    1.417   .     A
C720   C724    1.431   .     A
C720   C726    1.418   .     A
C721   C727    1.422   .     A
C721   C723    1.431   .     A
C722   C728    1.422   .     A
C722   C724    1.430   .     A
C723   C782    1.422   .     S
C724   C781    1.422   1_455 S
C725   N731    1.437   .     S
C725   C786    1.396   .     S
C726   N734    1.437   .     S
C726   C785    1.396   1_455 S
C727   N737    1.438   .     S
C727   C784    1.396   .     S
C728   N740    1.438   .     S
C728   C783    1.396   1_455 S
C729   C962    1.187   1_545 S
C730   C845    1.187   .     S
N731   H733    1.046   .     S
N731   H732    1.046   .     S
N734   H736    1.046   .     S
N734   H735    1.046   .     S
N737   H738    1.045   .     S
N737   H739    1.045   .     S
N740   H741    1.045   .     S
N740   H742    1.045   .     S
N743   H744    1.045   .     S
N743   H745    1.046   .     S
N746   H748    1.045   .     S
N746   H747    1.046   .     S
N749   H751    1.045   .     S
N749   H750    1.045   .     S
N752   H754    1.045   .     S
N752   H753    1.045   .     S
O755   C759    1.273   .     A
O755   Cu767   1.931   .     S
O756   C760    1.273   .     A
O756   Cu768   1.931   .     S
O757   Cu767   1.931   .     S
O757   C760    1.274   .     A
O758   Cu768   1.931   .     S
O758   C759    1.274   .     A
C759   C787    1.403   .     S
C760   C788    1.403   .     S
O761   Cu767   1.970   .     S
O761   C765    1.276   .     A
O762   C766    1.276   .     A
O762   Cu768   1.970   .     S
O763   C766    1.277   .     A
O763   Cu767   1.970   .     S
O764   C765    1.277   .     A
O764   Cu768   1.970   .     S
C765   C776    1.453   .     S
C766   C775    1.453   .     S
Cu767  Cu768   2.635   .     S
Cu767  N770    1.980   .     S
Cu768  N769    1.980   .     S
N770   N73     1.197   1_556 S
C771   C779    1.416   .     A
C771   C775    1.397   .     A
C771   N801    1.437   .     S
C772   N804    1.438   .     S
C772   C776    1.397   .     A
C772   C780    1.415   .     A
C773   N807    1.439   .     S
C773   C777    1.420   .     A
C773   C775    1.392   .     A
C774   N810    1.439   .     S
C774   C776    1.392   .     A
C774   C778    1.420   .     A
C777   C781    1.430   .     A
C777   C783    1.417   .     A
C778   C782    1.431   .     A
C778   C784    1.418   .     A
C779   C785    1.422   .     A
C779   C781    1.431   .     A
C780   C786    1.422   .     A
C780   C782    1.430   .     A
C781   C724    1.422   1_655 S
C783   N789    1.437   .     S
C783   C728    1.396   1_655 S
C784   N792    1.437   .     S
C785   N795    1.438   .     S
C785   C726    1.396   1_655 S
C786   N798    1.438   .     S
C787   C1020   1.187   1_545 S
C788   C903    1.187   .     S
N789   H791    1.046   .     S
N789   H790    1.046   .     S
N792   H794    1.046   .     S
N792   H793    1.046   .     S
N795   H796    1.045   .     S
N795   H797    1.045   .     S
N798   H799    1.045   .     S
N798   H800    1.045   .     S
N801   H802    1.045   .     S
N801   H803    1.046   .     S
N804   H806    1.045   .     S
N804   H805    1.046   .     S
N807   H809    1.045   .     S
N807   H808    1.045   .     S
N810   H812    1.045   .     S
N810   H811    1.045   .     S
O813   C817    1.273   .     A
O813   Cu825   1.931   .     S
O814   C818    1.273   .     A
O814   Cu826   1.931   .     S
O815   Cu825   1.931   .     S
O815   C818    1.274   .     A
O816   Cu826   1.931   .     S
O816   C817    1.274   .     A
C817   C845    1.403   .     S
C818   C846    1.403   .     S
O819   Cu825   1.970   .     S
O819   C823    1.276   .     A
O820   C824    1.276   .     A
O820   Cu826   1.970   .     S
O821   C824    1.277   .     A
O821   Cu825   1.970   .     S
O822   C823    1.277   .     A
O822   Cu826   1.970   .     S
C823   C834    1.453   .     S
C824   C833    1.453   .     S
Cu825  Cu826   2.635   .     S
Cu825  N828    1.980   .     S
Cu826  N827    1.980   .     S
N828   N131    1.197   1_556 S
C829   C837    1.416   .     A
C829   C833    1.397   .     A
C829   N859    1.437   .     S
C830   N862    1.438   .     S
C830   C834    1.397   .     A
C830   C838    1.415   .     A
C831   N865    1.439   .     S
C831   C835    1.420   .     A
C831   C833    1.392   .     A
C832   N868    1.439   .     S
C832   C834    1.392   .     A
C832   C836    1.420   .     A
C835   C839    1.430   .     A
C835   C841    1.417   .     A
C836   C840    1.431   .     A
C836   C842    1.418   .     A
C837   C843    1.422   .     A
C837   C839    1.431   .     A
C838   C844    1.422   .     A
C838   C840    1.430   .     A
C839   C898    1.422   .     S
C840   C897    1.422   1_455 S
C841   N847    1.437   .     S
C841   C902    1.396   .     S
C842   N850    1.437   .     S
C842   C901    1.396   1_455 S
C843   N853    1.438   .     S
C843   C900    1.396   .     S
C844   N856    1.438   .     S
C844   C899    1.396   1_455 S
C846   C961    1.187   .     S
N847   H849    1.046   .     S
N847   H848    1.046   .     S
N850   H852    1.046   .     S
N850   H851    1.046   .     S
N853   H854    1.045   .     S
N853   H855    1.045   .     S
N856   H857    1.045   .     S
N856   H858    1.045   .     S
N859   H860    1.045   .     S
N859   H861    1.046   .     S
N862   H864    1.045   .     S
N862   H863    1.046   .     S
N865   H867    1.045   .     S
N865   H866    1.045   .     S
N868   H870    1.045   .     S
N868   H869    1.045   .     S
O871   C875    1.273   .     A
O871   Cu883   1.931   .     S
O872   C876    1.273   .     A
O872   Cu884   1.931   .     S
O873   Cu883   1.931   .     S
O873   C876    1.274   .     A
O874   Cu884   1.931   .     S
O874   C875    1.274   .     A
C875   C903    1.403   .     S
C876   C904    1.403   .     S
O877   Cu883   1.970   .     S
O877   C881    1.276   .     A
O878   C882    1.276   .     A
O878   Cu884   1.970   .     S
O879   C882    1.277   .     A
O879   Cu883   1.970   .     S
O880   C881    1.277   .     A
O880   Cu884   1.970   .     S
C881   C892    1.453   .     S
C882   C891    1.453   .     S
Cu883  Cu884   2.635   .     S
Cu883  N886    1.980   .     S
Cu884  N885    1.980   .     S
N886   N189    1.197   1_556 S
C887   C895    1.416   .     A
C887   C891    1.397   .     A
C887   N917    1.437   .     S
C888   N920    1.438   .     S
C888   C892    1.397   .     A
C888   C896    1.415   .     A
C889   N923    1.439   .     S
C889   C893    1.420   .     A
C889   C891    1.392   .     A
C890   N926    1.439   .     S
C890   C892    1.392   .     A
C890   C894    1.420   .     A
C893   C897    1.430   .     A
C893   C899    1.417   .     A
C894   C898    1.431   .     A
C894   C900    1.418   .     A
C895   C901    1.422   .     A
C895   C897    1.431   .     A
C896   C902    1.422   .     A
C896   C898    1.430   .     A
C897   C840    1.422   1_655 S
C899   N905    1.437   .     S
C899   C844    1.396   1_655 S
C900   N908    1.437   .     S
C901   N911    1.438   .     S
C901   C842    1.396   1_655 S
C902   N914    1.438   .     S
C904   C1019   1.187   .     S
N905   H907    1.046   .     S
N905   H906    1.046   .     S
N908   H910    1.046   .     S
N908   H909    1.046   .     S
N911   H912    1.045   .     S
N911   H913    1.045   .     S
N914   H915    1.045   .     S
N914   H916    1.045   .     S
N917   H918    1.045   .     S
N917   H919    1.046   .     S
N920   H922    1.045   .     S
N920   H921    1.046   .     S
N923   H925    1.045   .     S
N923   H924    1.045   .     S
N926   H928    1.045   .     S
N926   H927    1.045   .     S
O929   C933    1.273   .     A
O929   Cu941   1.931   .     S
O930   C934    1.273   .     A
O930   Cu942   1.931   .     S
O931   Cu941   1.931   .     S
O931   C934    1.274   .     A
O932   Cu942   1.931   .     S
O932   C933    1.274   .     A
C933   C961    1.403   .     S
C934   C962    1.403   .     S
O935   Cu941   1.970   .     S
O935   C939    1.276   .     A
O936   C940    1.276   .     A
O936   Cu942   1.970   .     S
O937   C940    1.277   .     A
O937   Cu941   1.970   .     S
O938   C939    1.277   .     A
O938   Cu942   1.970   .     S
C939   C950    1.453   .     S
C940   C949    1.453   .     S
Cu941  Cu942   2.635   .     S
Cu941  N944    1.980   .     S
Cu942  N943    1.980   .     S
N944   N247    1.197   1_556 S
C945   C953    1.416   .     A
C945   C949    1.397   .     A
C945   N975    1.437   .     S
C946   N978    1.438   .     S
C946   C950    1.397   .     A
C946   C954    1.415   .     A
C947   N981    1.439   .     S
C947   C951    1.420   .     A
C947   C949    1.392   .     A
C948   N984    1.439   .     S
C948   C950    1.392   .     A
C948   C952    1.420   .     A
C951   C955    1.430   .     A
C951   C957    1.417   .     A
C952   C956    1.431   .     A
C952   C958    1.418   .     A
C953   C959    1.422   .     A
C953   C955    1.431   .     A
C954   C960    1.422   .     A
C954   C956    1.430   .     A
C955   C1014   1.422   .     S
C956   C1013   1.422   1_455 S
C957   N963    1.437   .     S
C957   C1018   1.396   .     S
C958   N966    1.437   .     S
C958   C1017   1.396   1_455 S
C959   N969    1.438   .     S
C959   C1016   1.396   .     S
C960   N972    1.438   .     S
C960   C1015   1.396   1_455 S
C962   C729    1.187   1_565 S
N963   H965    1.046   .     S
N963   H964    1.046   .     S
N966   H968    1.046   .     S
N966   H967    1.046   .     S
N969   H970    1.045   .     S
N969   H971    1.045   .     S
N972   H973    1.045   .     S
N972   H974    1.045   .     S
N975   H976    1.045   .     S
N975   H977    1.046   .     S
N978   H980    1.045   .     S
N978   H979    1.046   .     S
N981   H983    1.045   .     S
N981   H982    1.045   .     S
N984   H986    1.045   .     S
N984   H985    1.045   .     S
O987   C991    1.273   .     A
O987   Cu999   1.931   .     S
O988   C992    1.273   .     A
O988   Cu1000  1.931   .     S
O989   Cu999   1.931   .     S
O989   C992    1.274   .     A
O990   Cu1000  1.931   .     S
O990   C991    1.274   .     A
C991   C1019   1.403   .     S
C992   C1020   1.403   .     S
O993   Cu999   1.970   .     S
O993   C997    1.276   .     A
O994   C998    1.276   .     A
O994   Cu1000  1.970   .     S
O995   C998    1.277   .     A
O995   Cu999   1.970   .     S
O996   C997    1.277   .     A
O996   Cu1000  1.970   .     S
C997   C1008   1.453   .     S
C998   C1007   1.453   .     S
Cu999  Cu1000  2.635   .     S
Cu999  N1002   1.980   .     S
Cu1000 N1001   1.980   .     S
N1002  N305    1.197   1_556 S
C1003  C1011   1.416   .     A
C1003  C1007   1.397   .     A
C1003  N1033   1.437   .     S
C1004  N1036   1.438   .     S
C1004  C1008   1.397   .     A
C1004  C1012   1.415   .     A
C1005  N1039   1.439   .     S
C1005  C1009   1.420   .     A
C1005  C1007   1.392   .     A
C1006  N1042   1.439   .     S
C1006  C1008   1.392   .     A
C1006  C1010   1.420   .     A
C1009  C1013   1.430   .     A
C1009  C1015   1.417   .     A
C1010  C1014   1.431   .     A
C1010  C1016   1.418   .     A
C1011  C1017   1.422   .     A
C1011  C1013   1.431   .     A
C1012  C1018   1.422   .     A
C1012  C1014   1.430   .     A
C1013  C956    1.422   1_655 S
C1015  N1021   1.437   .     S
C1015  C960    1.396   1_655 S
C1016  N1024   1.437   .     S
C1017  N1027   1.438   .     S
C1017  C958    1.396   1_655 S
C1018  N1030   1.438   .     S
C1020  C787    1.187   1_565 S
N1021  H1023   1.046   .     S
N1021  H1022   1.046   .     S
N1024  H1026   1.046   .     S
N1024  H1025   1.046   .     S
N1027  H1028   1.045   .     S
N1027  H1029   1.045   .     S
N1030  H1031   1.045   .     S
N1030  H1032   1.045   .     S
N1033  H1034   1.045   .     S
N1033  H1035   1.046   .     S
N1036  H1038   1.045   .     S
N1036  H1037   1.046   .     S
N1039  H1041   1.045   .     S
N1039  H1040   1.045   .     S
N1042  H1044   1.045   .     S
N1042  H1043   1.045   .     S
