data_str_m2_o10_o18_pcu_sym.90
_audit_creation_date              2020-01-03
_audit_creation_method            'Materials Studio'
_symmetry_space_group_name_H-M    'P1'
_symmetry_Int_Tables_number       1
_symmetry_cell_setting            triclinic
loop_
_symmetry_equiv_pos_as_xyz
  x,y,z
_cell_length_a                    22.2695
_cell_length_b                    26.2741
_cell_length_c                    31.6603
_cell_angle_alpha                 94.1532
_cell_angle_beta                  75.1133
_cell_angle_gamma                 102.3942
loop_
_atom_site_label
_atom_site_type_symbol
_atom_site_fract_x
_atom_site_fract_y
_atom_site_fract_z
_atom_site_U_iso_or_equiv
_atom_site_adp_type
_atom_site_occupancy
C1     C     0.18161   0.26636   0.25027   0.00000  Uiso   1.00
C2     C     0.20528   0.17032   0.16686   0.00000  Uiso   1.00
C3     C     0.10474   0.15546   0.38046   0.00000  Uiso   1.00
C4     C     0.22861   0.17473   0.11920   0.00000  Uiso   1.00
C5     C     0.02651   0.11443   0.44277   0.00000  Uiso   1.00
C6     C     0.31010   0.20691   0.05505   0.00000  Uiso   1.00
C7     C     0.04350   0.12795   0.39893   0.00000  Uiso   1.00
C8     C     0.29170   0.19715   0.09968   0.00000  Uiso   1.00
C9     C     0.14773   0.17133   0.40656   0.00000  Uiso   1.00
C10    C     0.18507   0.15963   0.09336   0.00000  Uiso   1.00
C11    C     0.13271   0.15670   0.45049   0.00000  Uiso   1.00
C12    C     0.15172   0.06697   0.24974   0.00000  Uiso   1.00
C13    C     0.20251   0.16828   0.04813   0.00000  Uiso   1.00
C14    C     0.07067   0.12802   0.46846   0.00000  Uiso   1.00
C15    C     0.26586   0.19366   0.02941   0.00000  Uiso   1.00
C16    C     0.17764   0.16889   0.47671   0.00000  Uiso   1.00
C17    C     0.15842   0.15414   0.02141   0.00000  Uiso   1.00
C18    C     0.25361   0.01190   0.21778   0.00000  Uiso   1.00
C19    C     0.07973   0.32145   0.28225   0.00000  Uiso   1.00
C20    C     0.09609   0.12518   0.03772   0.00000  Uiso   1.00
C21    C     0.24142   0.19440   0.45957   0.00000  Uiso   1.00
C22    C     0.05339   0.11244   0.01168   0.00000  Uiso   1.00
C23    C     0.28443   0.20621   0.48544   0.00000  Uiso   1.00
C24    C     0.19130   0.32104   0.24372   0.00000  Uiso   1.00
C25    C     0.14203   0.01230   0.25630   0.00000  Uiso   1.00
C26    C     0.12803   0.16266   0.33309   0.00000  Uiso   1.00
Cu27   Cu    0.10737   0.16108   0.24516   0.00000  Uiso   1.00
Cu28   Cu    0.22596   0.17225   0.25483   0.00000  Uiso   1.00
H29    H     0.00623   0.09014   0.02561   0.00000  Uiso   1.00
H30    H     0.26062   0.20515   0.42590   0.00000  Uiso   1.00
H31    H     0.33290   0.20164   0.28645   0.00000  Uiso   1.00
H32    H     0.00044   0.13170   0.21355   0.00000  Uiso   1.00
H33    H     0.33282   0.22552   0.47079   0.00000  Uiso   1.00
H34    H     0.13704   0.14292   0.10987   0.00000  Uiso   1.00
H35    H     0.19314   0.19445   0.39120   0.00000  Uiso   1.00
H36    H     0.32608   0.20898   0.11910   0.00000  Uiso   1.00
H37    H     0.00965   0.11530   0.37920   0.00000  Uiso   1.00
H38    H     0.31241   0.09251   0.45647   0.00000  Uiso   1.00
H39    H     0.02546   0.22566   0.04065   0.00000  Uiso   1.00
H40    H     0.07872   0.11042   0.07038   0.00000  Uiso   1.00
N41    N     0.31506   0.18068   0.26212   0.00000  Uiso   1.00
N42    N     0.01827   0.15265   0.23788   0.00000  Uiso   1.00
N43    N     0.30329   0.03053   0.19692   0.00000  Uiso   1.00
N44    N     0.03005   0.30283   0.30313   0.00000  Uiso   1.00
O45    O     0.12815   0.23809   0.24686   0.00000  Uiso   1.00
O46    O     0.20518   0.09524   0.25314   0.00000  Uiso   1.00
O47    O     0.22829   0.24753   0.25502   0.00000  Uiso   1.00
O48    O     0.10504   0.08580   0.24497   0.00000  Uiso   1.00
O49    O     0.08851   0.15930   0.30854   0.00000  Uiso   1.00
O50    O     0.24482   0.17403   0.19145   0.00000  Uiso   1.00
O51    O     0.18866   0.16874   0.31671   0.00000  Uiso   1.00
O52    O     0.14468   0.16460   0.18329   0.00000  Uiso   1.00
C53    C     0.51494   0.26636   0.25027   0.00000  Uiso   1.00
C54    C     0.53861   0.17032   0.16686   0.00000  Uiso   1.00
C55    C     0.43808   0.15546   0.38046   0.00000  Uiso   1.00
C56    C     0.56194   0.17473   0.11920   0.00000  Uiso   1.00
C57    C     0.35984   0.11443   0.44277   0.00000  Uiso   1.00
C58    C     0.64344   0.20691   0.05505   0.00000  Uiso   1.00
C59    C     0.37683   0.12795   0.39893   0.00000  Uiso   1.00
C60    C     0.62503   0.19715   0.09968   0.00000  Uiso   1.00
C61    C     0.48106   0.17133   0.40656   0.00000  Uiso   1.00
C62    C     0.51841   0.15963   0.09336   0.00000  Uiso   1.00
C63    C     0.46604   0.15670   0.45049   0.00000  Uiso   1.00
C64    C     0.48506   0.06697   0.24974   0.00000  Uiso   1.00
C65    C     0.53585   0.16828   0.04813   0.00000  Uiso   1.00
C66    C     0.40400   0.12802   0.46846   0.00000  Uiso   1.00
C67    C     0.59920   0.19366   0.02941   0.00000  Uiso   1.00
C68    C     0.51097   0.16889   0.47671   0.00000  Uiso   1.00
C69    C     0.49176   0.15414   0.02141   0.00000  Uiso   1.00
C70    C     0.58694   0.01190   0.21778   0.00000  Uiso   1.00
C71    C     0.41306   0.32145   0.28225   0.00000  Uiso   1.00
C72    C     0.42943   0.12518   0.03772   0.00000  Uiso   1.00
C73    C     0.57475   0.19440   0.45957   0.00000  Uiso   1.00
C74    C     0.38672   0.11244   0.01168   0.00000  Uiso   1.00
C75    C     0.61776   0.20621   0.48544   0.00000  Uiso   1.00
C76    C     0.52463   0.32104   0.24372   0.00000  Uiso   1.00
C77    C     0.47537   0.01230   0.25630   0.00000  Uiso   1.00
C78    C     0.46136   0.16266   0.33309   0.00000  Uiso   1.00
Cu79   Cu    0.44071   0.16108   0.24516   0.00000  Uiso   1.00
Cu80   Cu    0.55929   0.17225   0.25483   0.00000  Uiso   1.00
H81    H     0.33956   0.09014   0.02561   0.00000  Uiso   1.00
H82    H     0.59395   0.20515   0.42590   0.00000  Uiso   1.00
H83    H     0.66623   0.20164   0.28645   0.00000  Uiso   1.00
H84    H     0.33377   0.13170   0.21355   0.00000  Uiso   1.00
H85    H     0.66615   0.22552   0.47079   0.00000  Uiso   1.00
H86    H     0.47037   0.14292   0.10987   0.00000  Uiso   1.00
H87    H     0.52648   0.19445   0.39120   0.00000  Uiso   1.00
H88    H     0.65941   0.20898   0.11910   0.00000  Uiso   1.00
H89    H     0.34299   0.11530   0.37920   0.00000  Uiso   1.00
H90    H     0.64574   0.09251   0.45647   0.00000  Uiso   1.00
H91    H     0.35879   0.22566   0.04065   0.00000  Uiso   1.00
H92    H     0.41205   0.11042   0.07038   0.00000  Uiso   1.00
N93    N     0.64839   0.18068   0.26212   0.00000  Uiso   1.00
N94    N     0.35161   0.15265   0.23788   0.00000  Uiso   1.00
N95    N     0.63663   0.03053   0.19692   0.00000  Uiso   1.00
N96    N     0.36338   0.30283   0.30313   0.00000  Uiso   1.00
O97    O     0.46148   0.23809   0.24686   0.00000  Uiso   1.00
O98    O     0.53852   0.09524   0.25314   0.00000  Uiso   1.00
O99    O     0.56163   0.24753   0.25502   0.00000  Uiso   1.00
O100   O     0.43837   0.08580   0.24497   0.00000  Uiso   1.00
O101   O     0.42185   0.15930   0.30854   0.00000  Uiso   1.00
O102   O     0.57815   0.17403   0.19145   0.00000  Uiso   1.00
O103   O     0.52199   0.16874   0.31671   0.00000  Uiso   1.00
O104   O     0.47801   0.16460   0.18329   0.00000  Uiso   1.00
C105   C     0.84827   0.26636   0.25027   0.00000  Uiso   1.00
C106   C     0.87195   0.17032   0.16686   0.00000  Uiso   1.00
C107   C     0.77141   0.15546   0.38046   0.00000  Uiso   1.00
C108   C     0.89527   0.17473   0.11920   0.00000  Uiso   1.00
C109   C     0.69318   0.11443   0.44277   0.00000  Uiso   1.00
C110   C     0.97677   0.20691   0.05505   0.00000  Uiso   1.00
C111   C     0.71016   0.12795   0.39893   0.00000  Uiso   1.00
C112   C     0.95837   0.19715   0.09968   0.00000  Uiso   1.00
C113   C     0.81439   0.17133   0.40656   0.00000  Uiso   1.00
C114   C     0.85174   0.15963   0.09336   0.00000  Uiso   1.00
C115   C     0.79938   0.15670   0.45049   0.00000  Uiso   1.00
C116   C     0.81839   0.06697   0.24974   0.00000  Uiso   1.00
C117   C     0.86918   0.16828   0.04813   0.00000  Uiso   1.00
C118   C     0.73734   0.12802   0.46846   0.00000  Uiso   1.00
C119   C     0.93253   0.19366   0.02941   0.00000  Uiso   1.00
C120   C     0.84431   0.16889   0.47671   0.00000  Uiso   1.00
C121   C     0.82509   0.15414   0.02141   0.00000  Uiso   1.00
C122   C     0.92027   0.01190   0.21778   0.00000  Uiso   1.00
C123   C     0.74640   0.32145   0.28225   0.00000  Uiso   1.00
C124   C     0.76276   0.12518   0.03772   0.00000  Uiso   1.00
C125   C     0.90808   0.19440   0.45957   0.00000  Uiso   1.00
C126   C     0.72005   0.11244   0.01168   0.00000  Uiso   1.00
C127   C     0.95109   0.20621   0.48544   0.00000  Uiso   1.00
C128   C     0.85796   0.32104   0.24372   0.00000  Uiso   1.00
C129   C     0.80870   0.01230   0.25630   0.00000  Uiso   1.00
C130   C     0.79470   0.16266   0.33309   0.00000  Uiso   1.00
Cu131  Cu    0.77404   0.16108   0.24516   0.00000  Uiso   1.00
Cu132  Cu    0.89263   0.17225   0.25483   0.00000  Uiso   1.00
H133   H     0.67289   0.09014   0.02561   0.00000  Uiso   1.00
H134   H     0.92728   0.20515   0.42590   0.00000  Uiso   1.00
H135   H     0.99957   0.20164   0.28645   0.00000  Uiso   1.00
H136   H     0.66710   0.13170   0.21355   0.00000  Uiso   1.00
H137   H     0.99948   0.22552   0.47079   0.00000  Uiso   1.00
H138   H     0.80370   0.14292   0.10987   0.00000  Uiso   1.00
H139   H     0.85981   0.19445   0.39120   0.00000  Uiso   1.00
H140   H     0.99274   0.20898   0.11910   0.00000  Uiso   1.00
H141   H     0.67632   0.11530   0.37920   0.00000  Uiso   1.00
H142   H     0.97908   0.09251   0.45647   0.00000  Uiso   1.00
H143   H     0.69212   0.22566   0.04065   0.00000  Uiso   1.00
H144   H     0.74538   0.11042   0.07038   0.00000  Uiso   1.00
N145   N     0.98173   0.18068   0.26212   0.00000  Uiso   1.00
N146   N     0.68494   0.15265   0.23788   0.00000  Uiso   1.00
N147   N     0.96996   0.03053   0.19692   0.00000  Uiso   1.00
N148   N     0.69672   0.30283   0.30313   0.00000  Uiso   1.00
O149   O     0.79482   0.23809   0.24686   0.00000  Uiso   1.00
O150   O     0.87185   0.09524   0.25314   0.00000  Uiso   1.00
O151   O     0.89496   0.24753   0.25502   0.00000  Uiso   1.00
O152   O     0.77171   0.08580   0.24497   0.00000  Uiso   1.00
O153   O     0.75518   0.15930   0.30854   0.00000  Uiso   1.00
O154   O     0.91149   0.17403   0.19145   0.00000  Uiso   1.00
O155   O     0.85532   0.16874   0.31671   0.00000  Uiso   1.00
O156   O     0.81134   0.16460   0.18329   0.00000  Uiso   1.00
C157   C     0.18161   0.59969   0.25027   0.00000  Uiso   1.00
C158   C     0.20528   0.50365   0.16686   0.00000  Uiso   1.00
C159   C     0.10474   0.48879   0.38046   0.00000  Uiso   1.00
C160   C     0.22861   0.50807   0.11920   0.00000  Uiso   1.00
C161   C     0.02651   0.44776   0.44277   0.00000  Uiso   1.00
C162   C     0.31010   0.54024   0.05505   0.00000  Uiso   1.00
C163   C     0.04350   0.46128   0.39893   0.00000  Uiso   1.00
C164   C     0.29170   0.53049   0.09968   0.00000  Uiso   1.00
C165   C     0.14773   0.50466   0.40656   0.00000  Uiso   1.00
C166   C     0.18507   0.49296   0.09336   0.00000  Uiso   1.00
C167   C     0.13271   0.49003   0.45049   0.00000  Uiso   1.00
C168   C     0.15172   0.40031   0.24974   0.00000  Uiso   1.00
C169   C     0.20251   0.50162   0.04813   0.00000  Uiso   1.00
C170   C     0.07067   0.46135   0.46846   0.00000  Uiso   1.00
C171   C     0.26586   0.52699   0.02941   0.00000  Uiso   1.00
C172   C     0.17764   0.50222   0.47671   0.00000  Uiso   1.00
C173   C     0.15842   0.48747   0.02141   0.00000  Uiso   1.00
C174   C     0.25361   0.34523   0.21778   0.00000  Uiso   1.00
C175   C     0.07973   0.65478   0.28225   0.00000  Uiso   1.00
C176   C     0.09609   0.45851   0.03772   0.00000  Uiso   1.00
C177   C     0.24142   0.52773   0.45957   0.00000  Uiso   1.00
C178   C     0.05339   0.44577   0.01168   0.00000  Uiso   1.00
C179   C     0.28443   0.53954   0.48544   0.00000  Uiso   1.00
C180   C     0.19130   0.65437   0.24372   0.00000  Uiso   1.00
C181   C     0.14203   0.34563   0.25630   0.00000  Uiso   1.00
C182   C     0.12803   0.49599   0.33309   0.00000  Uiso   1.00
Cu183  Cu    0.10737   0.49441   0.24516   0.00000  Uiso   1.00
Cu184  Cu    0.22596   0.50559   0.25483   0.00000  Uiso   1.00
H185   H     0.00623   0.42347   0.02561   0.00000  Uiso   1.00
H186   H     0.26062   0.53848   0.42590   0.00000  Uiso   1.00
H187   H     0.33290   0.53497   0.28645   0.00000  Uiso   1.00
H188   H     0.00044   0.46503   0.21355   0.00000  Uiso   1.00
H189   H     0.33282   0.55886   0.47079   0.00000  Uiso   1.00
H190   H     0.13704   0.47626   0.10987   0.00000  Uiso   1.00
H191   H     0.19314   0.52778   0.39120   0.00000  Uiso   1.00
H192   H     0.32608   0.54231   0.11910   0.00000  Uiso   1.00
H193   H     0.00965   0.44864   0.37920   0.00000  Uiso   1.00
H194   H     0.31241   0.42584   0.45647   0.00000  Uiso   1.00
H195   H     0.02546   0.55899   0.04065   0.00000  Uiso   1.00
H196   H     0.07872   0.44375   0.07038   0.00000  Uiso   1.00
N197   N     0.31506   0.51401   0.26212   0.00000  Uiso   1.00
N198   N     0.01827   0.48599   0.23788   0.00000  Uiso   1.00
N199   N     0.30329   0.36386   0.19692   0.00000  Uiso   1.00
N200   N     0.03005   0.63616   0.30313   0.00000  Uiso   1.00
O201   O     0.12815   0.57142   0.24686   0.00000  Uiso   1.00
O202   O     0.20518   0.42858   0.25314   0.00000  Uiso   1.00
O203   O     0.22829   0.58086   0.25502   0.00000  Uiso   1.00
O204   O     0.10504   0.41914   0.24497   0.00000  Uiso   1.00
O205   O     0.08851   0.49263   0.30854   0.00000  Uiso   1.00
O206   O     0.24482   0.50737   0.19145   0.00000  Uiso   1.00
O207   O     0.18866   0.50207   0.31671   0.00000  Uiso   1.00
O208   O     0.14468   0.49793   0.18329   0.00000  Uiso   1.00
C209   C     0.51494   0.59969   0.25027   0.00000  Uiso   1.00
C210   C     0.53861   0.50365   0.16686   0.00000  Uiso   1.00
C211   C     0.43808   0.48879   0.38046   0.00000  Uiso   1.00
C212   C     0.56194   0.50807   0.11920   0.00000  Uiso   1.00
C213   C     0.35984   0.44776   0.44277   0.00000  Uiso   1.00
C214   C     0.64344   0.54024   0.05505   0.00000  Uiso   1.00
C215   C     0.37683   0.46128   0.39893   0.00000  Uiso   1.00
C216   C     0.62503   0.53049   0.09968   0.00000  Uiso   1.00
C217   C     0.48106   0.50466   0.40656   0.00000  Uiso   1.00
C218   C     0.51841   0.49296   0.09336   0.00000  Uiso   1.00
C219   C     0.46604   0.49003   0.45049   0.00000  Uiso   1.00
C220   C     0.48506   0.40031   0.24974   0.00000  Uiso   1.00
C221   C     0.53585   0.50162   0.04813   0.00000  Uiso   1.00
C222   C     0.40400   0.46135   0.46846   0.00000  Uiso   1.00
C223   C     0.59920   0.52699   0.02941   0.00000  Uiso   1.00
C224   C     0.51097   0.50222   0.47671   0.00000  Uiso   1.00
C225   C     0.49176   0.48747   0.02141   0.00000  Uiso   1.00
C226   C     0.58694   0.34523   0.21778   0.00000  Uiso   1.00
C227   C     0.41306   0.65478   0.28225   0.00000  Uiso   1.00
C228   C     0.42943   0.45851   0.03772   0.00000  Uiso   1.00
C229   C     0.57475   0.52773   0.45957   0.00000  Uiso   1.00
C230   C     0.38672   0.44577   0.01168   0.00000  Uiso   1.00
C231   C     0.61776   0.53954   0.48544   0.00000  Uiso   1.00
C232   C     0.52463   0.65437   0.24372   0.00000  Uiso   1.00
C233   C     0.47537   0.34563   0.25630   0.00000  Uiso   1.00
C234   C     0.46136   0.49599   0.33309   0.00000  Uiso   1.00
Cu235  Cu    0.44071   0.49441   0.24516   0.00000  Uiso   1.00
Cu236  Cu    0.55929   0.50559   0.25483   0.00000  Uiso   1.00
H237   H     0.33956   0.42347   0.02561   0.00000  Uiso   1.00
H238   H     0.59395   0.53848   0.42590   0.00000  Uiso   1.00
H239   H     0.66623   0.53497   0.28645   0.00000  Uiso   1.00
H240   H     0.33377   0.46503   0.21355   0.00000  Uiso   1.00
H241   H     0.66615   0.55886   0.47079   0.00000  Uiso   1.00
H242   H     0.47037   0.47626   0.10987   0.00000  Uiso   1.00
H243   H     0.52648   0.52778   0.39120   0.00000  Uiso   1.00
H244   H     0.65941   0.54231   0.11910   0.00000  Uiso   1.00
H245   H     0.34299   0.44864   0.37920   0.00000  Uiso   1.00
H246   H     0.64574   0.42584   0.45647   0.00000  Uiso   1.00
H247   H     0.35879   0.55899   0.04065   0.00000  Uiso   1.00
H248   H     0.41205   0.44375   0.07038   0.00000  Uiso   1.00
N249   N     0.64839   0.51401   0.26212   0.00000  Uiso   1.00
N250   N     0.35161   0.48599   0.23788   0.00000  Uiso   1.00
N251   N     0.63663   0.36386   0.19692   0.00000  Uiso   1.00
N252   N     0.36338   0.63616   0.30313   0.00000  Uiso   1.00
O253   O     0.46148   0.57142   0.24686   0.00000  Uiso   1.00
O254   O     0.53852   0.42858   0.25314   0.00000  Uiso   1.00
O255   O     0.56163   0.58086   0.25502   0.00000  Uiso   1.00
O256   O     0.43837   0.41914   0.24497   0.00000  Uiso   1.00
O257   O     0.42185   0.49263   0.30854   0.00000  Uiso   1.00
O258   O     0.57815   0.50737   0.19145   0.00000  Uiso   1.00
O259   O     0.52199   0.50207   0.31671   0.00000  Uiso   1.00
O260   O     0.47801   0.49793   0.18329   0.00000  Uiso   1.00
C261   C     0.84827   0.59969   0.25027   0.00000  Uiso   1.00
C262   C     0.87195   0.50365   0.16686   0.00000  Uiso   1.00
C263   C     0.77141   0.48879   0.38046   0.00000  Uiso   1.00
C264   C     0.89527   0.50807   0.11920   0.00000  Uiso   1.00
C265   C     0.69318   0.44776   0.44277   0.00000  Uiso   1.00
C266   C     0.97677   0.54024   0.05505   0.00000  Uiso   1.00
C267   C     0.71016   0.46128   0.39893   0.00000  Uiso   1.00
C268   C     0.95837   0.53049   0.09968   0.00000  Uiso   1.00
C269   C     0.81439   0.50466   0.40656   0.00000  Uiso   1.00
C270   C     0.85174   0.49296   0.09336   0.00000  Uiso   1.00
C271   C     0.79938   0.49003   0.45049   0.00000  Uiso   1.00
C272   C     0.81839   0.40031   0.24974   0.00000  Uiso   1.00
C273   C     0.86918   0.50162   0.04813   0.00000  Uiso   1.00
C274   C     0.73734   0.46135   0.46846   0.00000  Uiso   1.00
C275   C     0.93253   0.52699   0.02941   0.00000  Uiso   1.00
C276   C     0.84431   0.50222   0.47671   0.00000  Uiso   1.00
C277   C     0.82509   0.48747   0.02141   0.00000  Uiso   1.00
C278   C     0.92027   0.34523   0.21778   0.00000  Uiso   1.00
C279   C     0.74640   0.65478   0.28225   0.00000  Uiso   1.00
C280   C     0.76276   0.45851   0.03772   0.00000  Uiso   1.00
C281   C     0.90808   0.52773   0.45957   0.00000  Uiso   1.00
C282   C     0.72005   0.44577   0.01168   0.00000  Uiso   1.00
C283   C     0.95109   0.53954   0.48544   0.00000  Uiso   1.00
C284   C     0.85796   0.65437   0.24372   0.00000  Uiso   1.00
C285   C     0.80870   0.34563   0.25630   0.00000  Uiso   1.00
C286   C     0.79470   0.49599   0.33309   0.00000  Uiso   1.00
Cu287  Cu    0.77404   0.49441   0.24516   0.00000  Uiso   1.00
Cu288  Cu    0.89263   0.50559   0.25483   0.00000  Uiso   1.00
H289   H     0.67289   0.42347   0.02561   0.00000  Uiso   1.00
H290   H     0.92728   0.53848   0.42590   0.00000  Uiso   1.00
H291   H     0.99957   0.53497   0.28645   0.00000  Uiso   1.00
H292   H     0.66710   0.46503   0.21355   0.00000  Uiso   1.00
H293   H     0.99948   0.55886   0.47079   0.00000  Uiso   1.00
H294   H     0.80370   0.47626   0.10987   0.00000  Uiso   1.00
H295   H     0.85981   0.52778   0.39120   0.00000  Uiso   1.00
H296   H     0.99274   0.54231   0.11910   0.00000  Uiso   1.00
H297   H     0.67632   0.44864   0.37920   0.00000  Uiso   1.00
H298   H     0.97908   0.42584   0.45647   0.00000  Uiso   1.00
H299   H     0.69212   0.55899   0.04065   0.00000  Uiso   1.00
H300   H     0.74538   0.44375   0.07038   0.00000  Uiso   1.00
N301   N     0.98173   0.51401   0.26212   0.00000  Uiso   1.00
N302   N     0.68494   0.48599   0.23788   0.00000  Uiso   1.00
N303   N     0.96996   0.36386   0.19692   0.00000  Uiso   1.00
N304   N     0.69672   0.63616   0.30313   0.00000  Uiso   1.00
O305   O     0.79482   0.57142   0.24686   0.00000  Uiso   1.00
O306   O     0.87185   0.42858   0.25314   0.00000  Uiso   1.00
O307   O     0.89496   0.58086   0.25502   0.00000  Uiso   1.00
O308   O     0.77171   0.41914   0.24497   0.00000  Uiso   1.00
O309   O     0.75518   0.49263   0.30854   0.00000  Uiso   1.00
O310   O     0.91149   0.50737   0.19145   0.00000  Uiso   1.00
O311   O     0.85532   0.50207   0.31671   0.00000  Uiso   1.00
O312   O     0.81134   0.49793   0.18329   0.00000  Uiso   1.00
C313   C     0.18161   0.93303   0.25027   0.00000  Uiso   1.00
C314   C     0.20528   0.83698   0.16686   0.00000  Uiso   1.00
C315   C     0.10474   0.82212   0.38046   0.00000  Uiso   1.00
C316   C     0.22861   0.84140   0.11920   0.00000  Uiso   1.00
C317   C     0.02651   0.78110   0.44277   0.00000  Uiso   1.00
C318   C     0.31010   0.87358   0.05505   0.00000  Uiso   1.00
C319   C     0.04350   0.79461   0.39893   0.00000  Uiso   1.00
C320   C     0.29170   0.86382   0.09968   0.00000  Uiso   1.00
C321   C     0.14773   0.83799   0.40656   0.00000  Uiso   1.00
C322   C     0.18507   0.82629   0.09336   0.00000  Uiso   1.00
C323   C     0.13271   0.82336   0.45049   0.00000  Uiso   1.00
C324   C     0.15172   0.73364   0.24974   0.00000  Uiso   1.00
C325   C     0.20251   0.83495   0.04813   0.00000  Uiso   1.00
C326   C     0.07067   0.79469   0.46846   0.00000  Uiso   1.00
C327   C     0.26586   0.86032   0.02941   0.00000  Uiso   1.00
C328   C     0.17764   0.83556   0.47671   0.00000  Uiso   1.00
C329   C     0.15842   0.82081   0.02141   0.00000  Uiso   1.00
C330   C     0.25361   0.67857   0.21778   0.00000  Uiso   1.00
C331   C     0.07973   0.98811   0.28225   0.00000  Uiso   1.00
C332   C     0.09609   0.79184   0.03772   0.00000  Uiso   1.00
C333   C     0.24142   0.86107   0.45957   0.00000  Uiso   1.00
C334   C     0.05339   0.77911   0.01168   0.00000  Uiso   1.00
C335   C     0.28443   0.87288   0.48544   0.00000  Uiso   1.00
C336   C     0.19130   0.98771   0.24372   0.00000  Uiso   1.00
C337   C     0.14203   0.67896   0.25630   0.00000  Uiso   1.00
C338   C     0.12803   0.82932   0.33309   0.00000  Uiso   1.00
Cu339  Cu    0.10737   0.82775   0.24516   0.00000  Uiso   1.00
Cu340  Cu    0.22596   0.83892   0.25483   0.00000  Uiso   1.00
H341   H     0.00623   0.75680   0.02561   0.00000  Uiso   1.00
H342   H     0.26062   0.87182   0.42590   0.00000  Uiso   1.00
H343   H     0.33290   0.86831   0.28645   0.00000  Uiso   1.00
H344   H     0.00044   0.79836   0.21355   0.00000  Uiso   1.00
H345   H     0.33282   0.89219   0.47079   0.00000  Uiso   1.00
H346   H     0.13704   0.80959   0.10987   0.00000  Uiso   1.00
H347   H     0.19314   0.86111   0.39120   0.00000  Uiso   1.00
H348   H     0.32608   0.87564   0.11910   0.00000  Uiso   1.00
H349   H     0.00965   0.78197   0.37920   0.00000  Uiso   1.00
H350   H     0.31241   0.75918   0.45647   0.00000  Uiso   1.00
H351   H     0.02546   0.89232   0.04065   0.00000  Uiso   1.00
H352   H     0.07872   0.77709   0.07038   0.00000  Uiso   1.00
N353   N     0.31506   0.84735   0.26212   0.00000  Uiso   1.00
N354   N     0.01827   0.81932   0.23788   0.00000  Uiso   1.00
N355   N     0.30329   0.69719   0.19692   0.00000  Uiso   1.00
N356   N     0.03005   0.96949   0.30313   0.00000  Uiso   1.00
O357   O     0.12815   0.90476   0.24686   0.00000  Uiso   1.00
O358   O     0.20518   0.76191   0.25314   0.00000  Uiso   1.00
O359   O     0.22829   0.91420   0.25502   0.00000  Uiso   1.00
O360   O     0.10504   0.75247   0.24497   0.00000  Uiso   1.00
O361   O     0.08851   0.82597   0.30854   0.00000  Uiso   1.00
O362   O     0.24482   0.84070   0.19145   0.00000  Uiso   1.00
O363   O     0.18866   0.83540   0.31671   0.00000  Uiso   1.00
O364   O     0.14468   0.83126   0.18329   0.00000  Uiso   1.00
C365   C     0.51494   0.93303   0.25027   0.00000  Uiso   1.00
C366   C     0.53861   0.83698   0.16686   0.00000  Uiso   1.00
C367   C     0.43808   0.82212   0.38046   0.00000  Uiso   1.00
C368   C     0.56194   0.84140   0.11920   0.00000  Uiso   1.00
C369   C     0.35984   0.78110   0.44277   0.00000  Uiso   1.00
C370   C     0.64344   0.87358   0.05505   0.00000  Uiso   1.00
C371   C     0.37683   0.79461   0.39893   0.00000  Uiso   1.00
C372   C     0.62503   0.86382   0.09968   0.00000  Uiso   1.00
C373   C     0.48106   0.83799   0.40656   0.00000  Uiso   1.00
C374   C     0.51841   0.82629   0.09336   0.00000  Uiso   1.00
C375   C     0.46604   0.82336   0.45049   0.00000  Uiso   1.00
C376   C     0.48506   0.73364   0.24974   0.00000  Uiso   1.00
C377   C     0.53585   0.83495   0.04813   0.00000  Uiso   1.00
C378   C     0.40400   0.79469   0.46846   0.00000  Uiso   1.00
C379   C     0.59920   0.86032   0.02941   0.00000  Uiso   1.00
C380   C     0.51097   0.83556   0.47671   0.00000  Uiso   1.00
C381   C     0.49176   0.82081   0.02141   0.00000  Uiso   1.00
C382   C     0.58694   0.67857   0.21778   0.00000  Uiso   1.00
C383   C     0.41306   0.98811   0.28225   0.00000  Uiso   1.00
C384   C     0.42943   0.79184   0.03772   0.00000  Uiso   1.00
C385   C     0.57475   0.86107   0.45957   0.00000  Uiso   1.00
C386   C     0.38672   0.77911   0.01168   0.00000  Uiso   1.00
C387   C     0.61776   0.87288   0.48544   0.00000  Uiso   1.00
C388   C     0.52463   0.98771   0.24372   0.00000  Uiso   1.00
C389   C     0.47537   0.67896   0.25630   0.00000  Uiso   1.00
C390   C     0.46136   0.82932   0.33309   0.00000  Uiso   1.00
Cu391  Cu    0.44071   0.82775   0.24516   0.00000  Uiso   1.00
Cu392  Cu    0.55929   0.83892   0.25483   0.00000  Uiso   1.00
H393   H     0.33956   0.75680   0.02561   0.00000  Uiso   1.00
H394   H     0.59395   0.87182   0.42590   0.00000  Uiso   1.00
H395   H     0.66623   0.86831   0.28645   0.00000  Uiso   1.00
H396   H     0.33377   0.79836   0.21355   0.00000  Uiso   1.00
H397   H     0.66615   0.89219   0.47079   0.00000  Uiso   1.00
H398   H     0.47037   0.80959   0.10987   0.00000  Uiso   1.00
H399   H     0.52648   0.86111   0.39120   0.00000  Uiso   1.00
H400   H     0.65941   0.87564   0.11910   0.00000  Uiso   1.00
H401   H     0.34299   0.78197   0.37920   0.00000  Uiso   1.00
H402   H     0.64574   0.75918   0.45647   0.00000  Uiso   1.00
H403   H     0.35879   0.89232   0.04065   0.00000  Uiso   1.00
H404   H     0.41205   0.77709   0.07038   0.00000  Uiso   1.00
N405   N     0.64839   0.84735   0.26212   0.00000  Uiso   1.00
N406   N     0.35161   0.81932   0.23788   0.00000  Uiso   1.00
N407   N     0.63663   0.69719   0.19692   0.00000  Uiso   1.00
N408   N     0.36338   0.96949   0.30313   0.00000  Uiso   1.00
O409   O     0.46148   0.90476   0.24686   0.00000  Uiso   1.00
O410   O     0.53852   0.76191   0.25314   0.00000  Uiso   1.00
O411   O     0.56163   0.91420   0.25502   0.00000  Uiso   1.00
O412   O     0.43837   0.75247   0.24497   0.00000  Uiso   1.00
O413   O     0.42185   0.82597   0.30854   0.00000  Uiso   1.00
O414   O     0.57815   0.84070   0.19145   0.00000  Uiso   1.00
O415   O     0.52199   0.83540   0.31671   0.00000  Uiso   1.00
O416   O     0.47801   0.83126   0.18329   0.00000  Uiso   1.00
C417   C     0.84827   0.93303   0.25027   0.00000  Uiso   1.00
C418   C     0.87195   0.83698   0.16686   0.00000  Uiso   1.00
C419   C     0.77141   0.82212   0.38046   0.00000  Uiso   1.00
C420   C     0.89527   0.84140   0.11920   0.00000  Uiso   1.00
C421   C     0.69318   0.78110   0.44277   0.00000  Uiso   1.00
C422   C     0.97677   0.87358   0.05505   0.00000  Uiso   1.00
C423   C     0.71016   0.79461   0.39893   0.00000  Uiso   1.00
C424   C     0.95837   0.86382   0.09968   0.00000  Uiso   1.00
C425   C     0.81439   0.83799   0.40656   0.00000  Uiso   1.00
C426   C     0.85174   0.82629   0.09336   0.00000  Uiso   1.00
C427   C     0.79938   0.82336   0.45049   0.00000  Uiso   1.00
C428   C     0.81839   0.73364   0.24974   0.00000  Uiso   1.00
C429   C     0.86918   0.83495   0.04813   0.00000  Uiso   1.00
C430   C     0.73734   0.79469   0.46846   0.00000  Uiso   1.00
C431   C     0.93253   0.86032   0.02941   0.00000  Uiso   1.00
C432   C     0.84431   0.83556   0.47671   0.00000  Uiso   1.00
C433   C     0.82509   0.82081   0.02141   0.00000  Uiso   1.00
C434   C     0.92027   0.67857   0.21778   0.00000  Uiso   1.00
C435   C     0.74640   0.98811   0.28225   0.00000  Uiso   1.00
C436   C     0.76276   0.79184   0.03772   0.00000  Uiso   1.00
C437   C     0.90808   0.86107   0.45957   0.00000  Uiso   1.00
C438   C     0.72005   0.77911   0.01168   0.00000  Uiso   1.00
C439   C     0.95109   0.87288   0.48544   0.00000  Uiso   1.00
C440   C     0.85796   0.98771   0.24372   0.00000  Uiso   1.00
C441   C     0.80870   0.67896   0.25630   0.00000  Uiso   1.00
C442   C     0.79470   0.82932   0.33309   0.00000  Uiso   1.00
Cu443  Cu    0.77404   0.82775   0.24516   0.00000  Uiso   1.00
Cu444  Cu    0.89263   0.83892   0.25483   0.00000  Uiso   1.00
H445   H     0.67289   0.75680   0.02561   0.00000  Uiso   1.00
H446   H     0.92728   0.87182   0.42590   0.00000  Uiso   1.00
H447   H     0.99957   0.86831   0.28645   0.00000  Uiso   1.00
H448   H     0.66710   0.79836   0.21355   0.00000  Uiso   1.00
H449   H     0.99948   0.89219   0.47079   0.00000  Uiso   1.00
H450   H     0.80370   0.80959   0.10987   0.00000  Uiso   1.00
H451   H     0.85981   0.86111   0.39120   0.00000  Uiso   1.00
H452   H     0.99274   0.87564   0.11910   0.00000  Uiso   1.00
H453   H     0.67632   0.78197   0.37920   0.00000  Uiso   1.00
H454   H     0.97908   0.75918   0.45647   0.00000  Uiso   1.00
H455   H     0.69212   0.89232   0.04065   0.00000  Uiso   1.00
H456   H     0.74538   0.77709   0.07038   0.00000  Uiso   1.00
N457   N     0.98173   0.84735   0.26212   0.00000  Uiso   1.00
N458   N     0.68494   0.81932   0.23788   0.00000  Uiso   1.00
N459   N     0.96996   0.69719   0.19692   0.00000  Uiso   1.00
N460   N     0.69672   0.96949   0.30313   0.00000  Uiso   1.00
O461   O     0.79482   0.90476   0.24686   0.00000  Uiso   1.00
O462   O     0.87185   0.76191   0.25314   0.00000  Uiso   1.00
O463   O     0.89496   0.91420   0.25502   0.00000  Uiso   1.00
O464   O     0.77171   0.75247   0.24497   0.00000  Uiso   1.00
O465   O     0.75518   0.82597   0.30854   0.00000  Uiso   1.00
O466   O     0.91149   0.84070   0.19145   0.00000  Uiso   1.00
O467   O     0.85532   0.83540   0.31671   0.00000  Uiso   1.00
O468   O     0.81134   0.83126   0.18329   0.00000  Uiso   1.00
C469   C     0.18161   0.26636   0.75027   0.00000  Uiso   1.00
C470   C     0.20528   0.17032   0.66686   0.00000  Uiso   1.00
C471   C     0.10474   0.15546   0.88046   0.00000  Uiso   1.00
C472   C     0.22861   0.17473   0.61920   0.00000  Uiso   1.00
C473   C     0.02651   0.11443   0.94277   0.00000  Uiso   1.00
C474   C     0.31010   0.20691   0.55505   0.00000  Uiso   1.00
C475   C     0.04350   0.12795   0.89893   0.00000  Uiso   1.00
C476   C     0.29170   0.19715   0.59968   0.00000  Uiso   1.00
C477   C     0.14773   0.17133   0.90656   0.00000  Uiso   1.00
C478   C     0.18507   0.15963   0.59336   0.00000  Uiso   1.00
C479   C     0.13271   0.15670   0.95049   0.00000  Uiso   1.00
C480   C     0.15172   0.06697   0.74974   0.00000  Uiso   1.00
C481   C     0.20251   0.16828   0.54813   0.00000  Uiso   1.00
C482   C     0.07067   0.12802   0.96846   0.00000  Uiso   1.00
C483   C     0.26586   0.19366   0.52941   0.00000  Uiso   1.00
C484   C     0.17764   0.16889   0.97671   0.00000  Uiso   1.00
C485   C     0.15842   0.15414   0.52141   0.00000  Uiso   1.00
C486   C     0.25361   0.01190   0.71778   0.00000  Uiso   1.00
C487   C     0.07973   0.32145   0.78225   0.00000  Uiso   1.00
C488   C     0.09609   0.12518   0.53772   0.00000  Uiso   1.00
C489   C     0.24142   0.19440   0.95957   0.00000  Uiso   1.00
C490   C     0.05339   0.11244   0.51168   0.00000  Uiso   1.00
C491   C     0.28443   0.20621   0.98544   0.00000  Uiso   1.00
C492   C     0.19130   0.32104   0.74372   0.00000  Uiso   1.00
C493   C     0.14203   0.01230   0.75630   0.00000  Uiso   1.00
C494   C     0.12803   0.16266   0.83309   0.00000  Uiso   1.00
Cu495  Cu    0.10737   0.16108   0.74516   0.00000  Uiso   1.00
Cu496  Cu    0.22596   0.17225   0.75483   0.00000  Uiso   1.00
H497   H     0.00623   0.09014   0.52561   0.00000  Uiso   1.00
H498   H     0.26062   0.20515   0.92590   0.00000  Uiso   1.00
H499   H     0.33290   0.20164   0.78645   0.00000  Uiso   1.00
H500   H     0.00044   0.13170   0.71355   0.00000  Uiso   1.00
H501   H     0.33282   0.22552   0.97079   0.00000  Uiso   1.00
H502   H     0.13704   0.14292   0.60987   0.00000  Uiso   1.00
H503   H     0.19314   0.19445   0.89120   0.00000  Uiso   1.00
H504   H     0.32608   0.20898   0.61910   0.00000  Uiso   1.00
H505   H     0.00965   0.11530   0.87920   0.00000  Uiso   1.00
H506   H     0.31241   0.09251   0.95647   0.00000  Uiso   1.00
H507   H     0.02546   0.22566   0.54065   0.00000  Uiso   1.00
H508   H     0.07872   0.11042   0.57038   0.00000  Uiso   1.00
N509   N     0.31506   0.18068   0.76212   0.00000  Uiso   1.00
N510   N     0.01827   0.15265   0.73788   0.00000  Uiso   1.00
N511   N     0.30329   0.03053   0.69692   0.00000  Uiso   1.00
N512   N     0.03005   0.30283   0.80313   0.00000  Uiso   1.00
O513   O     0.12815   0.23809   0.74686   0.00000  Uiso   1.00
O514   O     0.20518   0.09524   0.75314   0.00000  Uiso   1.00
O515   O     0.22829   0.24753   0.75502   0.00000  Uiso   1.00
O516   O     0.10504   0.08580   0.74497   0.00000  Uiso   1.00
O517   O     0.08851   0.15930   0.80854   0.00000  Uiso   1.00
O518   O     0.24482   0.17403   0.69145   0.00000  Uiso   1.00
O519   O     0.18866   0.16874   0.81671   0.00000  Uiso   1.00
O520   O     0.14468   0.16460   0.68329   0.00000  Uiso   1.00
C521   C     0.51494   0.26636   0.75027   0.00000  Uiso   1.00
C522   C     0.53861   0.17032   0.66686   0.00000  Uiso   1.00
C523   C     0.43808   0.15546   0.88046   0.00000  Uiso   1.00
C524   C     0.56194   0.17473   0.61920   0.00000  Uiso   1.00
C525   C     0.35984   0.11443   0.94277   0.00000  Uiso   1.00
C526   C     0.64344   0.20691   0.55505   0.00000  Uiso   1.00
C527   C     0.37683   0.12795   0.89893   0.00000  Uiso   1.00
C528   C     0.62503   0.19715   0.59968   0.00000  Uiso   1.00
C529   C     0.48106   0.17133   0.90656   0.00000  Uiso   1.00
C530   C     0.51841   0.15963   0.59336   0.00000  Uiso   1.00
C531   C     0.46604   0.15670   0.95049   0.00000  Uiso   1.00
C532   C     0.48506   0.06697   0.74974   0.00000  Uiso   1.00
C533   C     0.53585   0.16828   0.54813   0.00000  Uiso   1.00
C534   C     0.40400   0.12802   0.96846   0.00000  Uiso   1.00
C535   C     0.59920   0.19366   0.52941   0.00000  Uiso   1.00
C536   C     0.51097   0.16889   0.97671   0.00000  Uiso   1.00
C537   C     0.49176   0.15414   0.52141   0.00000  Uiso   1.00
C538   C     0.58694   0.01190   0.71778   0.00000  Uiso   1.00
C539   C     0.41306   0.32145   0.78225   0.00000  Uiso   1.00
C540   C     0.42943   0.12518   0.53772   0.00000  Uiso   1.00
C541   C     0.57475   0.19440   0.95957   0.00000  Uiso   1.00
C542   C     0.38672   0.11244   0.51168   0.00000  Uiso   1.00
C543   C     0.61776   0.20621   0.98544   0.00000  Uiso   1.00
C544   C     0.52463   0.32104   0.74372   0.00000  Uiso   1.00
C545   C     0.47537   0.01230   0.75630   0.00000  Uiso   1.00
C546   C     0.46136   0.16266   0.83309   0.00000  Uiso   1.00
Cu547  Cu    0.44071   0.16108   0.74516   0.00000  Uiso   1.00
Cu548  Cu    0.55929   0.17225   0.75483   0.00000  Uiso   1.00
H549   H     0.33956   0.09014   0.52561   0.00000  Uiso   1.00
H550   H     0.59395   0.20515   0.92590   0.00000  Uiso   1.00
H551   H     0.66623   0.20164   0.78645   0.00000  Uiso   1.00
H552   H     0.33377   0.13170   0.71355   0.00000  Uiso   1.00
H553   H     0.66615   0.22552   0.97079   0.00000  Uiso   1.00
H554   H     0.47037   0.14292   0.60987   0.00000  Uiso   1.00
H555   H     0.52648   0.19445   0.89120   0.00000  Uiso   1.00
H556   H     0.65941   0.20898   0.61910   0.00000  Uiso   1.00
H557   H     0.34299   0.11530   0.87920   0.00000  Uiso   1.00
H558   H     0.64574   0.09251   0.95647   0.00000  Uiso   1.00
H559   H     0.35879   0.22566   0.54065   0.00000  Uiso   1.00
H560   H     0.41205   0.11042   0.57038   0.00000  Uiso   1.00
N561   N     0.64839   0.18068   0.76212   0.00000  Uiso   1.00
N562   N     0.35161   0.15265   0.73788   0.00000  Uiso   1.00
N563   N     0.63663   0.03053   0.69692   0.00000  Uiso   1.00
N564   N     0.36338   0.30283   0.80313   0.00000  Uiso   1.00
O565   O     0.46148   0.23809   0.74686   0.00000  Uiso   1.00
O566   O     0.53852   0.09524   0.75314   0.00000  Uiso   1.00
O567   O     0.56163   0.24753   0.75502   0.00000  Uiso   1.00
O568   O     0.43837   0.08580   0.74497   0.00000  Uiso   1.00
O569   O     0.42185   0.15930   0.80854   0.00000  Uiso   1.00
O570   O     0.57815   0.17403   0.69145   0.00000  Uiso   1.00
O571   O     0.52199   0.16874   0.81671   0.00000  Uiso   1.00
O572   O     0.47801   0.16460   0.68329   0.00000  Uiso   1.00
C573   C     0.84827   0.26636   0.75027   0.00000  Uiso   1.00
C574   C     0.87195   0.17032   0.66686   0.00000  Uiso   1.00
C575   C     0.77141   0.15546   0.88046   0.00000  Uiso   1.00
C576   C     0.89527   0.17473   0.61920   0.00000  Uiso   1.00
C577   C     0.69318   0.11443   0.94277   0.00000  Uiso   1.00
C578   C     0.97677   0.20691   0.55505   0.00000  Uiso   1.00
C579   C     0.71016   0.12795   0.89893   0.00000  Uiso   1.00
C580   C     0.95837   0.19715   0.59968   0.00000  Uiso   1.00
C581   C     0.81439   0.17133   0.90656   0.00000  Uiso   1.00
C582   C     0.85174   0.15963   0.59336   0.00000  Uiso   1.00
C583   C     0.79938   0.15670   0.95049   0.00000  Uiso   1.00
C584   C     0.81839   0.06697   0.74974   0.00000  Uiso   1.00
C585   C     0.86918   0.16828   0.54813   0.00000  Uiso   1.00
C586   C     0.73734   0.12802   0.96846   0.00000  Uiso   1.00
C587   C     0.93253   0.19366   0.52941   0.00000  Uiso   1.00
C588   C     0.84431   0.16889   0.97671   0.00000  Uiso   1.00
C589   C     0.82509   0.15414   0.52141   0.00000  Uiso   1.00
C590   C     0.92027   0.01190   0.71778   0.00000  Uiso   1.00
C591   C     0.74640   0.32145   0.78225   0.00000  Uiso   1.00
C592   C     0.76276   0.12518   0.53772   0.00000  Uiso   1.00
C593   C     0.90808   0.19440   0.95957   0.00000  Uiso   1.00
C594   C     0.72005   0.11244   0.51168   0.00000  Uiso   1.00
C595   C     0.95109   0.20621   0.98544   0.00000  Uiso   1.00
C596   C     0.85796   0.32104   0.74372   0.00000  Uiso   1.00
C597   C     0.80870   0.01230   0.75630   0.00000  Uiso   1.00
C598   C     0.79470   0.16266   0.83309   0.00000  Uiso   1.00
Cu599  Cu    0.77404   0.16108   0.74516   0.00000  Uiso   1.00
Cu600  Cu    0.89263   0.17225   0.75483   0.00000  Uiso   1.00
H601   H     0.67289   0.09014   0.52561   0.00000  Uiso   1.00
H602   H     0.92728   0.20515   0.92590   0.00000  Uiso   1.00
H603   H     0.99957   0.20164   0.78645   0.00000  Uiso   1.00
H604   H     0.66710   0.13170   0.71355   0.00000  Uiso   1.00
H605   H     0.99948   0.22552   0.97079   0.00000  Uiso   1.00
H606   H     0.80370   0.14292   0.60987   0.00000  Uiso   1.00
H607   H     0.85981   0.19445   0.89120   0.00000  Uiso   1.00
H608   H     0.99274   0.20898   0.61910   0.00000  Uiso   1.00
H609   H     0.67632   0.11530   0.87920   0.00000  Uiso   1.00
H610   H     0.97908   0.09251   0.95647   0.00000  Uiso   1.00
H611   H     0.69212   0.22566   0.54065   0.00000  Uiso   1.00
H612   H     0.74538   0.11042   0.57038   0.00000  Uiso   1.00
N613   N     0.98173   0.18068   0.76212   0.00000  Uiso   1.00
N614   N     0.68494   0.15265   0.73788   0.00000  Uiso   1.00
N615   N     0.96996   0.03053   0.69692   0.00000  Uiso   1.00
N616   N     0.69672   0.30283   0.80313   0.00000  Uiso   1.00
O617   O     0.79482   0.23809   0.74686   0.00000  Uiso   1.00
O618   O     0.87185   0.09524   0.75314   0.00000  Uiso   1.00
O619   O     0.89496   0.24753   0.75502   0.00000  Uiso   1.00
O620   O     0.77171   0.08580   0.74497   0.00000  Uiso   1.00
O621   O     0.75518   0.15930   0.80854   0.00000  Uiso   1.00
O622   O     0.91149   0.17403   0.69145   0.00000  Uiso   1.00
O623   O     0.85532   0.16874   0.81671   0.00000  Uiso   1.00
O624   O     0.81134   0.16460   0.68329   0.00000  Uiso   1.00
C625   C     0.18161   0.59969   0.75027   0.00000  Uiso   1.00
C626   C     0.20528   0.50365   0.66686   0.00000  Uiso   1.00
C627   C     0.10474   0.48879   0.88046   0.00000  Uiso   1.00
C628   C     0.22861   0.50807   0.61920   0.00000  Uiso   1.00
C629   C     0.02651   0.44776   0.94277   0.00000  Uiso   1.00
C630   C     0.31010   0.54024   0.55505   0.00000  Uiso   1.00
C631   C     0.04350   0.46128   0.89893   0.00000  Uiso   1.00
C632   C     0.29170   0.53049   0.59968   0.00000  Uiso   1.00
C633   C     0.14773   0.50466   0.90656   0.00000  Uiso   1.00
C634   C     0.18507   0.49296   0.59336   0.00000  Uiso   1.00
C635   C     0.13271   0.49003   0.95049   0.00000  Uiso   1.00
C636   C     0.15172   0.40031   0.74974   0.00000  Uiso   1.00
C637   C     0.20251   0.50162   0.54813   0.00000  Uiso   1.00
C638   C     0.07067   0.46135   0.96846   0.00000  Uiso   1.00
C639   C     0.26586   0.52699   0.52941   0.00000  Uiso   1.00
C640   C     0.17764   0.50222   0.97671   0.00000  Uiso   1.00
C641   C     0.15842   0.48747   0.52141   0.00000  Uiso   1.00
C642   C     0.25361   0.34523   0.71778   0.00000  Uiso   1.00
C643   C     0.07973   0.65478   0.78225   0.00000  Uiso   1.00
C644   C     0.09609   0.45851   0.53772   0.00000  Uiso   1.00
C645   C     0.24142   0.52773   0.95957   0.00000  Uiso   1.00
C646   C     0.05339   0.44577   0.51168   0.00000  Uiso   1.00
C647   C     0.28443   0.53954   0.98544   0.00000  Uiso   1.00
C648   C     0.19130   0.65437   0.74372   0.00000  Uiso   1.00
C649   C     0.14203   0.34563   0.75630   0.00000  Uiso   1.00
C650   C     0.12803   0.49599   0.83309   0.00000  Uiso   1.00
Cu651  Cu    0.10737   0.49441   0.74516   0.00000  Uiso   1.00
Cu652  Cu    0.22596   0.50559   0.75483   0.00000  Uiso   1.00
H653   H     0.00623   0.42347   0.52561   0.00000  Uiso   1.00
H654   H     0.26062   0.53848   0.92590   0.00000  Uiso   1.00
H655   H     0.33290   0.53497   0.78645   0.00000  Uiso   1.00
H656   H     0.00044   0.46503   0.71355   0.00000  Uiso   1.00
H657   H     0.33282   0.55886   0.97079   0.00000  Uiso   1.00
H658   H     0.13704   0.47626   0.60987   0.00000  Uiso   1.00
H659   H     0.19314   0.52778   0.89120   0.00000  Uiso   1.00
H660   H     0.32608   0.54231   0.61910   0.00000  Uiso   1.00
H661   H     0.00965   0.44864   0.87920   0.00000  Uiso   1.00
H662   H     0.31241   0.42584   0.95647   0.00000  Uiso   1.00
H663   H     0.02546   0.55899   0.54065   0.00000  Uiso   1.00
H664   H     0.07872   0.44375   0.57038   0.00000  Uiso   1.00
N665   N     0.31506   0.51401   0.76212   0.00000  Uiso   1.00
N666   N     0.01827   0.48599   0.73788   0.00000  Uiso   1.00
N667   N     0.30329   0.36386   0.69692   0.00000  Uiso   1.00
N668   N     0.03005   0.63616   0.80313   0.00000  Uiso   1.00
O669   O     0.12815   0.57142   0.74686   0.00000  Uiso   1.00
O670   O     0.20518   0.42858   0.75314   0.00000  Uiso   1.00
O671   O     0.22829   0.58086   0.75502   0.00000  Uiso   1.00
O672   O     0.10504   0.41914   0.74497   0.00000  Uiso   1.00
O673   O     0.08851   0.49263   0.80854   0.00000  Uiso   1.00
O674   O     0.24482   0.50737   0.69145   0.00000  Uiso   1.00
O675   O     0.18866   0.50207   0.81671   0.00000  Uiso   1.00
O676   O     0.14468   0.49793   0.68329   0.00000  Uiso   1.00
C677   C     0.51494   0.59969   0.75027   0.00000  Uiso   1.00
C678   C     0.53861   0.50365   0.66686   0.00000  Uiso   1.00
C679   C     0.43808   0.48879   0.88046   0.00000  Uiso   1.00
C680   C     0.56194   0.50807   0.61920   0.00000  Uiso   1.00
C681   C     0.35984   0.44776   0.94277   0.00000  Uiso   1.00
C682   C     0.64344   0.54024   0.55505   0.00000  Uiso   1.00
C683   C     0.37683   0.46128   0.89893   0.00000  Uiso   1.00
C684   C     0.62503   0.53049   0.59968   0.00000  Uiso   1.00
C685   C     0.48106   0.50466   0.90656   0.00000  Uiso   1.00
C686   C     0.51841   0.49296   0.59336   0.00000  Uiso   1.00
C687   C     0.46604   0.49003   0.95049   0.00000  Uiso   1.00
C688   C     0.48506   0.40031   0.74974   0.00000  Uiso   1.00
C689   C     0.53585   0.50162   0.54813   0.00000  Uiso   1.00
C690   C     0.40400   0.46135   0.96846   0.00000  Uiso   1.00
C691   C     0.59920   0.52699   0.52941   0.00000  Uiso   1.00
C692   C     0.51097   0.50222   0.97671   0.00000  Uiso   1.00
C693   C     0.49176   0.48747   0.52141   0.00000  Uiso   1.00
C694   C     0.58694   0.34523   0.71778   0.00000  Uiso   1.00
C695   C     0.41306   0.65478   0.78225   0.00000  Uiso   1.00
C696   C     0.42943   0.45851   0.53772   0.00000  Uiso   1.00
C697   C     0.57475   0.52773   0.95957   0.00000  Uiso   1.00
C698   C     0.38672   0.44577   0.51168   0.00000  Uiso   1.00
C699   C     0.61776   0.53954   0.98544   0.00000  Uiso   1.00
C700   C     0.52463   0.65437   0.74372   0.00000  Uiso   1.00
C701   C     0.47537   0.34563   0.75630   0.00000  Uiso   1.00
C702   C     0.46136   0.49599   0.83309   0.00000  Uiso   1.00
Cu703  Cu    0.44071   0.49441   0.74516   0.00000  Uiso   1.00
Cu704  Cu    0.55929   0.50559   0.75483   0.00000  Uiso   1.00
H705   H     0.33956   0.42347   0.52561   0.00000  Uiso   1.00
H706   H     0.59395   0.53848   0.92590   0.00000  Uiso   1.00
H707   H     0.66623   0.53497   0.78645   0.00000  Uiso   1.00
H708   H     0.33377   0.46503   0.71355   0.00000  Uiso   1.00
H709   H     0.66615   0.55886   0.97079   0.00000  Uiso   1.00
H710   H     0.47037   0.47626   0.60987   0.00000  Uiso   1.00
H711   H     0.52648   0.52778   0.89120   0.00000  Uiso   1.00
H712   H     0.65941   0.54231   0.61910   0.00000  Uiso   1.00
H713   H     0.34299   0.44864   0.87920   0.00000  Uiso   1.00
H714   H     0.64574   0.42584   0.95647   0.00000  Uiso   1.00
H715   H     0.35879   0.55899   0.54065   0.00000  Uiso   1.00
H716   H     0.41205   0.44375   0.57038   0.00000  Uiso   1.00
N717   N     0.64839   0.51401   0.76212   0.00000  Uiso   1.00
N718   N     0.35161   0.48599   0.73788   0.00000  Uiso   1.00
N719   N     0.63663   0.36386   0.69692   0.00000  Uiso   1.00
N720   N     0.36338   0.63616   0.80313   0.00000  Uiso   1.00
O721   O     0.46148   0.57142   0.74686   0.00000  Uiso   1.00
O722   O     0.53852   0.42858   0.75314   0.00000  Uiso   1.00
O723   O     0.56163   0.58086   0.75502   0.00000  Uiso   1.00
O724   O     0.43837   0.41914   0.74497   0.00000  Uiso   1.00
O725   O     0.42185   0.49263   0.80854   0.00000  Uiso   1.00
O726   O     0.57815   0.50737   0.69145   0.00000  Uiso   1.00
O727   O     0.52199   0.50207   0.81671   0.00000  Uiso   1.00
O728   O     0.47801   0.49793   0.68329   0.00000  Uiso   1.00
C729   C     0.84827   0.59969   0.75027   0.00000  Uiso   1.00
C730   C     0.87195   0.50365   0.66686   0.00000  Uiso   1.00
C731   C     0.77141   0.48879   0.88046   0.00000  Uiso   1.00
C732   C     0.89527   0.50807   0.61920   0.00000  Uiso   1.00
C733   C     0.69318   0.44776   0.94277   0.00000  Uiso   1.00
C734   C     0.97677   0.54024   0.55505   0.00000  Uiso   1.00
C735   C     0.71016   0.46128   0.89893   0.00000  Uiso   1.00
C736   C     0.95837   0.53049   0.59968   0.00000  Uiso   1.00
C737   C     0.81439   0.50466   0.90656   0.00000  Uiso   1.00
C738   C     0.85174   0.49296   0.59336   0.00000  Uiso   1.00
C739   C     0.79938   0.49003   0.95049   0.00000  Uiso   1.00
C740   C     0.81839   0.40031   0.74974   0.00000  Uiso   1.00
C741   C     0.86918   0.50162   0.54813   0.00000  Uiso   1.00
C742   C     0.73734   0.46135   0.96846   0.00000  Uiso   1.00
C743   C     0.93253   0.52699   0.52941   0.00000  Uiso   1.00
C744   C     0.84431   0.50222   0.97671   0.00000  Uiso   1.00
C745   C     0.82509   0.48747   0.52141   0.00000  Uiso   1.00
C746   C     0.92027   0.34523   0.71778   0.00000  Uiso   1.00
C747   C     0.74640   0.65478   0.78225   0.00000  Uiso   1.00
C748   C     0.76276   0.45851   0.53772   0.00000  Uiso   1.00
C749   C     0.90808   0.52773   0.95957   0.00000  Uiso   1.00
C750   C     0.72005   0.44577   0.51168   0.00000  Uiso   1.00
C751   C     0.95109   0.53954   0.98544   0.00000  Uiso   1.00
C752   C     0.85796   0.65437   0.74372   0.00000  Uiso   1.00
C753   C     0.80870   0.34563   0.75630   0.00000  Uiso   1.00
C754   C     0.79470   0.49599   0.83309   0.00000  Uiso   1.00
Cu755  Cu    0.77404   0.49441   0.74516   0.00000  Uiso   1.00
Cu756  Cu    0.89263   0.50559   0.75483   0.00000  Uiso   1.00
H757   H     0.67289   0.42347   0.52561   0.00000  Uiso   1.00
H758   H     0.92728   0.53848   0.92590   0.00000  Uiso   1.00
H759   H     0.99957   0.53497   0.78645   0.00000  Uiso   1.00
H760   H     0.66710   0.46503   0.71355   0.00000  Uiso   1.00
H761   H     0.99948   0.55886   0.97079   0.00000  Uiso   1.00
H762   H     0.80370   0.47626   0.60987   0.00000  Uiso   1.00
H763   H     0.85981   0.52778   0.89120   0.00000  Uiso   1.00
H764   H     0.99274   0.54231   0.61910   0.00000  Uiso   1.00
H765   H     0.67632   0.44864   0.87920   0.00000  Uiso   1.00
H766   H     0.97908   0.42584   0.95647   0.00000  Uiso   1.00
H767   H     0.69212   0.55899   0.54065   0.00000  Uiso   1.00
H768   H     0.74538   0.44375   0.57038   0.00000  Uiso   1.00
N769   N     0.98173   0.51401   0.76212   0.00000  Uiso   1.00
N770   N     0.68494   0.48599   0.73788   0.00000  Uiso   1.00
N771   N     0.96996   0.36386   0.69692   0.00000  Uiso   1.00
N772   N     0.69672   0.63616   0.80313   0.00000  Uiso   1.00
O773   O     0.79482   0.57142   0.74686   0.00000  Uiso   1.00
O774   O     0.87185   0.42858   0.75314   0.00000  Uiso   1.00
O775   O     0.89496   0.58086   0.75502   0.00000  Uiso   1.00
O776   O     0.77171   0.41914   0.74497   0.00000  Uiso   1.00
O777   O     0.75518   0.49263   0.80854   0.00000  Uiso   1.00
O778   O     0.91149   0.50737   0.69145   0.00000  Uiso   1.00
O779   O     0.85532   0.50207   0.81671   0.00000  Uiso   1.00
O780   O     0.81134   0.49793   0.68329   0.00000  Uiso   1.00
C781   C     0.18161   0.93303   0.75027   0.00000  Uiso   1.00
C782   C     0.20528   0.83698   0.66686   0.00000  Uiso   1.00
C783   C     0.10474   0.82212   0.88046   0.00000  Uiso   1.00
C784   C     0.22861   0.84140   0.61920   0.00000  Uiso   1.00
C785   C     0.02651   0.78110   0.94277   0.00000  Uiso   1.00
C786   C     0.31010   0.87358   0.55505   0.00000  Uiso   1.00
C787   C     0.04350   0.79461   0.89893   0.00000  Uiso   1.00
C788   C     0.29170   0.86382   0.59968   0.00000  Uiso   1.00
C789   C     0.14773   0.83799   0.90656   0.00000  Uiso   1.00
C790   C     0.18507   0.82629   0.59336   0.00000  Uiso   1.00
C791   C     0.13271   0.82336   0.95049   0.00000  Uiso   1.00
C792   C     0.15172   0.73364   0.74974   0.00000  Uiso   1.00
C793   C     0.20251   0.83495   0.54813   0.00000  Uiso   1.00
C794   C     0.07067   0.79469   0.96846   0.00000  Uiso   1.00
C795   C     0.26586   0.86032   0.52941   0.00000  Uiso   1.00
C796   C     0.17764   0.83556   0.97671   0.00000  Uiso   1.00
C797   C     0.15842   0.82081   0.52141   0.00000  Uiso   1.00
C798   C     0.25361   0.67857   0.71778   0.00000  Uiso   1.00
C799   C     0.07973   0.98811   0.78225   0.00000  Uiso   1.00
C800   C     0.09609   0.79184   0.53772   0.00000  Uiso   1.00
C801   C     0.24142   0.86107   0.95957   0.00000  Uiso   1.00
C802   C     0.05339   0.77911   0.51168   0.00000  Uiso   1.00
C803   C     0.28443   0.87288   0.98544   0.00000  Uiso   1.00
C804   C     0.19130   0.98771   0.74372   0.00000  Uiso   1.00
C805   C     0.14203   0.67896   0.75630   0.00000  Uiso   1.00
C806   C     0.12803   0.82932   0.83309   0.00000  Uiso   1.00
Cu807  Cu    0.10737   0.82775   0.74516   0.00000  Uiso   1.00
Cu808  Cu    0.22596   0.83892   0.75483   0.00000  Uiso   1.00
H809   H     0.00623   0.75680   0.52561   0.00000  Uiso   1.00
H810   H     0.26062   0.87182   0.92590   0.00000  Uiso   1.00
H811   H     0.33290   0.86831   0.78645   0.00000  Uiso   1.00
H812   H     0.00044   0.79836   0.71355   0.00000  Uiso   1.00
H813   H     0.33282   0.89219   0.97079   0.00000  Uiso   1.00
H814   H     0.13704   0.80959   0.60987   0.00000  Uiso   1.00
H815   H     0.19314   0.86111   0.89120   0.00000  Uiso   1.00
H816   H     0.32608   0.87564   0.61910   0.00000  Uiso   1.00
H817   H     0.00965   0.78197   0.87920   0.00000  Uiso   1.00
H818   H     0.31241   0.75918   0.95647   0.00000  Uiso   1.00
H819   H     0.02546   0.89232   0.54065   0.00000  Uiso   1.00
H820   H     0.07872   0.77709   0.57038   0.00000  Uiso   1.00
N821   N     0.31506   0.84735   0.76212   0.00000  Uiso   1.00
N822   N     0.01827   0.81932   0.73788   0.00000  Uiso   1.00
N823   N     0.30329   0.69719   0.69692   0.00000  Uiso   1.00
N824   N     0.03005   0.96949   0.80313   0.00000  Uiso   1.00
O825   O     0.12815   0.90476   0.74686   0.00000  Uiso   1.00
O826   O     0.20518   0.76191   0.75314   0.00000  Uiso   1.00
O827   O     0.22829   0.91420   0.75502   0.00000  Uiso   1.00
O828   O     0.10504   0.75247   0.74497   0.00000  Uiso   1.00
O829   O     0.08851   0.82597   0.80854   0.00000  Uiso   1.00
O830   O     0.24482   0.84070   0.69145   0.00000  Uiso   1.00
O831   O     0.18866   0.83540   0.81671   0.00000  Uiso   1.00
O832   O     0.14468   0.83126   0.68329   0.00000  Uiso   1.00
C833   C     0.51494   0.93303   0.75027   0.00000  Uiso   1.00
C834   C     0.53861   0.83698   0.66686   0.00000  Uiso   1.00
C835   C     0.43808   0.82212   0.88046   0.00000  Uiso   1.00
C836   C     0.56194   0.84140   0.61920   0.00000  Uiso   1.00
C837   C     0.35984   0.78110   0.94277   0.00000  Uiso   1.00
C838   C     0.64344   0.87358   0.55505   0.00000  Uiso   1.00
C839   C     0.37683   0.79461   0.89893   0.00000  Uiso   1.00
C840   C     0.62503   0.86382   0.59968   0.00000  Uiso   1.00
C841   C     0.48106   0.83799   0.90656   0.00000  Uiso   1.00
C842   C     0.51841   0.82629   0.59336   0.00000  Uiso   1.00
C843   C     0.46604   0.82336   0.95049   0.00000  Uiso   1.00
C844   C     0.48506   0.73364   0.74974   0.00000  Uiso   1.00
C845   C     0.53585   0.83495   0.54813   0.00000  Uiso   1.00
C846   C     0.40400   0.79469   0.96846   0.00000  Uiso   1.00
C847   C     0.59920   0.86032   0.52941   0.00000  Uiso   1.00
C848   C     0.51097   0.83556   0.97671   0.00000  Uiso   1.00
C849   C     0.49176   0.82081   0.52141   0.00000  Uiso   1.00
C850   C     0.58694   0.67857   0.71778   0.00000  Uiso   1.00
C851   C     0.41306   0.98811   0.78225   0.00000  Uiso   1.00
C852   C     0.42943   0.79184   0.53772   0.00000  Uiso   1.00
C853   C     0.57475   0.86107   0.95957   0.00000  Uiso   1.00
C854   C     0.38672   0.77911   0.51168   0.00000  Uiso   1.00
C855   C     0.61776   0.87288   0.98544   0.00000  Uiso   1.00
C856   C     0.52463   0.98771   0.74372   0.00000  Uiso   1.00
C857   C     0.47537   0.67896   0.75630   0.00000  Uiso   1.00
C858   C     0.46136   0.82932   0.83309   0.00000  Uiso   1.00
Cu859  Cu    0.44071   0.82775   0.74516   0.00000  Uiso   1.00
Cu860  Cu    0.55929   0.83892   0.75483   0.00000  Uiso   1.00
H861   H     0.33956   0.75680   0.52561   0.00000  Uiso   1.00
H862   H     0.59395   0.87182   0.92590   0.00000  Uiso   1.00
H863   H     0.66623   0.86831   0.78645   0.00000  Uiso   1.00
H864   H     0.33377   0.79836   0.71355   0.00000  Uiso   1.00
H865   H     0.66615   0.89219   0.97079   0.00000  Uiso   1.00
H866   H     0.47037   0.80959   0.60987   0.00000  Uiso   1.00
H867   H     0.52648   0.86111   0.89120   0.00000  Uiso   1.00
H868   H     0.65941   0.87564   0.61910   0.00000  Uiso   1.00
H869   H     0.34299   0.78197   0.87920   0.00000  Uiso   1.00
H870   H     0.64574   0.75918   0.95647   0.00000  Uiso   1.00
H871   H     0.35879   0.89232   0.54065   0.00000  Uiso   1.00
H872   H     0.41205   0.77709   0.57038   0.00000  Uiso   1.00
N873   N     0.64839   0.84735   0.76212   0.00000  Uiso   1.00
N874   N     0.35161   0.81932   0.73788   0.00000  Uiso   1.00
N875   N     0.63663   0.69719   0.69692   0.00000  Uiso   1.00
N876   N     0.36338   0.96949   0.80313   0.00000  Uiso   1.00
O877   O     0.46148   0.90476   0.74686   0.00000  Uiso   1.00
O878   O     0.53852   0.76191   0.75314   0.00000  Uiso   1.00
O879   O     0.56163   0.91420   0.75502   0.00000  Uiso   1.00
O880   O     0.43837   0.75247   0.74497   0.00000  Uiso   1.00
O881   O     0.42185   0.82597   0.80854   0.00000  Uiso   1.00
O882   O     0.57815   0.84070   0.69145   0.00000  Uiso   1.00
O883   O     0.52199   0.83540   0.81671   0.00000  Uiso   1.00
O884   O     0.47801   0.83126   0.68329   0.00000  Uiso   1.00
C885   C     0.84827   0.93303   0.75027   0.00000  Uiso   1.00
C886   C     0.87195   0.83698   0.66686   0.00000  Uiso   1.00
C887   C     0.77141   0.82212   0.88046   0.00000  Uiso   1.00
C888   C     0.89527   0.84140   0.61920   0.00000  Uiso   1.00
C889   C     0.69318   0.78110   0.94277   0.00000  Uiso   1.00
C890   C     0.97677   0.87358   0.55505   0.00000  Uiso   1.00
C891   C     0.71016   0.79461   0.89893   0.00000  Uiso   1.00
C892   C     0.95837   0.86382   0.59968   0.00000  Uiso   1.00
C893   C     0.81439   0.83799   0.90656   0.00000  Uiso   1.00
C894   C     0.85174   0.82629   0.59336   0.00000  Uiso   1.00
C895   C     0.79938   0.82336   0.95049   0.00000  Uiso   1.00
C896   C     0.81839   0.73364   0.74974   0.00000  Uiso   1.00
C897   C     0.86918   0.83495   0.54813   0.00000  Uiso   1.00
C898   C     0.73734   0.79469   0.96846   0.00000  Uiso   1.00
C899   C     0.93253   0.86032   0.52941   0.00000  Uiso   1.00
C900   C     0.84431   0.83556   0.97671   0.00000  Uiso   1.00
C901   C     0.82509   0.82081   0.52141   0.00000  Uiso   1.00
C902   C     0.92027   0.67857   0.71778   0.00000  Uiso   1.00
C903   C     0.74640   0.98811   0.78225   0.00000  Uiso   1.00
C904   C     0.76276   0.79184   0.53772   0.00000  Uiso   1.00
C905   C     0.90808   0.86107   0.95957   0.00000  Uiso   1.00
C906   C     0.72005   0.77911   0.51168   0.00000  Uiso   1.00
C907   C     0.95109   0.87288   0.98544   0.00000  Uiso   1.00
C908   C     0.85796   0.98771   0.74372   0.00000  Uiso   1.00
C909   C     0.80870   0.67896   0.75630   0.00000  Uiso   1.00
C910   C     0.79470   0.82932   0.83309   0.00000  Uiso   1.00
Cu911  Cu    0.77404   0.82775   0.74516   0.00000  Uiso   1.00
Cu912  Cu    0.89263   0.83892   0.75483   0.00000  Uiso   1.00
H913   H     0.67289   0.75680   0.52561   0.00000  Uiso   1.00
H914   H     0.92728   0.87182   0.92590   0.00000  Uiso   1.00
H915   H     0.99957   0.86831   0.78645   0.00000  Uiso   1.00
H916   H     0.66710   0.79836   0.71355   0.00000  Uiso   1.00
H917   H     0.99948   0.89219   0.97079   0.00000  Uiso   1.00
H918   H     0.80370   0.80959   0.60987   0.00000  Uiso   1.00
H919   H     0.85981   0.86111   0.89120   0.00000  Uiso   1.00
H920   H     0.99274   0.87564   0.61910   0.00000  Uiso   1.00
H921   H     0.67632   0.78197   0.87920   0.00000  Uiso   1.00
H922   H     0.97908   0.75918   0.95647   0.00000  Uiso   1.00
H923   H     0.69212   0.89232   0.54065   0.00000  Uiso   1.00
H924   H     0.74538   0.77709   0.57038   0.00000  Uiso   1.00
N925   N     0.98173   0.84735   0.76212   0.00000  Uiso   1.00
N926   N     0.68494   0.81932   0.73788   0.00000  Uiso   1.00
N927   N     0.96996   0.69719   0.69692   0.00000  Uiso   1.00
N928   N     0.69672   0.96949   0.80313   0.00000  Uiso   1.00
O929   O     0.79482   0.90476   0.74686   0.00000  Uiso   1.00
O930   O     0.87185   0.76191   0.75314   0.00000  Uiso   1.00
O931   O     0.89496   0.91420   0.75502   0.00000  Uiso   1.00
O932   O     0.77171   0.75247   0.74497   0.00000  Uiso   1.00
O933   O     0.75518   0.82597   0.80854   0.00000  Uiso   1.00
O934   O     0.91149   0.84070   0.69145   0.00000  Uiso   1.00
O935   O     0.85532   0.83540   0.81671   0.00000  Uiso   1.00
O936   O     0.81134   0.83126   0.68329   0.00000  Uiso   1.00
loop_
_geom_bond_atom_site_label_1
_geom_bond_atom_site_label_2
_geom_bond_distance
_geom_bond_site_symmetry_2
_ccdc_geom_bond_type
C1     O45     1.287   .     A
C1     C24     1.429   .     S
C1     O47     1.289   .     A
C2     O50     1.302   .     A
C2     C4      1.469   .     S
C2     O52     1.295   .     A
C3     C9      1.399   .     A
C3     C7      1.397   .     A
C3     C26     1.467   .     S
C4     C10     1.401   .     A
C4     C8      1.398   .     A
C5     C7      1.393   .     A
C5     C14     1.405   .     A
C5     H142    1.084   1_455 S
C6     C8      1.393   .     A
C6     C15     1.405   .     A
C6     H91     1.084   .     S
C7     H37     1.083   .     S
C8     H36     1.083   .     S
C9     C11     1.406   .     A
C9     H35     1.075   .     S
C10    H34     1.074   .     S
C10    C13     1.406   .     A
C11    C14     1.418   .     A
C11    C16     1.429   .     A
C12    C25     1.429   .     S
C12    O48     1.289   .     A
C12    O46     1.287   .     A
C13    C17     1.429   .     A
C13    C15     1.418   .     A
C14    C490    1.390   .     S
C15    C491    1.389   1_554 S
C16    C21     1.417   .     A
C16    C485    1.426   .     S
C17    C20     1.417   .     A
C17    C484    1.426   1_554 S
C18    N43     1.157   .     T
C18    C336    1.454   1_545 S
C19    N44     1.157   .     T
C19    C181    1.454   .     S
C20    C22     1.387   .     A
C20    H40     1.076   .     S
C21    H30     1.075   .     S
C21    C23     1.387   .     A
C22    H29     1.084   .     S
C22    C482    1.390   1_554 S
C23    H33     1.085   .     S
C23    C483    1.389   .     S
C24    C174    1.454   .     S
C24    C181    1.350   .     S
C25    C336    1.350   1_545 S
C25    C331    1.454   1_545 S
C26    O51     1.295   .     A
C26    O49     1.302   .     A
Cu27   O48     1.967   .     S
Cu27   O45     1.976   .     S
Cu27   O52     1.922   .     S
Cu27   N42     2.020   .     S
Cu27   Cu28    2.688   .     S
Cu27   O49     1.944   .     S
Cu28   O47     1.967   .     S
Cu28   O46     1.976   .     S
Cu28   O51     1.922   .     S
Cu28   N41     2.020   .     S
Cu28   O50     1.944   .     S
H31    N41     1.028   .     S
H32    N42     1.028   .     S
H38    C57     1.084   .     S
H39    C110    1.084   1_455 S
N41    N94     1.284   .     S
N42    N145    1.284   1_455 S
C53    O97     1.287   .     A
C53    C76     1.429   .     S
C53    O99     1.289   .     A
C54    O102    1.302   .     A
C54    C56     1.469   .     S
C54    O104    1.295   .     A
C55    C61     1.399   .     A
C55    C59     1.397   .     A
C55    C78     1.467   .     S
C56    C62     1.401   .     A
C56    C60     1.398   .     A
C57    C59     1.393   .     A
C57    C66     1.405   .     A
C58    C60     1.393   .     A
C58    C67     1.405   .     A
C58    H143    1.084   .     S
C59    H89     1.083   .     S
C60    H88     1.083   .     S
C61    C63     1.406   .     A
C61    H87     1.075   .     S
C62    H86     1.074   .     S
C62    C65     1.406   .     A
C63    C66     1.418   .     A
C63    C68     1.429   .     A
C64    C77     1.429   .     S
C64    O100    1.289   .     A
C64    O98     1.287   .     A
C65    C69     1.429   .     A
C65    C67     1.418   .     A
C66    C542    1.390   .     S
C67    C543    1.389   1_554 S
C68    C73     1.417   .     A
C68    C537    1.426   .     S
C69    C72     1.417   .     A
C69    C536    1.426   1_554 S
C70    N95     1.157   .     T
C70    C388    1.454   1_545 S
C71    N96     1.157   .     T
C71    C233    1.454   .     S
C72    C74     1.387   .     A
C72    H92     1.076   .     S
C73    H82     1.075   .     S
C73    C75     1.387   .     A
C74    H81     1.084   .     S
C74    C534    1.390   1_554 S
C75    H85     1.085   .     S
C75    C535    1.389   .     S
C76    C226    1.454   .     S
C76    C233    1.350   .     S
C77    C388    1.350   1_545 S
C77    C383    1.454   1_545 S
C78    O103    1.295   .     A
C78    O101    1.302   .     A
Cu79   O100    1.967   .     S
Cu79   O97     1.976   .     S
Cu79   O104    1.922   .     S
Cu79   N94     2.020   .     S
Cu79   Cu80    2.688   .     S
Cu79   O101    1.944   .     S
Cu80   O99     1.967   .     S
Cu80   O98     1.976   .     S
Cu80   O103    1.922   .     S
Cu80   N93     2.020   .     S
Cu80   O102    1.944   .     S
H83    N93     1.028   .     S
H84    N94     1.028   .     S
H90    C109    1.084   .     S
N93    N146    1.284   .     S
C105   O149    1.287   .     A
C105   C128    1.429   .     S
C105   O151    1.289   .     A
C106   O154    1.302   .     A
C106   C108    1.469   .     S
C106   O156    1.295   .     A
C107   C113    1.399   .     A
C107   C111    1.397   .     A
C107   C130    1.467   .     S
C108   C114    1.401   .     A
C108   C112    1.398   .     A
C109   C111    1.393   .     A
C109   C118    1.405   .     A
C110   C112    1.393   .     A
C110   C119    1.405   .     A
C110   H39     1.084   1_655 S
C111   H141    1.083   .     S
C112   H140    1.083   .     S
C113   C115    1.406   .     A
C113   H139    1.075   .     S
C114   H138    1.074   .     S
C114   C117    1.406   .     A
C115   C118    1.418   .     A
C115   C120    1.429   .     A
C116   C129    1.429   .     S
C116   O152    1.289   .     A
C116   O150    1.287   .     A
C117   C121    1.429   .     A
C117   C119    1.418   .     A
C118   C594    1.390   .     S
C119   C595    1.389   1_554 S
C120   C125    1.417   .     A
C120   C589    1.426   .     S
C121   C124    1.417   .     A
C121   C588    1.426   1_554 S
C122   N147    1.157   .     T
C122   C440    1.454   1_545 S
C123   N148    1.157   .     T
C123   C285    1.454   .     S
C124   C126    1.387   .     A
C124   H144    1.076   .     S
C125   H134    1.075   .     S
C125   C127    1.387   .     A
C126   H133    1.084   .     S
C126   C586    1.390   1_554 S
C127   H137    1.085   .     S
C127   C587    1.389   .     S
C128   C278    1.454   .     S
C128   C285    1.350   .     S
C129   C440    1.350   1_545 S
C129   C435    1.454   1_545 S
C130   O155    1.295   .     A
C130   O153    1.302   .     A
Cu131  O152    1.967   .     S
Cu131  O149    1.976   .     S
Cu131  O156    1.922   .     S
Cu131  N146    2.020   .     S
Cu131  Cu132   2.688   .     S
Cu131  O153    1.944   .     S
Cu132  O151    1.967   .     S
Cu132  O150    1.976   .     S
Cu132  O155    1.922   .     S
Cu132  N145    2.020   .     S
Cu132  O154    1.944   .     S
H135   N145    1.028   .     S
H136   N146    1.028   .     S
H142   C5      1.084   1_655 S
N145   N42     1.284   1_655 S
C157   O201    1.287   .     A
C157   C180    1.429   .     S
C157   O203    1.289   .     A
C158   O206    1.302   .     A
C158   C160    1.469   .     S
C158   O208    1.295   .     A
C159   C165    1.399   .     A
C159   C163    1.397   .     A
C159   C182    1.467   .     S
C160   C166    1.401   .     A
C160   C164    1.398   .     A
C161   C163    1.393   .     A
C161   C170    1.405   .     A
C161   H298    1.084   1_455 S
C162   C164    1.393   .     A
C162   C171    1.405   .     A
C162   H247    1.084   .     S
C163   H193    1.083   .     S
C164   H192    1.083   .     S
C165   C167    1.406   .     A
C165   H191    1.075   .     S
C166   H190    1.074   .     S
C166   C169    1.406   .     A
C167   C170    1.418   .     A
C167   C172    1.429   .     A
C168   C181    1.429   .     S
C168   O204    1.289   .     A
C168   O202    1.287   .     A
C169   C173    1.429   .     A
C169   C171    1.418   .     A
C170   C646    1.390   .     S
C171   C647    1.389   1_554 S
C172   C177    1.417   .     A
C172   C641    1.426   .     S
C173   C176    1.417   .     A
C173   C640    1.426   1_554 S
C174   N199    1.157   .     T
C175   N200    1.157   .     T
C175   C337    1.454   .     S
C176   C178    1.387   .     A
C176   H196    1.076   .     S
C177   H186    1.075   .     S
C177   C179    1.387   .     A
C178   H185    1.084   .     S
C178   C638    1.390   1_554 S
C179   H189    1.085   .     S
C179   C639    1.389   .     S
C180   C330    1.454   .     S
C180   C337    1.350   .     S
C182   O207    1.295   .     A
C182   O205    1.302   .     A
Cu183  O204    1.967   .     S
Cu183  O201    1.976   .     S
Cu183  O208    1.922   .     S
Cu183  N198    2.020   .     S
Cu183  Cu184   2.688   .     S
Cu183  O205    1.944   .     S
Cu184  O203    1.967   .     S
Cu184  O202    1.976   .     S
Cu184  O207    1.922   .     S
Cu184  N197    2.020   .     S
Cu184  O206    1.944   .     S
H187   N197    1.028   .     S
H188   N198    1.028   .     S
H194   C213    1.084   .     S
H195   C266    1.084   1_455 S
N197   N250    1.284   .     S
N198   N301    1.284   1_455 S
C209   O253    1.287   .     A
C209   C232    1.429   .     S
C209   O255    1.289   .     A
C210   O258    1.302   .     A
C210   C212    1.469   .     S
C210   O260    1.295   .     A
C211   C217    1.399   .     A
C211   C215    1.397   .     A
C211   C234    1.467   .     S
C212   C218    1.401   .     A
C212   C216    1.398   .     A
C213   C215    1.393   .     A
C213   C222    1.405   .     A
C214   C216    1.393   .     A
C214   C223    1.405   .     A
C214   H299    1.084   .     S
C215   H245    1.083   .     S
C216   H244    1.083   .     S
C217   C219    1.406   .     A
C217   H243    1.075   .     S
C218   H242    1.074   .     S
C218   C221    1.406   .     A
C219   C222    1.418   .     A
C219   C224    1.429   .     A
C220   C233    1.429   .     S
C220   O256    1.289   .     A
C220   O254    1.287   .     A
C221   C225    1.429   .     A
C221   C223    1.418   .     A
C222   C698    1.390   .     S
C223   C699    1.389   1_554 S
C224   C229    1.417   .     A
C224   C693    1.426   .     S
C225   C228    1.417   .     A
C225   C692    1.426   1_554 S
C226   N251    1.157   .     T
C227   N252    1.157   .     T
C227   C389    1.454   .     S
C228   C230    1.387   .     A
C228   H248    1.076   .     S
C229   H238    1.075   .     S
C229   C231    1.387   .     A
C230   H237    1.084   .     S
C230   C690    1.390   1_554 S
C231   H241    1.085   .     S
C231   C691    1.389   .     S
C232   C382    1.454   .     S
C232   C389    1.350   .     S
C234   O259    1.295   .     A
C234   O257    1.302   .     A
Cu235  O256    1.967   .     S
Cu235  O253    1.976   .     S
Cu235  O260    1.922   .     S
Cu235  N250    2.020   .     S
Cu235  Cu236   2.688   .     S
Cu235  O257    1.944   .     S
Cu236  O255    1.967   .     S
Cu236  O254    1.976   .     S
Cu236  O259    1.922   .     S
Cu236  N249    2.020   .     S
Cu236  O258    1.944   .     S
H239   N249    1.028   .     S
H240   N250    1.028   .     S
H246   C265    1.084   .     S
N249   N302    1.284   .     S
C261   O305    1.287   .     A
C261   C284    1.429   .     S
C261   O307    1.289   .     A
C262   O310    1.302   .     A
C262   C264    1.469   .     S
C262   O312    1.295   .     A
C263   C269    1.399   .     A
C263   C267    1.397   .     A
C263   C286    1.467   .     S
C264   C270    1.401   .     A
C264   C268    1.398   .     A
C265   C267    1.393   .     A
C265   C274    1.405   .     A
C266   C268    1.393   .     A
C266   C275    1.405   .     A
C266   H195    1.084   1_655 S
C267   H297    1.083   .     S
C268   H296    1.083   .     S
C269   C271    1.406   .     A
C269   H295    1.075   .     S
C270   H294    1.074   .     S
C270   C273    1.406   .     A
C271   C274    1.418   .     A
C271   C276    1.429   .     A
C272   C285    1.429   .     S
C272   O308    1.289   .     A
C272   O306    1.287   .     A
C273   C277    1.429   .     A
C273   C275    1.418   .     A
C274   C750    1.390   .     S
C275   C751    1.389   1_554 S
C276   C281    1.417   .     A
C276   C745    1.426   .     S
C277   C280    1.417   .     A
C277   C744    1.426   1_554 S
C278   N303    1.157   .     T
C279   N304    1.157   .     T
C279   C441    1.454   .     S
C280   C282    1.387   .     A
C280   H300    1.076   .     S
C281   H290    1.075   .     S
C281   C283    1.387   .     A
C282   H289    1.084   .     S
C282   C742    1.390   1_554 S
C283   H293    1.085   .     S
C283   C743    1.389   .     S
C284   C434    1.454   .     S
C284   C441    1.350   .     S
C286   O311    1.295   .     A
C286   O309    1.302   .     A
Cu287  O308    1.967   .     S
Cu287  O305    1.976   .     S
Cu287  O312    1.922   .     S
Cu287  N302    2.020   .     S
Cu287  Cu288   2.688   .     S
Cu287  O309    1.944   .     S
Cu288  O307    1.967   .     S
Cu288  O306    1.976   .     S
Cu288  O311    1.922   .     S
Cu288  N301    2.020   .     S
Cu288  O310    1.944   .     S
H291   N301    1.028   .     S
H292   N302    1.028   .     S
H298   C161    1.084   1_655 S
N301   N198    1.284   1_655 S
C313   O357    1.287   .     A
C313   C336    1.429   .     S
C313   O359    1.289   .     A
C314   O362    1.302   .     A
C314   C316    1.469   .     S
C314   O364    1.295   .     A
C315   C321    1.399   .     A
C315   C319    1.397   .     A
C315   C338    1.467   .     S
C316   C322    1.401   .     A
C316   C320    1.398   .     A
C317   C319    1.393   .     A
C317   C326    1.405   .     A
C317   H454    1.084   1_455 S
C318   C320    1.393   .     A
C318   C327    1.405   .     A
C318   H403    1.084   .     S
C319   H349    1.083   .     S
C320   H348    1.083   .     S
C321   C323    1.406   .     A
C321   H347    1.075   .     S
C322   H346    1.074   .     S
C322   C325    1.406   .     A
C323   C326    1.418   .     A
C323   C328    1.429   .     A
C324   C337    1.429   .     S
C324   O360    1.289   .     A
C324   O358    1.287   .     A
C325   C329    1.429   .     A
C325   C327    1.418   .     A
C326   C802    1.390   .     S
C327   C803    1.389   1_554 S
C328   C333    1.417   .     A
C328   C797    1.426   .     S
C329   C332    1.417   .     A
C329   C796    1.426   1_554 S
C330   N355    1.157   .     T
C331   N356    1.157   .     T
C331   C25     1.454   1_565 S
C332   C334    1.387   .     A
C332   H352    1.076   .     S
C333   H342    1.075   .     S
C333   C335    1.387   .     A
C334   H341    1.084   .     S
C334   C794    1.390   1_554 S
C335   H345    1.085   .     S
C335   C795    1.389   .     S
C336   C18     1.454   1_565 S
C336   C25     1.350   1_565 S
C338   O363    1.295   .     A
C338   O361    1.302   .     A
Cu339  O360    1.967   .     S
Cu339  O357    1.976   .     S
Cu339  O364    1.922   .     S
Cu339  N354    2.020   .     S
Cu339  Cu340   2.688   .     S
Cu339  O361    1.944   .     S
Cu340  O359    1.967   .     S
Cu340  O358    1.976   .     S
Cu340  O363    1.922   .     S
Cu340  N353    2.020   .     S
Cu340  O362    1.944   .     S
H343   N353    1.028   .     S
H344   N354    1.028   .     S
H350   C369    1.084   .     S
H351   C422    1.084   1_455 S
N353   N406    1.284   .     S
N354   N457    1.284   1_455 S
C365   O409    1.287   .     A
C365   C388    1.429   .     S
C365   O411    1.289   .     A
C366   O414    1.302   .     A
C366   C368    1.469   .     S
C366   O416    1.295   .     A
C367   C373    1.399   .     A
C367   C371    1.397   .     A
C367   C390    1.467   .     S
C368   C374    1.401   .     A
C368   C372    1.398   .     A
C369   C371    1.393   .     A
C369   C378    1.405   .     A
C370   C372    1.393   .     A
C370   C379    1.405   .     A
C370   H455    1.084   .     S
C371   H401    1.083   .     S
C372   H400    1.083   .     S
C373   C375    1.406   .     A
C373   H399    1.075   .     S
C374   H398    1.074   .     S
C374   C377    1.406   .     A
C375   C378    1.418   .     A
C375   C380    1.429   .     A
C376   C389    1.429   .     S
C376   O412    1.289   .     A
C376   O410    1.287   .     A
C377   C381    1.429   .     A
C377   C379    1.418   .     A
C378   C854    1.390   .     S
C379   C855    1.389   1_554 S
C380   C385    1.417   .     A
C380   C849    1.426   .     S
C381   C384    1.417   .     A
C381   C848    1.426   1_554 S
C382   N407    1.157   .     T
C383   N408    1.157   .     T
C383   C77     1.454   1_565 S
C384   C386    1.387   .     A
C384   H404    1.076   .     S
C385   H394    1.075   .     S
C385   C387    1.387   .     A
C386   H393    1.084   .     S
C386   C846    1.390   1_554 S
C387   H397    1.085   .     S
C387   C847    1.389   .     S
C388   C70     1.454   1_565 S
C388   C77     1.350   1_565 S
C390   O415    1.295   .     A
C390   O413    1.302   .     A
Cu391  O412    1.967   .     S
Cu391  O409    1.976   .     S
Cu391  O416    1.922   .     S
Cu391  N406    2.020   .     S
Cu391  Cu392   2.688   .     S
Cu391  O413    1.944   .     S
Cu392  O411    1.967   .     S
Cu392  O410    1.976   .     S
Cu392  O415    1.922   .     S
Cu392  N405    2.020   .     S
Cu392  O414    1.944   .     S
H395   N405    1.028   .     S
H396   N406    1.028   .     S
H402   C421    1.084   .     S
N405   N458    1.284   .     S
C417   O461    1.287   .     A
C417   C440    1.429   .     S
C417   O463    1.289   .     A
C418   O466    1.302   .     A
C418   C420    1.469   .     S
C418   O468    1.295   .     A
C419   C425    1.399   .     A
C419   C423    1.397   .     A
C419   C442    1.467   .     S
C420   C426    1.401   .     A
C420   C424    1.398   .     A
C421   C423    1.393   .     A
C421   C430    1.405   .     A
C422   C424    1.393   .     A
C422   C431    1.405   .     A
C422   H351    1.084   1_655 S
C423   H453    1.083   .     S
C424   H452    1.083   .     S
C425   C427    1.406   .     A
C425   H451    1.075   .     S
C426   H450    1.074   .     S
C426   C429    1.406   .     A
C427   C430    1.418   .     A
C427   C432    1.429   .     A
C428   C441    1.429   .     S
C428   O464    1.289   .     A
C428   O462    1.287   .     A
C429   C433    1.429   .     A
C429   C431    1.418   .     A
C430   C906    1.390   .     S
C431   C907    1.389   1_554 S
C432   C437    1.417   .     A
C432   C901    1.426   .     S
C433   C436    1.417   .     A
C433   C900    1.426   1_554 S
C434   N459    1.157   .     T
C435   N460    1.157   .     T
C435   C129    1.454   1_565 S
C436   C438    1.387   .     A
C436   H456    1.076   .     S
C437   H446    1.075   .     S
C437   C439    1.387   .     A
C438   H445    1.084   .     S
C438   C898    1.390   1_554 S
C439   H449    1.085   .     S
C439   C899    1.389   .     S
C440   C122    1.454   1_565 S
C440   C129    1.350   1_565 S
C442   O467    1.295   .     A
C442   O465    1.302   .     A
Cu443  O464    1.967   .     S
Cu443  O461    1.976   .     S
Cu443  O468    1.922   .     S
Cu443  N458    2.020   .     S
Cu443  Cu444   2.688   .     S
Cu443  O465    1.944   .     S
Cu444  O463    1.967   .     S
Cu444  O462    1.976   .     S
Cu444  O467    1.922   .     S
Cu444  N457    2.020   .     S
Cu444  O466    1.944   .     S
H447   N457    1.028   .     S
H448   N458    1.028   .     S
H454   C317    1.084   1_655 S
N457   N354    1.284   1_655 S
C469   O513    1.287   .     A
C469   C492    1.429   .     S
C469   O515    1.289   .     A
C470   O518    1.302   .     A
C470   C472    1.469   .     S
C470   O520    1.295   .     A
C471   C477    1.399   .     A
C471   C475    1.397   .     A
C471   C494    1.467   .     S
C472   C478    1.401   .     A
C472   C476    1.398   .     A
C473   C475    1.393   .     A
C473   C482    1.405   .     A
C473   H610    1.084   1_455 S
C474   C476    1.393   .     A
C474   C483    1.405   .     A
C474   H559    1.084   .     S
C475   H505    1.083   .     S
C476   H504    1.083   .     S
C477   C479    1.406   .     A
C477   H503    1.075   .     S
C478   H502    1.074   .     S
C478   C481    1.406   .     A
C479   C482    1.418   .     A
C479   C484    1.429   .     A
C480   C493    1.429   .     S
C480   O516    1.289   .     A
C480   O514    1.287   .     A
C481   C485    1.429   .     A
C481   C483    1.418   .     A
C482   C22     1.390   1_556 S
C484   C489    1.417   .     A
C484   C17     1.426   1_556 S
C485   C488    1.417   .     A
C486   N511    1.157   .     T
C486   C804    1.454   1_545 S
C487   N512    1.157   .     T
C487   C649    1.454   .     S
C488   C490    1.387   .     A
C488   H508    1.076   .     S
C489   H498    1.075   .     S
C489   C491    1.387   .     A
C490   H497    1.084   .     S
C491   H501    1.085   .     S
C491   C15     1.389   1_556 S
C492   C642    1.454   .     S
C492   C649    1.350   .     S
C493   C804    1.350   1_545 S
C493   C799    1.454   1_545 S
C494   O519    1.295   .     A
C494   O517    1.302   .     A
Cu495  O516    1.967   .     S
Cu495  O513    1.976   .     S
Cu495  O520    1.922   .     S
Cu495  N510    2.020   .     S
Cu495  Cu496   2.688   .     S
Cu495  O517    1.944   .     S
Cu496  O515    1.967   .     S
Cu496  O514    1.976   .     S
Cu496  O519    1.922   .     S
Cu496  N509    2.020   .     S
Cu496  O518    1.944   .     S
H499   N509    1.028   .     S
H500   N510    1.028   .     S
H506   C525    1.084   .     S
H507   C578    1.084   1_455 S
N509   N562    1.284   .     S
N510   N613    1.284   1_455 S
C521   O565    1.287   .     A
C521   C544    1.429   .     S
C521   O567    1.289   .     A
C522   O570    1.302   .     A
C522   C524    1.469   .     S
C522   O572    1.295   .     A
C523   C529    1.399   .     A
C523   C527    1.397   .     A
C523   C546    1.467   .     S
C524   C530    1.401   .     A
C524   C528    1.398   .     A
C525   C527    1.393   .     A
C525   C534    1.405   .     A
C526   C528    1.393   .     A
C526   C535    1.405   .     A
C526   H611    1.084   .     S
C527   H557    1.083   .     S
C528   H556    1.083   .     S
C529   C531    1.406   .     A
C529   H555    1.075   .     S
C530   H554    1.074   .     S
C530   C533    1.406   .     A
C531   C534    1.418   .     A
C531   C536    1.429   .     A
C532   C545    1.429   .     S
C532   O568    1.289   .     A
C532   O566    1.287   .     A
C533   C537    1.429   .     A
C533   C535    1.418   .     A
C534   C74     1.390   1_556 S
C536   C541    1.417   .     A
C536   C69     1.426   1_556 S
C537   C540    1.417   .     A
C538   N563    1.157   .     T
C538   C856    1.454   1_545 S
C539   N564    1.157   .     T
C539   C701    1.454   .     S
C540   C542    1.387   .     A
C540   H560    1.076   .     S
C541   H550    1.075   .     S
C541   C543    1.387   .     A
C542   H549    1.084   .     S
C543   H553    1.085   .     S
C543   C67     1.389   1_556 S
C544   C694    1.454   .     S
C544   C701    1.350   .     S
C545   C856    1.350   1_545 S
C545   C851    1.454   1_545 S
C546   O571    1.295   .     A
C546   O569    1.302   .     A
Cu547  O568    1.967   .     S
Cu547  O565    1.976   .     S
Cu547  O572    1.922   .     S
Cu547  N562    2.020   .     S
Cu547  Cu548   2.688   .     S
Cu547  O569    1.944   .     S
Cu548  O567    1.967   .     S
Cu548  O566    1.976   .     S
Cu548  O571    1.922   .     S
Cu548  N561    2.020   .     S
Cu548  O570    1.944   .     S
H551   N561    1.028   .     S
H552   N562    1.028   .     S
H558   C577    1.084   .     S
N561   N614    1.284   .     S
C573   O617    1.287   .     A
C573   C596    1.429   .     S
C573   O619    1.289   .     A
C574   O622    1.302   .     A
C574   C576    1.469   .     S
C574   O624    1.295   .     A
C575   C581    1.399   .     A
C575   C579    1.397   .     A
C575   C598    1.467   .     S
C576   C582    1.401   .     A
C576   C580    1.398   .     A
C577   C579    1.393   .     A
C577   C586    1.405   .     A
C578   C580    1.393   .     A
C578   C587    1.405   .     A
C578   H507    1.084   1_655 S
C579   H609    1.083   .     S
C580   H608    1.083   .     S
C581   C583    1.406   .     A
C581   H607    1.075   .     S
C582   H606    1.074   .     S
C582   C585    1.406   .     A
C583   C586    1.418   .     A
C583   C588    1.429   .     A
C584   C597    1.429   .     S
C584   O620    1.289   .     A
C584   O618    1.287   .     A
C585   C589    1.429   .     A
C585   C587    1.418   .     A
C586   C126    1.390   1_556 S
C588   C593    1.417   .     A
C588   C121    1.426   1_556 S
C589   C592    1.417   .     A
C590   N615    1.157   .     T
C590   C908    1.454   1_545 S
C591   N616    1.157   .     T
C591   C753    1.454   .     S
C592   C594    1.387   .     A
C592   H612    1.076   .     S
C593   H602    1.075   .     S
C593   C595    1.387   .     A
C594   H601    1.084   .     S
C595   H605    1.085   .     S
C595   C119    1.389   1_556 S
C596   C746    1.454   .     S
C596   C753    1.350   .     S
C597   C908    1.350   1_545 S
C597   C903    1.454   1_545 S
C598   O623    1.295   .     A
C598   O621    1.302   .     A
Cu599  O620    1.967   .     S
Cu599  O617    1.976   .     S
Cu599  O624    1.922   .     S
Cu599  N614    2.020   .     S
Cu599  Cu600   2.688   .     S
Cu599  O621    1.944   .     S
Cu600  O619    1.967   .     S
Cu600  O618    1.976   .     S
Cu600  O623    1.922   .     S
Cu600  N613    2.020   .     S
Cu600  O622    1.944   .     S
H603   N613    1.028   .     S
H604   N614    1.028   .     S
H610   C473    1.084   1_655 S
N613   N510    1.284   1_655 S
C625   O669    1.287   .     A
C625   C648    1.429   .     S
C625   O671    1.289   .     A
C626   O674    1.302   .     A
C626   C628    1.469   .     S
C626   O676    1.295   .     A
C627   C633    1.399   .     A
C627   C631    1.397   .     A
C627   C650    1.467   .     S
C628   C634    1.401   .     A
C628   C632    1.398   .     A
C629   C631    1.393   .     A
C629   C638    1.405   .     A
C629   H766    1.084   1_455 S
C630   C632    1.393   .     A
C630   C639    1.405   .     A
C630   H715    1.084   .     S
C631   H661    1.083   .     S
C632   H660    1.083   .     S
C633   C635    1.406   .     A
C633   H659    1.075   .     S
C634   H658    1.074   .     S
C634   C637    1.406   .     A
C635   C638    1.418   .     A
C635   C640    1.429   .     A
C636   C649    1.429   .     S
C636   O672    1.289   .     A
C636   O670    1.287   .     A
C637   C641    1.429   .     A
C637   C639    1.418   .     A
C638   C178    1.390   1_556 S
C640   C645    1.417   .     A
C640   C173    1.426   1_556 S
C641   C644    1.417   .     A
C642   N667    1.157   .     T
C643   N668    1.157   .     T
C643   C805    1.454   .     S
C644   C646    1.387   .     A
C644   H664    1.076   .     S
C645   H654    1.075   .     S
C645   C647    1.387   .     A
C646   H653    1.084   .     S
C647   H657    1.085   .     S
C647   C171    1.389   1_556 S
C648   C798    1.454   .     S
C648   C805    1.350   .     S
C650   O675    1.295   .     A
C650   O673    1.302   .     A
Cu651  O672    1.967   .     S
Cu651  O669    1.976   .     S
Cu651  O676    1.922   .     S
Cu651  N666    2.020   .     S
Cu651  Cu652   2.688   .     S
Cu651  O673    1.944   .     S
Cu652  O671    1.967   .     S
Cu652  O670    1.976   .     S
Cu652  O675    1.922   .     S
Cu652  N665    2.020   .     S
Cu652  O674    1.944   .     S
H655   N665    1.028   .     S
H656   N666    1.028   .     S
H662   C681    1.084   .     S
H663   C734    1.084   1_455 S
N665   N718    1.284   .     S
N666   N769    1.284   1_455 S
C677   O721    1.287   .     A
C677   C700    1.429   .     S
C677   O723    1.289   .     A
C678   O726    1.302   .     A
C678   C680    1.469   .     S
C678   O728    1.295   .     A
C679   C685    1.399   .     A
C679   C683    1.397   .     A
C679   C702    1.467   .     S
C680   C686    1.401   .     A
C680   C684    1.398   .     A
C681   C683    1.393   .     A
C681   C690    1.405   .     A
C682   C684    1.393   .     A
C682   C691    1.405   .     A
C682   H767    1.084   .     S
C683   H713    1.083   .     S
C684   H712    1.083   .     S
C685   C687    1.406   .     A
C685   H711    1.075   .     S
C686   H710    1.074   .     S
C686   C689    1.406   .     A
C687   C690    1.418   .     A
C687   C692    1.429   .     A
C688   C701    1.429   .     S
C688   O724    1.289   .     A
C688   O722    1.287   .     A
C689   C693    1.429   .     A
C689   C691    1.418   .     A
C690   C230    1.390   1_556 S
C692   C697    1.417   .     A
C692   C225    1.426   1_556 S
C693   C696    1.417   .     A
C694   N719    1.157   .     T
C695   N720    1.157   .     T
C695   C857    1.454   .     S
C696   C698    1.387   .     A
C696   H716    1.076   .     S
C697   H706    1.075   .     S
C697   C699    1.387   .     A
C698   H705    1.084   .     S
C699   H709    1.085   .     S
C699   C223    1.389   1_556 S
C700   C850    1.454   .     S
C700   C857    1.350   .     S
C702   O727    1.295   .     A
C702   O725    1.302   .     A
Cu703  O724    1.967   .     S
Cu703  O721    1.976   .     S
Cu703  O728    1.922   .     S
Cu703  N718    2.020   .     S
Cu703  Cu704   2.688   .     S
Cu703  O725    1.944   .     S
Cu704  O723    1.967   .     S
Cu704  O722    1.976   .     S
Cu704  O727    1.922   .     S
Cu704  N717    2.020   .     S
Cu704  O726    1.944   .     S
H707   N717    1.028   .     S
H708   N718    1.028   .     S
H714   C733    1.084   .     S
N717   N770    1.284   .     S
C729   O773    1.287   .     A
C729   C752    1.429   .     S
C729   O775    1.289   .     A
C730   O778    1.302   .     A
C730   C732    1.469   .     S
C730   O780    1.295   .     A
C731   C737    1.399   .     A
C731   C735    1.397   .     A
C731   C754    1.467   .     S
C732   C738    1.401   .     A
C732   C736    1.398   .     A
C733   C735    1.393   .     A
C733   C742    1.405   .     A
C734   C736    1.393   .     A
C734   C743    1.405   .     A
C734   H663    1.084   1_655 S
C735   H765    1.083   .     S
C736   H764    1.083   .     S
C737   C739    1.406   .     A
C737   H763    1.075   .     S
C738   H762    1.074   .     S
C738   C741    1.406   .     A
C739   C742    1.418   .     A
C739   C744    1.429   .     A
C740   C753    1.429   .     S
C740   O776    1.289   .     A
C740   O774    1.287   .     A
C741   C745    1.429   .     A
C741   C743    1.418   .     A
C742   C282    1.390   1_556 S
C744   C749    1.417   .     A
C744   C277    1.426   1_556 S
C745   C748    1.417   .     A
C746   N771    1.157   .     T
C747   N772    1.157   .     T
C747   C909    1.454   .     S
C748   C750    1.387   .     A
C748   H768    1.076   .     S
C749   H758    1.075   .     S
C749   C751    1.387   .     A
C750   H757    1.084   .     S
C751   H761    1.085   .     S
C751   C275    1.389   1_556 S
C752   C902    1.454   .     S
C752   C909    1.350   .     S
C754   O779    1.295   .     A
C754   O777    1.302   .     A
Cu755  O776    1.967   .     S
Cu755  O773    1.976   .     S
Cu755  O780    1.922   .     S
Cu755  N770    2.020   .     S
Cu755  Cu756   2.688   .     S
Cu755  O777    1.944   .     S
Cu756  O775    1.967   .     S
Cu756  O774    1.976   .     S
Cu756  O779    1.922   .     S
Cu756  N769    2.020   .     S
Cu756  O778    1.944   .     S
H759   N769    1.028   .     S
H760   N770    1.028   .     S
H766   C629    1.084   1_655 S
N769   N666    1.284   1_655 S
C781   O825    1.287   .     A
C781   C804    1.429   .     S
C781   O827    1.289   .     A
C782   O830    1.302   .     A
C782   C784    1.469   .     S
C782   O832    1.295   .     A
C783   C789    1.399   .     A
C783   C787    1.397   .     A
C783   C806    1.467   .     S
C784   C790    1.401   .     A
C784   C788    1.398   .     A
C785   C787    1.393   .     A
C785   C794    1.405   .     A
C785   H922    1.084   1_455 S
C786   C788    1.393   .     A
C786   C795    1.405   .     A
C786   H871    1.084   .     S
C787   H817    1.083   .     S
C788   H816    1.083   .     S
C789   C791    1.406   .     A
C789   H815    1.075   .     S
C790   H814    1.074   .     S
C790   C793    1.406   .     A
C791   C794    1.418   .     A
C791   C796    1.429   .     A
C792   C805    1.429   .     S
C792   O828    1.289   .     A
C792   O826    1.287   .     A
C793   C797    1.429   .     A
C793   C795    1.418   .     A
C794   C334    1.390   1_556 S
C796   C801    1.417   .     A
C796   C329    1.426   1_556 S
C797   C800    1.417   .     A
C798   N823    1.157   .     T
C799   N824    1.157   .     T
C799   C493    1.454   1_565 S
C800   C802    1.387   .     A
C800   H820    1.076   .     S
C801   H810    1.075   .     S
C801   C803    1.387   .     A
C802   H809    1.084   .     S
C803   H813    1.085   .     S
C803   C327    1.389   1_556 S
C804   C486    1.454   1_565 S
C804   C493    1.350   1_565 S
C806   O831    1.295   .     A
C806   O829    1.302   .     A
Cu807  O828    1.967   .     S
Cu807  O825    1.976   .     S
Cu807  O832    1.922   .     S
Cu807  N822    2.020   .     S
Cu807  Cu808   2.688   .     S
Cu807  O829    1.944   .     S
Cu808  O827    1.967   .     S
Cu808  O826    1.976   .     S
Cu808  O831    1.922   .     S
Cu808  N821    2.020   .     S
Cu808  O830    1.944   .     S
H811   N821    1.028   .     S
H812   N822    1.028   .     S
H818   C837    1.084   .     S
H819   C890    1.084   1_455 S
N821   N874    1.284   .     S
N822   N925    1.284   1_455 S
C833   O877    1.287   .     A
C833   C856    1.429   .     S
C833   O879    1.289   .     A
C834   O882    1.302   .     A
C834   C836    1.469   .     S
C834   O884    1.295   .     A
C835   C841    1.399   .     A
C835   C839    1.397   .     A
C835   C858    1.467   .     S
C836   C842    1.401   .     A
C836   C840    1.398   .     A
C837   C839    1.393   .     A
C837   C846    1.405   .     A
C838   C840    1.393   .     A
C838   C847    1.405   .     A
C838   H923    1.084   .     S
C839   H869    1.083   .     S
C840   H868    1.083   .     S
C841   C843    1.406   .     A
C841   H867    1.075   .     S
C842   H866    1.074   .     S
C842   C845    1.406   .     A
C843   C846    1.418   .     A
C843   C848    1.429   .     A
C844   C857    1.429   .     S
C844   O880    1.289   .     A
C844   O878    1.287   .     A
C845   C849    1.429   .     A
C845   C847    1.418   .     A
C846   C386    1.390   1_556 S
C848   C853    1.417   .     A
C848   C381    1.426   1_556 S
C849   C852    1.417   .     A
C850   N875    1.157   .     T
C851   N876    1.157   .     T
C851   C545    1.454   1_565 S
C852   C854    1.387   .     A
C852   H872    1.076   .     S
C853   H862    1.075   .     S
C853   C855    1.387   .     A
C854   H861    1.084   .     S
C855   H865    1.085   .     S
C855   C379    1.389   1_556 S
C856   C538    1.454   1_565 S
C856   C545    1.350   1_565 S
C858   O883    1.295   .     A
C858   O881    1.302   .     A
Cu859  O880    1.967   .     S
Cu859  O877    1.976   .     S
Cu859  O884    1.922   .     S
Cu859  N874    2.020   .     S
Cu859  Cu860   2.688   .     S
Cu859  O881    1.944   .     S
Cu860  O879    1.967   .     S
Cu860  O878    1.976   .     S
Cu860  O883    1.922   .     S
Cu860  N873    2.020   .     S
Cu860  O882    1.944   .     S
H863   N873    1.028   .     S
H864   N874    1.028   .     S
H870   C889    1.084   .     S
N873   N926    1.284   .     S
C885   O929    1.287   .     A
C885   C908    1.429   .     S
C885   O931    1.289   .     A
C886   O934    1.302   .     A
C886   C888    1.469   .     S
C886   O936    1.295   .     A
C887   C893    1.399   .     A
C887   C891    1.397   .     A
C887   C910    1.467   .     S
C888   C894    1.401   .     A
C888   C892    1.398   .     A
C889   C891    1.393   .     A
C889   C898    1.405   .     A
C890   C892    1.393   .     A
C890   C899    1.405   .     A
C890   H819    1.084   1_655 S
C891   H921    1.083   .     S
C892   H920    1.083   .     S
C893   C895    1.406   .     A
C893   H919    1.075   .     S
C894   H918    1.074   .     S
C894   C897    1.406   .     A
C895   C898    1.418   .     A
C895   C900    1.429   .     A
C896   C909    1.429   .     S
C896   O932    1.289   .     A
C896   O930    1.287   .     A
C897   C901    1.429   .     A
C897   C899    1.418   .     A
C898   C438    1.390   1_556 S
C900   C905    1.417   .     A
C900   C433    1.426   1_556 S
C901   C904    1.417   .     A
C902   N927    1.157   .     T
C903   N928    1.157   .     T
C903   C597    1.454   1_565 S
C904   C906    1.387   .     A
C904   H924    1.076   .     S
C905   H914    1.075   .     S
C905   C907    1.387   .     A
C906   H913    1.084   .     S
C907   H917    1.085   .     S
C907   C431    1.389   1_556 S
C908   C590    1.454   1_565 S
C908   C597    1.350   1_565 S
C910   O935    1.295   .     A
C910   O933    1.302   .     A
Cu911  O932    1.967   .     S
Cu911  O929    1.976   .     S
Cu911  O936    1.922   .     S
Cu911  N926    2.020   .     S
Cu911  Cu912   2.688   .     S
Cu911  O933    1.944   .     S
Cu912  O931    1.967   .     S
Cu912  O930    1.976   .     S
Cu912  O935    1.922   .     S
Cu912  N925    2.020   .     S
Cu912  O934    1.944   .     S
H915   N925    1.028   .     S
H916   N926    1.028   .     S
H922   C785    1.084   1_655 S
N925   N822    1.284   1_655 S
