data_str_m2_o2_o10_pcu_sym.139
_audit_creation_date              2020-01-03
_audit_creation_method            'Materials Studio'
_symmetry_space_group_name_H-M    'P1'
_symmetry_Int_Tables_number       1
_symmetry_cell_setting            triclinic
loop_
_symmetry_equiv_pos_as_xyz
  x,y,z
_cell_length_a                    26.1921
_cell_length_b                    30.2832
_cell_length_c                    27.8460
_cell_angle_alpha                 89.4713
_cell_angle_beta                  97.5282
_cell_angle_gamma                 90.7761
loop_
_atom_site_label
_atom_site_type_symbol
_atom_site_fract_x
_atom_site_fract_y
_atom_site_fract_z
_atom_site_U_iso_or_equiv
_atom_site_adp_type
_atom_site_occupancy
C1     C     0.16687   0.16497   0.25016   0.00000  Uiso   1.00
C2     C     0.16694   0.33501   0.24986   0.00000  Uiso   1.00
C3     C     0.20515   0.27080   0.05805   0.00000  Uiso   1.00
C4     C     0.14629   0.21586   0.44478   0.00000  Uiso   1.00
C5     C     0.20484   0.27131   0.10859   0.00000  Uiso   1.00
C6     C     0.14481   0.21588   0.39394   0.00000  Uiso   1.00
C7     C     0.12633   0.23120   0.10037   0.00000  Uiso   1.00
C8     C     0.18637   0.28570   0.39672   0.00000  Uiso   1.00
C9     C     0.12306   0.23311   0.04925   0.00000  Uiso   1.00
C10    C     0.18429   0.28863   0.44713   0.00000  Uiso   1.00
C11    C     0.16395   0.25228   0.02702   0.00000  Uiso   1.00
C12    C     0.16479   0.25261   0.47247   0.00000  Uiso   1.00
C13    C     0.06800   0.24957   0.23770   0.00000  Uiso   1.00
C14    C     0.26536   0.24995   0.26235   0.00000  Uiso   1.00
C15    C     0.01283   0.24851   0.23098   0.00000  Uiso   1.00
C16    C     0.32058   0.25019   0.26923   0.00000  Uiso   1.00
C17    C     0.15251   0.04677   0.28902   0.00000  Uiso   1.00
C18    C     0.15313   0.45262   0.20660   0.00000  Uiso   1.00
C19    C     0.15245   0.09265   0.28937   0.00000  Uiso   1.00
C20    C     0.15299   0.40670   0.20653   0.00000  Uiso   1.00
C21    C     0.16764   0.11669   0.25030   0.00000  Uiso   1.00
C22    C     0.16770   0.38325   0.24964   0.00000  Uiso   1.00
C23    C     0.18347   0.09424   0.21107   0.00000  Uiso   1.00
C24    C     0.18321   0.40621   0.29269   0.00000  Uiso   1.00
C25    C     0.18425   0.04835   0.21102   0.00000  Uiso   1.00
C26    C     0.18406   0.45209   0.29263   0.00000  Uiso   1.00
C27    C     0.16855   0.02423   0.24990   0.00000  Uiso   1.00
C28    C     0.16870   0.47568   0.24967   0.00000  Uiso   1.00
Cu29   Cu    0.16667   0.24999   0.29821   0.00000  Uiso   1.00
Cu30   Cu    0.16667   0.25000   0.20178   0.00000  Uiso   1.00
H31    H     0.32654   0.24612   0.19428   0.00000  Uiso   1.00
H32    H     0.00695   0.25207   0.30605   0.00000  Uiso   1.00
H33    H     0.13933   0.02895   0.31906   0.00000  Uiso   1.00
H34    H     0.14031   0.47004   0.17315   0.00000  Uiso   1.00
H35    H     0.13974   0.10918   0.31982   0.00000  Uiso   1.00
H36    H     0.14059   0.38957   0.17295   0.00000  Uiso   1.00
H37    H     0.19585   0.11214   0.18068   0.00000  Uiso   1.00
H38    H     0.19527   0.38874   0.32630   0.00000  Uiso   1.00
H39    H     0.19765   0.03177   0.18081   0.00000  Uiso   1.00
H40    H     0.19718   0.46908   0.32612   0.00000  Uiso   1.00
H41    H     0.23793   0.28523   0.04349   0.00000  Uiso   1.00
H42    H     0.13219   0.18705   0.46240   0.00000  Uiso   1.00
H43    H     0.09539   0.21566   0.11678   0.00000  Uiso   1.00
H44    H     0.20264   0.31300   0.37831   0.00000  Uiso   1.00
N45    N     0.16667   0.25001   0.12934   0.00000  Uiso   1.00
N46    N     0.16667   0.24999   0.37065   0.00000  Uiso   1.00
O47    O     0.16667   0.18573   0.29071   0.00000  Uiso   1.00
O48    O     0.16666   0.31427   0.20928   0.00000  Uiso   1.00
O49    O     0.16667   0.18573   0.20928   0.00000  Uiso   1.00
O50    O     0.16666   0.31427   0.29072   0.00000  Uiso   1.00
O51    O     0.09161   0.24999   0.28132   0.00000  Uiso   1.00
O52    O     0.24172   0.25001   0.21868   0.00000  Uiso   1.00
O53    O     0.09161   0.25000   0.19988   0.00000  Uiso   1.00
O54    O     0.24172   0.25000   0.30011   0.00000  Uiso   1.00
N55    N     0.24393   0.29583   0.13797   0.00000  Uiso   1.00
H56    H     0.27972   0.28503   0.13033   0.00000  Uiso   1.00
H57    H     0.24067   0.32899   0.12740   0.00000  Uiso   1.00
N58    N     0.11833   0.18082   0.36649   0.00000  Uiso   1.00
H59    H     0.08298   0.19313   0.35060   0.00000  Uiso   1.00
H60    H     0.10995   0.15476   0.38920   0.00000  Uiso   1.00
N61    N     0.07721   0.21729   0.02057   0.00000  Uiso   1.00
H62    H     0.04608   0.23495   0.03013   0.00000  Uiso   1.00
H63    H     0.07177   0.18412   0.02964   0.00000  Uiso   1.00
N64    N     0.20008   0.32892   0.47155   0.00000  Uiso   1.00
H65    H     0.17755   0.35440   0.45487   0.00000  Uiso   1.00
H66    H     0.23834   0.33551   0.46658   0.00000  Uiso   1.00
C67    C     0.50021   0.16497   0.25016   0.00000  Uiso   1.00
C68    C     0.50027   0.33501   0.24986   0.00000  Uiso   1.00
C69    C     0.53849   0.27080   0.05805   0.00000  Uiso   1.00
C70    C     0.47962   0.21586   0.44478   0.00000  Uiso   1.00
C71    C     0.53817   0.27131   0.10859   0.00000  Uiso   1.00
C72    C     0.47814   0.21588   0.39394   0.00000  Uiso   1.00
C73    C     0.45966   0.23120   0.10037   0.00000  Uiso   1.00
C74    C     0.51971   0.28570   0.39672   0.00000  Uiso   1.00
C75    C     0.45639   0.23311   0.04925   0.00000  Uiso   1.00
C76    C     0.51762   0.28863   0.44713   0.00000  Uiso   1.00
C77    C     0.49729   0.25228   0.02702   0.00000  Uiso   1.00
C78    C     0.49812   0.25261   0.47247   0.00000  Uiso   1.00
C79    C     0.40134   0.24957   0.23770   0.00000  Uiso   1.00
C80    C     0.59869   0.24995   0.26235   0.00000  Uiso   1.00
C81    C     0.34616   0.24851   0.23098   0.00000  Uiso   1.00
C82    C     0.65392   0.25019   0.26923   0.00000  Uiso   1.00
C83    C     0.48584   0.04677   0.28902   0.00000  Uiso   1.00
C84    C     0.48646   0.45262   0.20660   0.00000  Uiso   1.00
C85    C     0.48579   0.09265   0.28937   0.00000  Uiso   1.00
C86    C     0.48632   0.40670   0.20653   0.00000  Uiso   1.00
C87    C     0.50098   0.11669   0.25030   0.00000  Uiso   1.00
C88    C     0.50104   0.38325   0.24964   0.00000  Uiso   1.00
C89    C     0.51681   0.09424   0.21107   0.00000  Uiso   1.00
C90    C     0.51655   0.40621   0.29269   0.00000  Uiso   1.00
C91    C     0.51759   0.04835   0.21102   0.00000  Uiso   1.00
C92    C     0.51740   0.45209   0.29263   0.00000  Uiso   1.00
C93    C     0.50188   0.02423   0.24990   0.00000  Uiso   1.00
C94    C     0.50203   0.47568   0.24967   0.00000  Uiso   1.00
Cu95   Cu    0.50000   0.24999   0.29821   0.00000  Uiso   1.00
Cu96   Cu    0.50000   0.25000   0.20178   0.00000  Uiso   1.00
H97    H     0.65987   0.24612   0.19428   0.00000  Uiso   1.00
H98    H     0.34029   0.25207   0.30605   0.00000  Uiso   1.00
H99    H     0.47266   0.02895   0.31906   0.00000  Uiso   1.00
H100   H     0.47365   0.47004   0.17315   0.00000  Uiso   1.00
H101   H     0.47307   0.10918   0.31982   0.00000  Uiso   1.00
H102   H     0.47392   0.38957   0.17295   0.00000  Uiso   1.00
H103   H     0.52918   0.11214   0.18068   0.00000  Uiso   1.00
H104   H     0.52861   0.38874   0.32630   0.00000  Uiso   1.00
H105   H     0.53099   0.03177   0.18081   0.00000  Uiso   1.00
H106   H     0.53051   0.46908   0.32612   0.00000  Uiso   1.00
H107   H     0.57126   0.28523   0.04349   0.00000  Uiso   1.00
H108   H     0.46552   0.18705   0.46240   0.00000  Uiso   1.00
H109   H     0.42872   0.21566   0.11678   0.00000  Uiso   1.00
H110   H     0.53597   0.31300   0.37831   0.00000  Uiso   1.00
N111   N     0.50000   0.25001   0.12934   0.00000  Uiso   1.00
N112   N     0.50000   0.24999   0.37065   0.00000  Uiso   1.00
O113   O     0.50000   0.18573   0.29071   0.00000  Uiso   1.00
O114   O     0.50000   0.31427   0.20928   0.00000  Uiso   1.00
O115   O     0.50000   0.18573   0.20928   0.00000  Uiso   1.00
O116   O     0.50000   0.31427   0.29072   0.00000  Uiso   1.00
O117   O     0.42495   0.24999   0.28132   0.00000  Uiso   1.00
O118   O     0.57505   0.25001   0.21868   0.00000  Uiso   1.00
O119   O     0.42495   0.25000   0.19988   0.00000  Uiso   1.00
O120   O     0.57505   0.25000   0.30011   0.00000  Uiso   1.00
N121   N     0.57727   0.29583   0.13797   0.00000  Uiso   1.00
H122   H     0.61305   0.28503   0.13033   0.00000  Uiso   1.00
H123   H     0.57400   0.32899   0.12740   0.00000  Uiso   1.00
N124   N     0.45167   0.18082   0.36649   0.00000  Uiso   1.00
H125   H     0.41631   0.19313   0.35060   0.00000  Uiso   1.00
H126   H     0.44328   0.15476   0.38920   0.00000  Uiso   1.00
N127   N     0.41054   0.21729   0.02057   0.00000  Uiso   1.00
H128   H     0.37941   0.23495   0.03013   0.00000  Uiso   1.00
H129   H     0.40511   0.18412   0.02964   0.00000  Uiso   1.00
N130   N     0.53341   0.32892   0.47155   0.00000  Uiso   1.00
H131   H     0.51088   0.35440   0.45487   0.00000  Uiso   1.00
H132   H     0.57167   0.33551   0.46658   0.00000  Uiso   1.00
C133   C     0.83354   0.16497   0.25016   0.00000  Uiso   1.00
C134   C     0.83360   0.33501   0.24986   0.00000  Uiso   1.00
C135   C     0.87182   0.27080   0.05805   0.00000  Uiso   1.00
C136   C     0.81296   0.21586   0.44478   0.00000  Uiso   1.00
C137   C     0.87151   0.27131   0.10859   0.00000  Uiso   1.00
C138   C     0.81148   0.21588   0.39394   0.00000  Uiso   1.00
C139   C     0.79299   0.23120   0.10037   0.00000  Uiso   1.00
C140   C     0.85304   0.28570   0.39672   0.00000  Uiso   1.00
C141   C     0.78973   0.23311   0.04925   0.00000  Uiso   1.00
C142   C     0.85096   0.28863   0.44713   0.00000  Uiso   1.00
C143   C     0.83062   0.25228   0.02702   0.00000  Uiso   1.00
C144   C     0.83146   0.25261   0.47247   0.00000  Uiso   1.00
C145   C     0.73467   0.24957   0.23770   0.00000  Uiso   1.00
C146   C     0.93202   0.24995   0.26235   0.00000  Uiso   1.00
C147   C     0.67950   0.24851   0.23098   0.00000  Uiso   1.00
C148   C     0.98725   0.25019   0.26923   0.00000  Uiso   1.00
C149   C     0.81918   0.04677   0.28902   0.00000  Uiso   1.00
C150   C     0.81980   0.45262   0.20660   0.00000  Uiso   1.00
C151   C     0.81912   0.09265   0.28937   0.00000  Uiso   1.00
C152   C     0.81966   0.40670   0.20653   0.00000  Uiso   1.00
C153   C     0.83431   0.11669   0.25030   0.00000  Uiso   1.00
C154   C     0.83437   0.38325   0.24964   0.00000  Uiso   1.00
C155   C     0.85014   0.09424   0.21107   0.00000  Uiso   1.00
C156   C     0.84988   0.40621   0.29269   0.00000  Uiso   1.00
C157   C     0.85092   0.04835   0.21102   0.00000  Uiso   1.00
C158   C     0.85073   0.45209   0.29263   0.00000  Uiso   1.00
C159   C     0.83521   0.02423   0.24990   0.00000  Uiso   1.00
C160   C     0.83537   0.47568   0.24967   0.00000  Uiso   1.00
Cu161  Cu    0.83333   0.24999   0.29821   0.00000  Uiso   1.00
Cu162  Cu    0.83333   0.25000   0.20178   0.00000  Uiso   1.00
H163   H     0.99320   0.24612   0.19428   0.00000  Uiso   1.00
H164   H     0.67362   0.25207   0.30605   0.00000  Uiso   1.00
H165   H     0.80600   0.02895   0.31906   0.00000  Uiso   1.00
H166   H     0.80698   0.47004   0.17315   0.00000  Uiso   1.00
H167   H     0.80640   0.10918   0.31982   0.00000  Uiso   1.00
H168   H     0.80726   0.38957   0.17295   0.00000  Uiso   1.00
H169   H     0.86251   0.11214   0.18068   0.00000  Uiso   1.00
H170   H     0.86194   0.38874   0.32630   0.00000  Uiso   1.00
H171   H     0.86432   0.03177   0.18081   0.00000  Uiso   1.00
H172   H     0.86385   0.46908   0.32612   0.00000  Uiso   1.00
H173   H     0.90459   0.28523   0.04349   0.00000  Uiso   1.00
H174   H     0.79885   0.18705   0.46240   0.00000  Uiso   1.00
H175   H     0.76206   0.21566   0.11678   0.00000  Uiso   1.00
H176   H     0.86930   0.31300   0.37831   0.00000  Uiso   1.00
N177   N     0.83333   0.25001   0.12934   0.00000  Uiso   1.00
N178   N     0.83333   0.24999   0.37065   0.00000  Uiso   1.00
O179   O     0.83334   0.18573   0.29071   0.00000  Uiso   1.00
O180   O     0.83333   0.31427   0.20928   0.00000  Uiso   1.00
O181   O     0.83334   0.18573   0.20928   0.00000  Uiso   1.00
O182   O     0.83333   0.31427   0.29072   0.00000  Uiso   1.00
O183   O     0.75828   0.24999   0.28132   0.00000  Uiso   1.00
O184   O     0.90839   0.25001   0.21868   0.00000  Uiso   1.00
O185   O     0.75828   0.25000   0.19988   0.00000  Uiso   1.00
O186   O     0.90839   0.25000   0.30011   0.00000  Uiso   1.00
N187   N     0.91060   0.29583   0.13797   0.00000  Uiso   1.00
H188   H     0.94638   0.28503   0.13033   0.00000  Uiso   1.00
H189   H     0.90734   0.32899   0.12740   0.00000  Uiso   1.00
N190   N     0.78500   0.18082   0.36649   0.00000  Uiso   1.00
H191   H     0.74965   0.19313   0.35060   0.00000  Uiso   1.00
H192   H     0.77661   0.15476   0.38920   0.00000  Uiso   1.00
N193   N     0.74387   0.21729   0.02057   0.00000  Uiso   1.00
H194   H     0.71275   0.23495   0.03013   0.00000  Uiso   1.00
H195   H     0.73844   0.18412   0.02964   0.00000  Uiso   1.00
N196   N     0.86675   0.32892   0.47155   0.00000  Uiso   1.00
H197   H     0.84422   0.35440   0.45487   0.00000  Uiso   1.00
H198   H     0.90500   0.33551   0.46658   0.00000  Uiso   1.00
C199   C     0.16687   0.66497   0.25016   0.00000  Uiso   1.00
C200   C     0.16694   0.83501   0.24986   0.00000  Uiso   1.00
C201   C     0.20515   0.77080   0.05805   0.00000  Uiso   1.00
C202   C     0.14629   0.71586   0.44478   0.00000  Uiso   1.00
C203   C     0.20484   0.77131   0.10859   0.00000  Uiso   1.00
C204   C     0.14481   0.71588   0.39394   0.00000  Uiso   1.00
C205   C     0.12633   0.73120   0.10037   0.00000  Uiso   1.00
C206   C     0.18637   0.78570   0.39672   0.00000  Uiso   1.00
C207   C     0.12306   0.73311   0.04925   0.00000  Uiso   1.00
C208   C     0.18429   0.78863   0.44713   0.00000  Uiso   1.00
C209   C     0.16395   0.75228   0.02702   0.00000  Uiso   1.00
C210   C     0.16479   0.75261   0.47247   0.00000  Uiso   1.00
C211   C     0.06800   0.74957   0.23770   0.00000  Uiso   1.00
C212   C     0.26536   0.74995   0.26235   0.00000  Uiso   1.00
C213   C     0.01283   0.74851   0.23098   0.00000  Uiso   1.00
C214   C     0.32058   0.75019   0.26923   0.00000  Uiso   1.00
C215   C     0.15251   0.54677   0.28902   0.00000  Uiso   1.00
C216   C     0.15313   0.95262   0.20660   0.00000  Uiso   1.00
C217   C     0.15245   0.59265   0.28937   0.00000  Uiso   1.00
C218   C     0.15299   0.90670   0.20653   0.00000  Uiso   1.00
C219   C     0.16764   0.61669   0.25030   0.00000  Uiso   1.00
C220   C     0.16770   0.88325   0.24964   0.00000  Uiso   1.00
C221   C     0.18347   0.59424   0.21107   0.00000  Uiso   1.00
C222   C     0.18321   0.90621   0.29269   0.00000  Uiso   1.00
C223   C     0.18425   0.54835   0.21102   0.00000  Uiso   1.00
C224   C     0.18406   0.95209   0.29263   0.00000  Uiso   1.00
C225   C     0.16855   0.52423   0.24990   0.00000  Uiso   1.00
C226   C     0.16870   0.97568   0.24967   0.00000  Uiso   1.00
Cu227  Cu    0.16667   0.74999   0.29821   0.00000  Uiso   1.00
Cu228  Cu    0.16667   0.75000   0.20178   0.00000  Uiso   1.00
H229   H     0.32654   0.74612   0.19428   0.00000  Uiso   1.00
H230   H     0.00695   0.75207   0.30605   0.00000  Uiso   1.00
H231   H     0.13933   0.52895   0.31906   0.00000  Uiso   1.00
H232   H     0.14031   0.97004   0.17315   0.00000  Uiso   1.00
H233   H     0.13974   0.60918   0.31982   0.00000  Uiso   1.00
H234   H     0.14059   0.88957   0.17295   0.00000  Uiso   1.00
H235   H     0.19585   0.61214   0.18068   0.00000  Uiso   1.00
H236   H     0.19527   0.88874   0.32630   0.00000  Uiso   1.00
H237   H     0.19765   0.53177   0.18081   0.00000  Uiso   1.00
H238   H     0.19718   0.96908   0.32612   0.00000  Uiso   1.00
H239   H     0.23793   0.78523   0.04349   0.00000  Uiso   1.00
H240   H     0.13219   0.68705   0.46240   0.00000  Uiso   1.00
H241   H     0.09539   0.71566   0.11678   0.00000  Uiso   1.00
H242   H     0.20264   0.81300   0.37831   0.00000  Uiso   1.00
N243   N     0.16667   0.75001   0.12934   0.00000  Uiso   1.00
N244   N     0.16667   0.74999   0.37065   0.00000  Uiso   1.00
O245   O     0.16667   0.68573   0.29071   0.00000  Uiso   1.00
O246   O     0.16666   0.81427   0.20928   0.00000  Uiso   1.00
O247   O     0.16667   0.68573   0.20928   0.00000  Uiso   1.00
O248   O     0.16666   0.81427   0.29072   0.00000  Uiso   1.00
O249   O     0.09161   0.74999   0.28132   0.00000  Uiso   1.00
O250   O     0.24172   0.75001   0.21868   0.00000  Uiso   1.00
O251   O     0.09161   0.75000   0.19988   0.00000  Uiso   1.00
O252   O     0.24172   0.75000   0.30011   0.00000  Uiso   1.00
N253   N     0.24393   0.79583   0.13797   0.00000  Uiso   1.00
H254   H     0.27972   0.78503   0.13033   0.00000  Uiso   1.00
H255   H     0.24067   0.82899   0.12740   0.00000  Uiso   1.00
N256   N     0.11833   0.68082   0.36649   0.00000  Uiso   1.00
H257   H     0.08298   0.69313   0.35060   0.00000  Uiso   1.00
H258   H     0.10995   0.65476   0.38920   0.00000  Uiso   1.00
N259   N     0.07721   0.71729   0.02057   0.00000  Uiso   1.00
H260   H     0.04608   0.73495   0.03013   0.00000  Uiso   1.00
H261   H     0.07177   0.68412   0.02964   0.00000  Uiso   1.00
N262   N     0.20008   0.82892   0.47155   0.00000  Uiso   1.00
H263   H     0.17755   0.85440   0.45487   0.00000  Uiso   1.00
H264   H     0.23834   0.83551   0.46658   0.00000  Uiso   1.00
C265   C     0.50021   0.66497   0.25016   0.00000  Uiso   1.00
C266   C     0.50027   0.83501   0.24986   0.00000  Uiso   1.00
C267   C     0.53849   0.77080   0.05805   0.00000  Uiso   1.00
C268   C     0.47962   0.71586   0.44478   0.00000  Uiso   1.00
C269   C     0.53817   0.77131   0.10859   0.00000  Uiso   1.00
C270   C     0.47814   0.71588   0.39394   0.00000  Uiso   1.00
C271   C     0.45966   0.73120   0.10037   0.00000  Uiso   1.00
C272   C     0.51971   0.78570   0.39672   0.00000  Uiso   1.00
C273   C     0.45639   0.73311   0.04925   0.00000  Uiso   1.00
C274   C     0.51762   0.78863   0.44713   0.00000  Uiso   1.00
C275   C     0.49729   0.75228   0.02702   0.00000  Uiso   1.00
C276   C     0.49812   0.75261   0.47247   0.00000  Uiso   1.00
C277   C     0.40134   0.74957   0.23770   0.00000  Uiso   1.00
C278   C     0.59869   0.74995   0.26235   0.00000  Uiso   1.00
C279   C     0.34616   0.74851   0.23098   0.00000  Uiso   1.00
C280   C     0.65392   0.75019   0.26923   0.00000  Uiso   1.00
C281   C     0.48584   0.54677   0.28902   0.00000  Uiso   1.00
C282   C     0.48646   0.95262   0.20660   0.00000  Uiso   1.00
C283   C     0.48579   0.59265   0.28937   0.00000  Uiso   1.00
C284   C     0.48632   0.90670   0.20653   0.00000  Uiso   1.00
C285   C     0.50098   0.61669   0.25030   0.00000  Uiso   1.00
C286   C     0.50104   0.88325   0.24964   0.00000  Uiso   1.00
C287   C     0.51681   0.59424   0.21107   0.00000  Uiso   1.00
C288   C     0.51655   0.90621   0.29269   0.00000  Uiso   1.00
C289   C     0.51759   0.54835   0.21102   0.00000  Uiso   1.00
C290   C     0.51740   0.95209   0.29263   0.00000  Uiso   1.00
C291   C     0.50188   0.52423   0.24990   0.00000  Uiso   1.00
C292   C     0.50203   0.97568   0.24967   0.00000  Uiso   1.00
Cu293  Cu    0.50000   0.74999   0.29821   0.00000  Uiso   1.00
Cu294  Cu    0.50000   0.75000   0.20178   0.00000  Uiso   1.00
H295   H     0.65987   0.74612   0.19428   0.00000  Uiso   1.00
H296   H     0.34029   0.75207   0.30605   0.00000  Uiso   1.00
H297   H     0.47266   0.52895   0.31906   0.00000  Uiso   1.00
H298   H     0.47365   0.97004   0.17315   0.00000  Uiso   1.00
H299   H     0.47307   0.60918   0.31982   0.00000  Uiso   1.00
H300   H     0.47392   0.88957   0.17295   0.00000  Uiso   1.00
H301   H     0.52918   0.61214   0.18068   0.00000  Uiso   1.00
H302   H     0.52861   0.88874   0.32630   0.00000  Uiso   1.00
H303   H     0.53099   0.53177   0.18081   0.00000  Uiso   1.00
H304   H     0.53051   0.96908   0.32612   0.00000  Uiso   1.00
H305   H     0.57126   0.78523   0.04349   0.00000  Uiso   1.00
H306   H     0.46552   0.68705   0.46240   0.00000  Uiso   1.00
H307   H     0.42872   0.71566   0.11678   0.00000  Uiso   1.00
H308   H     0.53597   0.81300   0.37831   0.00000  Uiso   1.00
N309   N     0.50000   0.75001   0.12934   0.00000  Uiso   1.00
N310   N     0.50000   0.74999   0.37065   0.00000  Uiso   1.00
O311   O     0.50000   0.68573   0.29071   0.00000  Uiso   1.00
O312   O     0.50000   0.81427   0.20928   0.00000  Uiso   1.00
O313   O     0.50000   0.68573   0.20928   0.00000  Uiso   1.00
O314   O     0.50000   0.81427   0.29072   0.00000  Uiso   1.00
O315   O     0.42495   0.74999   0.28132   0.00000  Uiso   1.00
O316   O     0.57505   0.75001   0.21868   0.00000  Uiso   1.00
O317   O     0.42495   0.75000   0.19988   0.00000  Uiso   1.00
O318   O     0.57505   0.75000   0.30011   0.00000  Uiso   1.00
N319   N     0.57727   0.79583   0.13797   0.00000  Uiso   1.00
H320   H     0.61305   0.78503   0.13033   0.00000  Uiso   1.00
H321   H     0.57400   0.82899   0.12740   0.00000  Uiso   1.00
N322   N     0.45167   0.68082   0.36649   0.00000  Uiso   1.00
H323   H     0.41631   0.69313   0.35060   0.00000  Uiso   1.00
H324   H     0.44328   0.65476   0.38920   0.00000  Uiso   1.00
N325   N     0.41054   0.71729   0.02057   0.00000  Uiso   1.00
H326   H     0.37941   0.73495   0.03013   0.00000  Uiso   1.00
H327   H     0.40511   0.68412   0.02964   0.00000  Uiso   1.00
N328   N     0.53341   0.82892   0.47155   0.00000  Uiso   1.00
H329   H     0.51088   0.85440   0.45487   0.00000  Uiso   1.00
H330   H     0.57167   0.83551   0.46658   0.00000  Uiso   1.00
C331   C     0.83354   0.66497   0.25016   0.00000  Uiso   1.00
C332   C     0.83360   0.83501   0.24986   0.00000  Uiso   1.00
C333   C     0.87182   0.77080   0.05805   0.00000  Uiso   1.00
C334   C     0.81296   0.71586   0.44478   0.00000  Uiso   1.00
C335   C     0.87151   0.77131   0.10859   0.00000  Uiso   1.00
C336   C     0.81148   0.71588   0.39394   0.00000  Uiso   1.00
C337   C     0.79299   0.73120   0.10037   0.00000  Uiso   1.00
C338   C     0.85304   0.78570   0.39672   0.00000  Uiso   1.00
C339   C     0.78973   0.73311   0.04925   0.00000  Uiso   1.00
C340   C     0.85096   0.78863   0.44713   0.00000  Uiso   1.00
C341   C     0.83062   0.75228   0.02702   0.00000  Uiso   1.00
C342   C     0.83146   0.75261   0.47247   0.00000  Uiso   1.00
C343   C     0.73467   0.74957   0.23770   0.00000  Uiso   1.00
C344   C     0.93202   0.74995   0.26235   0.00000  Uiso   1.00
C345   C     0.67950   0.74851   0.23098   0.00000  Uiso   1.00
C346   C     0.98725   0.75019   0.26923   0.00000  Uiso   1.00
C347   C     0.81918   0.54677   0.28902   0.00000  Uiso   1.00
C348   C     0.81980   0.95262   0.20660   0.00000  Uiso   1.00
C349   C     0.81912   0.59265   0.28937   0.00000  Uiso   1.00
C350   C     0.81966   0.90670   0.20653   0.00000  Uiso   1.00
C351   C     0.83431   0.61669   0.25030   0.00000  Uiso   1.00
C352   C     0.83437   0.88325   0.24964   0.00000  Uiso   1.00
C353   C     0.85014   0.59424   0.21107   0.00000  Uiso   1.00
C354   C     0.84988   0.90621   0.29269   0.00000  Uiso   1.00
C355   C     0.85092   0.54835   0.21102   0.00000  Uiso   1.00
C356   C     0.85073   0.95209   0.29263   0.00000  Uiso   1.00
C357   C     0.83521   0.52423   0.24990   0.00000  Uiso   1.00
C358   C     0.83537   0.97568   0.24967   0.00000  Uiso   1.00
Cu359  Cu    0.83333   0.74999   0.29821   0.00000  Uiso   1.00
Cu360  Cu    0.83333   0.75000   0.20178   0.00000  Uiso   1.00
H361   H     0.99320   0.74612   0.19428   0.00000  Uiso   1.00
H362   H     0.67362   0.75207   0.30605   0.00000  Uiso   1.00
H363   H     0.80600   0.52895   0.31906   0.00000  Uiso   1.00
H364   H     0.80698   0.97004   0.17315   0.00000  Uiso   1.00
H365   H     0.80640   0.60918   0.31982   0.00000  Uiso   1.00
H366   H     0.80726   0.88957   0.17295   0.00000  Uiso   1.00
H367   H     0.86251   0.61214   0.18068   0.00000  Uiso   1.00
H368   H     0.86194   0.88874   0.32630   0.00000  Uiso   1.00
H369   H     0.86432   0.53177   0.18081   0.00000  Uiso   1.00
H370   H     0.86385   0.96908   0.32612   0.00000  Uiso   1.00
H371   H     0.90459   0.78523   0.04349   0.00000  Uiso   1.00
H372   H     0.79885   0.68705   0.46240   0.00000  Uiso   1.00
H373   H     0.76206   0.71566   0.11678   0.00000  Uiso   1.00
H374   H     0.86930   0.81300   0.37831   0.00000  Uiso   1.00
N375   N     0.83333   0.75001   0.12934   0.00000  Uiso   1.00
N376   N     0.83333   0.74999   0.37065   0.00000  Uiso   1.00
O377   O     0.83334   0.68573   0.29071   0.00000  Uiso   1.00
O378   O     0.83333   0.81427   0.20928   0.00000  Uiso   1.00
O379   O     0.83334   0.68573   0.20928   0.00000  Uiso   1.00
O380   O     0.83333   0.81427   0.29072   0.00000  Uiso   1.00
O381   O     0.75828   0.74999   0.28132   0.00000  Uiso   1.00
O382   O     0.90839   0.75001   0.21868   0.00000  Uiso   1.00
O383   O     0.75828   0.75000   0.19988   0.00000  Uiso   1.00
O384   O     0.90839   0.75000   0.30011   0.00000  Uiso   1.00
N385   N     0.91060   0.79583   0.13797   0.00000  Uiso   1.00
H386   H     0.94638   0.78503   0.13033   0.00000  Uiso   1.00
H387   H     0.90734   0.82899   0.12740   0.00000  Uiso   1.00
N388   N     0.78500   0.68082   0.36649   0.00000  Uiso   1.00
H389   H     0.74965   0.69313   0.35060   0.00000  Uiso   1.00
H390   H     0.77661   0.65476   0.38920   0.00000  Uiso   1.00
N391   N     0.74387   0.71729   0.02057   0.00000  Uiso   1.00
H392   H     0.71275   0.73495   0.03013   0.00000  Uiso   1.00
H393   H     0.73844   0.68412   0.02964   0.00000  Uiso   1.00
N394   N     0.86675   0.82892   0.47155   0.00000  Uiso   1.00
H395   H     0.84422   0.85440   0.45487   0.00000  Uiso   1.00
H396   H     0.90500   0.83551   0.46658   0.00000  Uiso   1.00
C397   C     0.16687   0.16497   0.75016   0.00000  Uiso   1.00
C398   C     0.16694   0.33501   0.74986   0.00000  Uiso   1.00
C399   C     0.20515   0.27080   0.55805   0.00000  Uiso   1.00
C400   C     0.14629   0.21586   0.94478   0.00000  Uiso   1.00
C401   C     0.20484   0.27131   0.60859   0.00000  Uiso   1.00
C402   C     0.14481   0.21588   0.89394   0.00000  Uiso   1.00
C403   C     0.12633   0.23120   0.60037   0.00000  Uiso   1.00
C404   C     0.18637   0.28570   0.89672   0.00000  Uiso   1.00
C405   C     0.12306   0.23311   0.54925   0.00000  Uiso   1.00
C406   C     0.18429   0.28863   0.94713   0.00000  Uiso   1.00
C407   C     0.16395   0.25228   0.52702   0.00000  Uiso   1.00
C408   C     0.16479   0.25261   0.97247   0.00000  Uiso   1.00
C409   C     0.06800   0.24957   0.73770   0.00000  Uiso   1.00
C410   C     0.26536   0.24995   0.76235   0.00000  Uiso   1.00
C411   C     0.01283   0.24851   0.73098   0.00000  Uiso   1.00
C412   C     0.32058   0.25019   0.76923   0.00000  Uiso   1.00
C413   C     0.15251   0.04677   0.78902   0.00000  Uiso   1.00
C414   C     0.15313   0.45262   0.70660   0.00000  Uiso   1.00
C415   C     0.15245   0.09265   0.78937   0.00000  Uiso   1.00
C416   C     0.15299   0.40670   0.70653   0.00000  Uiso   1.00
C417   C     0.16764   0.11669   0.75030   0.00000  Uiso   1.00
C418   C     0.16770   0.38325   0.74964   0.00000  Uiso   1.00
C419   C     0.18347   0.09424   0.71107   0.00000  Uiso   1.00
C420   C     0.18321   0.40621   0.79269   0.00000  Uiso   1.00
C421   C     0.18425   0.04835   0.71102   0.00000  Uiso   1.00
C422   C     0.18406   0.45209   0.79263   0.00000  Uiso   1.00
C423   C     0.16855   0.02423   0.74990   0.00000  Uiso   1.00
C424   C     0.16870   0.47568   0.74967   0.00000  Uiso   1.00
Cu425  Cu    0.16667   0.24999   0.79821   0.00000  Uiso   1.00
Cu426  Cu    0.16667   0.25000   0.70178   0.00000  Uiso   1.00
H427   H     0.32654   0.24612   0.69428   0.00000  Uiso   1.00
H428   H     0.00695   0.25207   0.80605   0.00000  Uiso   1.00
H429   H     0.13933   0.02895   0.81906   0.00000  Uiso   1.00
H430   H     0.14031   0.47004   0.67315   0.00000  Uiso   1.00
H431   H     0.13974   0.10918   0.81982   0.00000  Uiso   1.00
H432   H     0.14059   0.38957   0.67295   0.00000  Uiso   1.00
H433   H     0.19585   0.11214   0.68068   0.00000  Uiso   1.00
H434   H     0.19527   0.38874   0.82630   0.00000  Uiso   1.00
H435   H     0.19765   0.03177   0.68081   0.00000  Uiso   1.00
H436   H     0.19718   0.46908   0.82612   0.00000  Uiso   1.00
H437   H     0.23793   0.28523   0.54349   0.00000  Uiso   1.00
H438   H     0.13219   0.18705   0.96240   0.00000  Uiso   1.00
H439   H     0.09539   0.21566   0.61678   0.00000  Uiso   1.00
H440   H     0.20264   0.31300   0.87831   0.00000  Uiso   1.00
N441   N     0.16667   0.25001   0.62934   0.00000  Uiso   1.00
N442   N     0.16667   0.24999   0.87065   0.00000  Uiso   1.00
O443   O     0.16667   0.18573   0.79071   0.00000  Uiso   1.00
O444   O     0.16666   0.31427   0.70928   0.00000  Uiso   1.00
O445   O     0.16667   0.18573   0.70928   0.00000  Uiso   1.00
O446   O     0.16666   0.31427   0.79072   0.00000  Uiso   1.00
O447   O     0.09161   0.24999   0.78132   0.00000  Uiso   1.00
O448   O     0.24172   0.25001   0.71868   0.00000  Uiso   1.00
O449   O     0.09161   0.25000   0.69988   0.00000  Uiso   1.00
O450   O     0.24172   0.25000   0.80011   0.00000  Uiso   1.00
N451   N     0.24393   0.29583   0.63797   0.00000  Uiso   1.00
H452   H     0.27972   0.28503   0.63033   0.00000  Uiso   1.00
H453   H     0.24067   0.32899   0.62740   0.00000  Uiso   1.00
N454   N     0.11833   0.18082   0.86649   0.00000  Uiso   1.00
H455   H     0.08298   0.19313   0.85060   0.00000  Uiso   1.00
H456   H     0.10995   0.15476   0.88920   0.00000  Uiso   1.00
N457   N     0.07721   0.21729   0.52057   0.00000  Uiso   1.00
H458   H     0.04608   0.23495   0.53013   0.00000  Uiso   1.00
H459   H     0.07177   0.18412   0.52964   0.00000  Uiso   1.00
N460   N     0.20008   0.32892   0.97155   0.00000  Uiso   1.00
H461   H     0.17755   0.35440   0.95487   0.00000  Uiso   1.00
H462   H     0.23834   0.33551   0.96658   0.00000  Uiso   1.00
C463   C     0.50021   0.16497   0.75016   0.00000  Uiso   1.00
C464   C     0.50027   0.33501   0.74986   0.00000  Uiso   1.00
C465   C     0.53849   0.27080   0.55805   0.00000  Uiso   1.00
C466   C     0.47962   0.21586   0.94478   0.00000  Uiso   1.00
C467   C     0.53817   0.27131   0.60859   0.00000  Uiso   1.00
C468   C     0.47814   0.21588   0.89394   0.00000  Uiso   1.00
C469   C     0.45966   0.23120   0.60037   0.00000  Uiso   1.00
C470   C     0.51971   0.28570   0.89672   0.00000  Uiso   1.00
C471   C     0.45639   0.23311   0.54925   0.00000  Uiso   1.00
C472   C     0.51762   0.28863   0.94713   0.00000  Uiso   1.00
C473   C     0.49729   0.25228   0.52702   0.00000  Uiso   1.00
C474   C     0.49812   0.25261   0.97247   0.00000  Uiso   1.00
C475   C     0.40134   0.24957   0.73770   0.00000  Uiso   1.00
C476   C     0.59869   0.24995   0.76235   0.00000  Uiso   1.00
C477   C     0.34616   0.24851   0.73098   0.00000  Uiso   1.00
C478   C     0.65392   0.25019   0.76923   0.00000  Uiso   1.00
C479   C     0.48584   0.04677   0.78902   0.00000  Uiso   1.00
C480   C     0.48646   0.45262   0.70660   0.00000  Uiso   1.00
C481   C     0.48579   0.09265   0.78937   0.00000  Uiso   1.00
C482   C     0.48632   0.40670   0.70653   0.00000  Uiso   1.00
C483   C     0.50098   0.11669   0.75030   0.00000  Uiso   1.00
C484   C     0.50104   0.38325   0.74964   0.00000  Uiso   1.00
C485   C     0.51681   0.09424   0.71107   0.00000  Uiso   1.00
C486   C     0.51655   0.40621   0.79269   0.00000  Uiso   1.00
C487   C     0.51759   0.04835   0.71102   0.00000  Uiso   1.00
C488   C     0.51740   0.45209   0.79263   0.00000  Uiso   1.00
C489   C     0.50188   0.02423   0.74990   0.00000  Uiso   1.00
C490   C     0.50203   0.47568   0.74967   0.00000  Uiso   1.00
Cu491  Cu    0.50000   0.24999   0.79821   0.00000  Uiso   1.00
Cu492  Cu    0.50000   0.25000   0.70178   0.00000  Uiso   1.00
H493   H     0.65987   0.24612   0.69428   0.00000  Uiso   1.00
H494   H     0.34029   0.25207   0.80605   0.00000  Uiso   1.00
H495   H     0.47266   0.02895   0.81906   0.00000  Uiso   1.00
H496   H     0.47365   0.47004   0.67315   0.00000  Uiso   1.00
H497   H     0.47307   0.10918   0.81982   0.00000  Uiso   1.00
H498   H     0.47392   0.38957   0.67295   0.00000  Uiso   1.00
H499   H     0.52918   0.11214   0.68068   0.00000  Uiso   1.00
H500   H     0.52861   0.38874   0.82630   0.00000  Uiso   1.00
H501   H     0.53099   0.03177   0.68081   0.00000  Uiso   1.00
H502   H     0.53051   0.46908   0.82612   0.00000  Uiso   1.00
H503   H     0.57126   0.28523   0.54349   0.00000  Uiso   1.00
H504   H     0.46552   0.18705   0.96240   0.00000  Uiso   1.00
H505   H     0.42872   0.21566   0.61678   0.00000  Uiso   1.00
H506   H     0.53597   0.31300   0.87831   0.00000  Uiso   1.00
N507   N     0.50000   0.25001   0.62934   0.00000  Uiso   1.00
N508   N     0.50000   0.24999   0.87065   0.00000  Uiso   1.00
O509   O     0.50000   0.18573   0.79071   0.00000  Uiso   1.00
O510   O     0.50000   0.31427   0.70928   0.00000  Uiso   1.00
O511   O     0.50000   0.18573   0.70928   0.00000  Uiso   1.00
O512   O     0.50000   0.31427   0.79072   0.00000  Uiso   1.00
O513   O     0.42495   0.24999   0.78132   0.00000  Uiso   1.00
O514   O     0.57505   0.25001   0.71868   0.00000  Uiso   1.00
O515   O     0.42495   0.25000   0.69988   0.00000  Uiso   1.00
O516   O     0.57505   0.25000   0.80011   0.00000  Uiso   1.00
N517   N     0.57727   0.29583   0.63797   0.00000  Uiso   1.00
H518   H     0.61305   0.28503   0.63033   0.00000  Uiso   1.00
H519   H     0.57400   0.32899   0.62740   0.00000  Uiso   1.00
N520   N     0.45167   0.18082   0.86649   0.00000  Uiso   1.00
H521   H     0.41631   0.19313   0.85060   0.00000  Uiso   1.00
H522   H     0.44328   0.15476   0.88920   0.00000  Uiso   1.00
N523   N     0.41054   0.21729   0.52057   0.00000  Uiso   1.00
H524   H     0.37941   0.23495   0.53013   0.00000  Uiso   1.00
H525   H     0.40511   0.18412   0.52964   0.00000  Uiso   1.00
N526   N     0.53341   0.32892   0.97155   0.00000  Uiso   1.00
H527   H     0.51088   0.35440   0.95487   0.00000  Uiso   1.00
H528   H     0.57167   0.33551   0.96658   0.00000  Uiso   1.00
C529   C     0.83354   0.16497   0.75016   0.00000  Uiso   1.00
C530   C     0.83360   0.33501   0.74986   0.00000  Uiso   1.00
C531   C     0.87182   0.27080   0.55805   0.00000  Uiso   1.00
C532   C     0.81296   0.21586   0.94478   0.00000  Uiso   1.00
C533   C     0.87151   0.27131   0.60859   0.00000  Uiso   1.00
C534   C     0.81148   0.21588   0.89394   0.00000  Uiso   1.00
C535   C     0.79299   0.23120   0.60037   0.00000  Uiso   1.00
C536   C     0.85304   0.28570   0.89672   0.00000  Uiso   1.00
C537   C     0.78973   0.23311   0.54925   0.00000  Uiso   1.00
C538   C     0.85096   0.28863   0.94713   0.00000  Uiso   1.00
C539   C     0.83062   0.25228   0.52702   0.00000  Uiso   1.00
C540   C     0.83146   0.25261   0.97247   0.00000  Uiso   1.00
C541   C     0.73467   0.24957   0.73770   0.00000  Uiso   1.00
C542   C     0.93202   0.24995   0.76235   0.00000  Uiso   1.00
C543   C     0.67950   0.24851   0.73098   0.00000  Uiso   1.00
C544   C     0.98725   0.25019   0.76923   0.00000  Uiso   1.00
C545   C     0.81918   0.04677   0.78902   0.00000  Uiso   1.00
C546   C     0.81980   0.45262   0.70660   0.00000  Uiso   1.00
C547   C     0.81912   0.09265   0.78937   0.00000  Uiso   1.00
C548   C     0.81966   0.40670   0.70653   0.00000  Uiso   1.00
C549   C     0.83431   0.11669   0.75030   0.00000  Uiso   1.00
C550   C     0.83437   0.38325   0.74964   0.00000  Uiso   1.00
C551   C     0.85014   0.09424   0.71107   0.00000  Uiso   1.00
C552   C     0.84988   0.40621   0.79269   0.00000  Uiso   1.00
C553   C     0.85092   0.04835   0.71102   0.00000  Uiso   1.00
C554   C     0.85073   0.45209   0.79263   0.00000  Uiso   1.00
C555   C     0.83521   0.02423   0.74990   0.00000  Uiso   1.00
C556   C     0.83537   0.47568   0.74967   0.00000  Uiso   1.00
Cu557  Cu    0.83333   0.24999   0.79821   0.00000  Uiso   1.00
Cu558  Cu    0.83333   0.25000   0.70178   0.00000  Uiso   1.00
H559   H     0.99320   0.24612   0.69428   0.00000  Uiso   1.00
H560   H     0.67362   0.25207   0.80605   0.00000  Uiso   1.00
H561   H     0.80600   0.02895   0.81906   0.00000  Uiso   1.00
H562   H     0.80698   0.47004   0.67315   0.00000  Uiso   1.00
H563   H     0.80640   0.10918   0.81982   0.00000  Uiso   1.00
H564   H     0.80726   0.38957   0.67295   0.00000  Uiso   1.00
H565   H     0.86251   0.11214   0.68068   0.00000  Uiso   1.00
H566   H     0.86194   0.38874   0.82630   0.00000  Uiso   1.00
H567   H     0.86432   0.03177   0.68081   0.00000  Uiso   1.00
H568   H     0.86385   0.46908   0.82612   0.00000  Uiso   1.00
H569   H     0.90459   0.28523   0.54349   0.00000  Uiso   1.00
H570   H     0.79885   0.18705   0.96240   0.00000  Uiso   1.00
H571   H     0.76206   0.21566   0.61678   0.00000  Uiso   1.00
H572   H     0.86930   0.31300   0.87831   0.00000  Uiso   1.00
N573   N     0.83333   0.25001   0.62934   0.00000  Uiso   1.00
N574   N     0.83333   0.24999   0.87065   0.00000  Uiso   1.00
O575   O     0.83334   0.18573   0.79071   0.00000  Uiso   1.00
O576   O     0.83333   0.31427   0.70928   0.00000  Uiso   1.00
O577   O     0.83334   0.18573   0.70928   0.00000  Uiso   1.00
O578   O     0.83333   0.31427   0.79072   0.00000  Uiso   1.00
O579   O     0.75828   0.24999   0.78132   0.00000  Uiso   1.00
O580   O     0.90839   0.25001   0.71868   0.00000  Uiso   1.00
O581   O     0.75828   0.25000   0.69988   0.00000  Uiso   1.00
O582   O     0.90839   0.25000   0.80011   0.00000  Uiso   1.00
N583   N     0.91060   0.29583   0.63797   0.00000  Uiso   1.00
H584   H     0.94638   0.28503   0.63033   0.00000  Uiso   1.00
H585   H     0.90734   0.32899   0.62740   0.00000  Uiso   1.00
N586   N     0.78500   0.18082   0.86649   0.00000  Uiso   1.00
H587   H     0.74965   0.19313   0.85060   0.00000  Uiso   1.00
H588   H     0.77661   0.15476   0.88920   0.00000  Uiso   1.00
N589   N     0.74387   0.21729   0.52057   0.00000  Uiso   1.00
H590   H     0.71275   0.23495   0.53013   0.00000  Uiso   1.00
H591   H     0.73844   0.18412   0.52964   0.00000  Uiso   1.00
N592   N     0.86675   0.32892   0.97155   0.00000  Uiso   1.00
H593   H     0.84422   0.35440   0.95487   0.00000  Uiso   1.00
H594   H     0.90500   0.33551   0.96658   0.00000  Uiso   1.00
C595   C     0.16687   0.66497   0.75016   0.00000  Uiso   1.00
C596   C     0.16694   0.83501   0.74986   0.00000  Uiso   1.00
C597   C     0.20515   0.77080   0.55805   0.00000  Uiso   1.00
C598   C     0.14629   0.71586   0.94478   0.00000  Uiso   1.00
C599   C     0.20484   0.77131   0.60859   0.00000  Uiso   1.00
C600   C     0.14481   0.71588   0.89394   0.00000  Uiso   1.00
C601   C     0.12633   0.73120   0.60037   0.00000  Uiso   1.00
C602   C     0.18637   0.78570   0.89672   0.00000  Uiso   1.00
C603   C     0.12306   0.73311   0.54925   0.00000  Uiso   1.00
C604   C     0.18429   0.78863   0.94713   0.00000  Uiso   1.00
C605   C     0.16395   0.75228   0.52702   0.00000  Uiso   1.00
C606   C     0.16479   0.75261   0.97247   0.00000  Uiso   1.00
C607   C     0.06800   0.74957   0.73770   0.00000  Uiso   1.00
C608   C     0.26536   0.74995   0.76235   0.00000  Uiso   1.00
C609   C     0.01283   0.74851   0.73098   0.00000  Uiso   1.00
C610   C     0.32058   0.75019   0.76923   0.00000  Uiso   1.00
C611   C     0.15251   0.54677   0.78902   0.00000  Uiso   1.00
C612   C     0.15313   0.95262   0.70660   0.00000  Uiso   1.00
C613   C     0.15245   0.59265   0.78937   0.00000  Uiso   1.00
C614   C     0.15299   0.90670   0.70653   0.00000  Uiso   1.00
C615   C     0.16764   0.61669   0.75030   0.00000  Uiso   1.00
C616   C     0.16770   0.88325   0.74964   0.00000  Uiso   1.00
C617   C     0.18347   0.59424   0.71107   0.00000  Uiso   1.00
C618   C     0.18321   0.90621   0.79269   0.00000  Uiso   1.00
C619   C     0.18425   0.54835   0.71102   0.00000  Uiso   1.00
C620   C     0.18406   0.95209   0.79263   0.00000  Uiso   1.00
C621   C     0.16855   0.52423   0.74990   0.00000  Uiso   1.00
C622   C     0.16870   0.97568   0.74967   0.00000  Uiso   1.00
Cu623  Cu    0.16667   0.74999   0.79821   0.00000  Uiso   1.00
Cu624  Cu    0.16667   0.75000   0.70178   0.00000  Uiso   1.00
H625   H     0.32654   0.74612   0.69428   0.00000  Uiso   1.00
H626   H     0.00695   0.75207   0.80605   0.00000  Uiso   1.00
H627   H     0.13933   0.52895   0.81906   0.00000  Uiso   1.00
H628   H     0.14031   0.97004   0.67315   0.00000  Uiso   1.00
H629   H     0.13974   0.60918   0.81982   0.00000  Uiso   1.00
H630   H     0.14059   0.88957   0.67295   0.00000  Uiso   1.00
H631   H     0.19585   0.61214   0.68068   0.00000  Uiso   1.00
H632   H     0.19527   0.88874   0.82630   0.00000  Uiso   1.00
H633   H     0.19765   0.53177   0.68081   0.00000  Uiso   1.00
H634   H     0.19718   0.96908   0.82612   0.00000  Uiso   1.00
H635   H     0.23793   0.78523   0.54349   0.00000  Uiso   1.00
H636   H     0.13219   0.68705   0.96240   0.00000  Uiso   1.00
H637   H     0.09539   0.71566   0.61678   0.00000  Uiso   1.00
H638   H     0.20264   0.81300   0.87831   0.00000  Uiso   1.00
N639   N     0.16667   0.75001   0.62934   0.00000  Uiso   1.00
N640   N     0.16667   0.74999   0.87065   0.00000  Uiso   1.00
O641   O     0.16667   0.68573   0.79071   0.00000  Uiso   1.00
O642   O     0.16666   0.81427   0.70928   0.00000  Uiso   1.00
O643   O     0.16667   0.68573   0.70928   0.00000  Uiso   1.00
O644   O     0.16666   0.81427   0.79072   0.00000  Uiso   1.00
O645   O     0.09161   0.74999   0.78132   0.00000  Uiso   1.00
O646   O     0.24172   0.75001   0.71868   0.00000  Uiso   1.00
O647   O     0.09161   0.75000   0.69988   0.00000  Uiso   1.00
O648   O     0.24172   0.75000   0.80011   0.00000  Uiso   1.00
N649   N     0.24393   0.79583   0.63797   0.00000  Uiso   1.00
H650   H     0.27972   0.78503   0.63033   0.00000  Uiso   1.00
H651   H     0.24067   0.82899   0.62740   0.00000  Uiso   1.00
N652   N     0.11833   0.68082   0.86649   0.00000  Uiso   1.00
H653   H     0.08298   0.69313   0.85060   0.00000  Uiso   1.00
H654   H     0.10995   0.65476   0.88920   0.00000  Uiso   1.00
N655   N     0.07721   0.71729   0.52057   0.00000  Uiso   1.00
H656   H     0.04608   0.73495   0.53013   0.00000  Uiso   1.00
H657   H     0.07177   0.68412   0.52964   0.00000  Uiso   1.00
N658   N     0.20008   0.82892   0.97155   0.00000  Uiso   1.00
H659   H     0.17755   0.85440   0.95487   0.00000  Uiso   1.00
H660   H     0.23834   0.83551   0.96658   0.00000  Uiso   1.00
C661   C     0.50021   0.66497   0.75016   0.00000  Uiso   1.00
C662   C     0.50027   0.83501   0.74986   0.00000  Uiso   1.00
C663   C     0.53849   0.77080   0.55805   0.00000  Uiso   1.00
C664   C     0.47962   0.71586   0.94478   0.00000  Uiso   1.00
C665   C     0.53817   0.77131   0.60859   0.00000  Uiso   1.00
C666   C     0.47814   0.71588   0.89394   0.00000  Uiso   1.00
C667   C     0.45966   0.73120   0.60037   0.00000  Uiso   1.00
C668   C     0.51971   0.78570   0.89672   0.00000  Uiso   1.00
C669   C     0.45639   0.73311   0.54925   0.00000  Uiso   1.00
C670   C     0.51762   0.78863   0.94713   0.00000  Uiso   1.00
C671   C     0.49729   0.75228   0.52702   0.00000  Uiso   1.00
C672   C     0.49812   0.75261   0.97247   0.00000  Uiso   1.00
C673   C     0.40134   0.74957   0.73770   0.00000  Uiso   1.00
C674   C     0.59869   0.74995   0.76235   0.00000  Uiso   1.00
C675   C     0.34616   0.74851   0.73098   0.00000  Uiso   1.00
C676   C     0.65392   0.75019   0.76923   0.00000  Uiso   1.00
C677   C     0.48584   0.54677   0.78902   0.00000  Uiso   1.00
C678   C     0.48646   0.95262   0.70660   0.00000  Uiso   1.00
C679   C     0.48579   0.59265   0.78937   0.00000  Uiso   1.00
C680   C     0.48632   0.90670   0.70653   0.00000  Uiso   1.00
C681   C     0.50098   0.61669   0.75030   0.00000  Uiso   1.00
C682   C     0.50104   0.88325   0.74964   0.00000  Uiso   1.00
C683   C     0.51681   0.59424   0.71107   0.00000  Uiso   1.00
C684   C     0.51655   0.90621   0.79269   0.00000  Uiso   1.00
C685   C     0.51759   0.54835   0.71102   0.00000  Uiso   1.00
C686   C     0.51740   0.95209   0.79263   0.00000  Uiso   1.00
C687   C     0.50188   0.52423   0.74990   0.00000  Uiso   1.00
C688   C     0.50203   0.97568   0.74967   0.00000  Uiso   1.00
Cu689  Cu    0.50000   0.74999   0.79821   0.00000  Uiso   1.00
Cu690  Cu    0.50000   0.75000   0.70178   0.00000  Uiso   1.00
H691   H     0.65987   0.74612   0.69428   0.00000  Uiso   1.00
H692   H     0.34029   0.75207   0.80605   0.00000  Uiso   1.00
H693   H     0.47266   0.52895   0.81906   0.00000  Uiso   1.00
H694   H     0.47365   0.97004   0.67315   0.00000  Uiso   1.00
H695   H     0.47307   0.60918   0.81982   0.00000  Uiso   1.00
H696   H     0.47392   0.88957   0.67295   0.00000  Uiso   1.00
H697   H     0.52918   0.61214   0.68068   0.00000  Uiso   1.00
H698   H     0.52861   0.88874   0.82630   0.00000  Uiso   1.00
H699   H     0.53099   0.53177   0.68081   0.00000  Uiso   1.00
H700   H     0.53051   0.96908   0.82612   0.00000  Uiso   1.00
H701   H     0.57126   0.78523   0.54349   0.00000  Uiso   1.00
H702   H     0.46552   0.68705   0.96240   0.00000  Uiso   1.00
H703   H     0.42872   0.71566   0.61678   0.00000  Uiso   1.00
H704   H     0.53597   0.81300   0.87831   0.00000  Uiso   1.00
N705   N     0.50000   0.75001   0.62934   0.00000  Uiso   1.00
N706   N     0.50000   0.74999   0.87065   0.00000  Uiso   1.00
O707   O     0.50000   0.68573   0.79071   0.00000  Uiso   1.00
O708   O     0.50000   0.81427   0.70928   0.00000  Uiso   1.00
O709   O     0.50000   0.68573   0.70928   0.00000  Uiso   1.00
O710   O     0.50000   0.81427   0.79072   0.00000  Uiso   1.00
O711   O     0.42495   0.74999   0.78132   0.00000  Uiso   1.00
O712   O     0.57505   0.75001   0.71868   0.00000  Uiso   1.00
O713   O     0.42495   0.75000   0.69988   0.00000  Uiso   1.00
O714   O     0.57505   0.75000   0.80011   0.00000  Uiso   1.00
N715   N     0.57727   0.79583   0.63797   0.00000  Uiso   1.00
H716   H     0.61305   0.78503   0.63033   0.00000  Uiso   1.00
H717   H     0.57400   0.82899   0.62740   0.00000  Uiso   1.00
N718   N     0.45167   0.68082   0.86649   0.00000  Uiso   1.00
H719   H     0.41631   0.69313   0.85060   0.00000  Uiso   1.00
H720   H     0.44328   0.65476   0.88920   0.00000  Uiso   1.00
N721   N     0.41054   0.71729   0.52057   0.00000  Uiso   1.00
H722   H     0.37941   0.73495   0.53013   0.00000  Uiso   1.00
H723   H     0.40511   0.68412   0.52964   0.00000  Uiso   1.00
N724   N     0.53341   0.82892   0.97155   0.00000  Uiso   1.00
H725   H     0.51088   0.85440   0.95487   0.00000  Uiso   1.00
H726   H     0.57167   0.83551   0.96658   0.00000  Uiso   1.00
C727   C     0.83354   0.66497   0.75016   0.00000  Uiso   1.00
C728   C     0.83360   0.83501   0.74986   0.00000  Uiso   1.00
C729   C     0.87182   0.77080   0.55805   0.00000  Uiso   1.00
C730   C     0.81296   0.71586   0.94478   0.00000  Uiso   1.00
C731   C     0.87151   0.77131   0.60859   0.00000  Uiso   1.00
C732   C     0.81148   0.71588   0.89394   0.00000  Uiso   1.00
C733   C     0.79299   0.73120   0.60037   0.00000  Uiso   1.00
C734   C     0.85304   0.78570   0.89672   0.00000  Uiso   1.00
C735   C     0.78973   0.73311   0.54925   0.00000  Uiso   1.00
C736   C     0.85096   0.78863   0.94713   0.00000  Uiso   1.00
C737   C     0.83062   0.75228   0.52702   0.00000  Uiso   1.00
C738   C     0.83146   0.75261   0.97247   0.00000  Uiso   1.00
C739   C     0.73467   0.74957   0.73770   0.00000  Uiso   1.00
C740   C     0.93202   0.74995   0.76235   0.00000  Uiso   1.00
C741   C     0.67950   0.74851   0.73098   0.00000  Uiso   1.00
C742   C     0.98725   0.75019   0.76923   0.00000  Uiso   1.00
C743   C     0.81918   0.54677   0.78902   0.00000  Uiso   1.00
C744   C     0.81980   0.95262   0.70660   0.00000  Uiso   1.00
C745   C     0.81912   0.59265   0.78937   0.00000  Uiso   1.00
C746   C     0.81966   0.90670   0.70653   0.00000  Uiso   1.00
C747   C     0.83431   0.61669   0.75030   0.00000  Uiso   1.00
C748   C     0.83437   0.88325   0.74964   0.00000  Uiso   1.00
C749   C     0.85014   0.59424   0.71107   0.00000  Uiso   1.00
C750   C     0.84988   0.90621   0.79269   0.00000  Uiso   1.00
C751   C     0.85092   0.54835   0.71102   0.00000  Uiso   1.00
C752   C     0.85073   0.95209   0.79263   0.00000  Uiso   1.00
C753   C     0.83521   0.52423   0.74990   0.00000  Uiso   1.00
C754   C     0.83537   0.97568   0.74967   0.00000  Uiso   1.00
Cu755  Cu    0.83333   0.74999   0.79821   0.00000  Uiso   1.00
Cu756  Cu    0.83333   0.75000   0.70178   0.00000  Uiso   1.00
H757   H     0.99320   0.74612   0.69428   0.00000  Uiso   1.00
H758   H     0.67362   0.75207   0.80605   0.00000  Uiso   1.00
H759   H     0.80600   0.52895   0.81906   0.00000  Uiso   1.00
H760   H     0.80698   0.97004   0.67315   0.00000  Uiso   1.00
H761   H     0.80640   0.60918   0.81982   0.00000  Uiso   1.00
H762   H     0.80726   0.88957   0.67295   0.00000  Uiso   1.00
H763   H     0.86251   0.61214   0.68068   0.00000  Uiso   1.00
H764   H     0.86194   0.88874   0.82630   0.00000  Uiso   1.00
H765   H     0.86432   0.53177   0.68081   0.00000  Uiso   1.00
H766   H     0.86385   0.96908   0.82612   0.00000  Uiso   1.00
H767   H     0.90459   0.78523   0.54349   0.00000  Uiso   1.00
H768   H     0.79885   0.68705   0.96240   0.00000  Uiso   1.00
H769   H     0.76206   0.71566   0.61678   0.00000  Uiso   1.00
H770   H     0.86930   0.81300   0.87831   0.00000  Uiso   1.00
N771   N     0.83333   0.75001   0.62934   0.00000  Uiso   1.00
N772   N     0.83333   0.74999   0.87065   0.00000  Uiso   1.00
O773   O     0.83334   0.68573   0.79071   0.00000  Uiso   1.00
O774   O     0.83333   0.81427   0.70928   0.00000  Uiso   1.00
O775   O     0.83334   0.68573   0.70928   0.00000  Uiso   1.00
O776   O     0.83333   0.81427   0.79072   0.00000  Uiso   1.00
O777   O     0.75828   0.74999   0.78132   0.00000  Uiso   1.00
O778   O     0.90839   0.75001   0.71868   0.00000  Uiso   1.00
O779   O     0.75828   0.75000   0.69988   0.00000  Uiso   1.00
O780   O     0.90839   0.75000   0.80011   0.00000  Uiso   1.00
N781   N     0.91060   0.79583   0.63797   0.00000  Uiso   1.00
H782   H     0.94638   0.78503   0.63033   0.00000  Uiso   1.00
H783   H     0.90734   0.82899   0.62740   0.00000  Uiso   1.00
N784   N     0.78500   0.68082   0.86649   0.00000  Uiso   1.00
H785   H     0.74965   0.69313   0.85060   0.00000  Uiso   1.00
H786   H     0.77661   0.65476   0.88920   0.00000  Uiso   1.00
N787   N     0.74387   0.71729   0.52057   0.00000  Uiso   1.00
H788   H     0.71275   0.73495   0.53013   0.00000  Uiso   1.00
H789   H     0.73844   0.68412   0.52964   0.00000  Uiso   1.00
N790   N     0.86675   0.82892   0.97155   0.00000  Uiso   1.00
H791   H     0.84422   0.85440   0.95487   0.00000  Uiso   1.00
H792   H     0.90500   0.83551   0.96658   0.00000  Uiso   1.00
loop_
_geom_bond_atom_site_label_1
_geom_bond_atom_site_label_2
_geom_bond_distance
_geom_bond_site_symmetry_2
_ccdc_geom_bond_type
C1     C21     1.462   .     S
C1     O47     1.298   .     A
C1     O49     1.295   .     A
C2     C22     1.461   .     S
C2     O50     1.295   .     A
C2     O48     1.297   .     A
C3     H41     1.081   .     S
C3     C11     1.405   .     A
C3     C5      1.409   .     A
C4     H42     1.081   .     S
C4     C6      1.411   .     A
C4     C12     1.404   .     A
C5     N45     1.370   .     A
C5     N55     1.428   .     S
C6     N58     1.431   .     S
C6     N46     1.373   .     A
C7     H43     1.081   .     S
C7     N45     1.364   .     A
C7     C9      1.416   .     A
C8     C10     1.416   .     A
C8     N46     1.365   .     A
C8     H44     1.081   .     S
C9     C11     1.420   .     A
C9     N61     1.432   .     S
C10    N64     1.432   .     S
C10    C12     1.419   .     A
C11    C408    1.522   1_554 S
C12    C407    1.522   .     S
C13    C15     1.433   .     S
C13    O53     1.289   .     A
C13    O51     1.289   .     A
C14    O54     1.288   .     A
C14    C16     1.434   .     S
C14    O52     1.290   .     A
C15    C148    1.332   1_455 S
C15    H163    1.085   1_455 S
C16    C81     1.332   .     S
C16    H98     1.087   .     S
C17    H33     1.083   .     S
C17    C27     1.404   .     A
C17    C19     1.390   .     A
C18    H34     1.083   .     S
C18    C28     1.404   .     A
C18    C20     1.391   .     A
C19    H35     1.080   .     S
C19    C21     1.401   .     A
C20    C22     1.402   .     A
C20    H36     1.083   .     S
C21    C23     1.403   .     A
C22    C24     1.402   .     A
C23    C25     1.390   .     A
C23    H37     1.083   .     S
C24    H38     1.083   .     S
C24    C26     1.389   .     A
C25    H39     1.083   .     S
C25    C27     1.403   .     A
C26    C28     1.403   .     A
C26    H40     1.083   .     S
C27    C226    1.470   1_545 S
C28    C225    1.470   .     S
Cu29   Cu30    2.685   .     S
Cu29   N46     2.017   .     S
Cu29   O47     1.959   .     S
Cu29   O50     1.956   .     S
Cu29   O54     1.960   .     S
Cu29   O51     1.960   .     S
Cu30   N45     2.017   .     S
Cu30   O49     1.956   .     S
Cu30   O53     1.960   .     S
Cu30   O48     1.959   .     S
Cu30   O52     1.960   .     S
H31    C81     1.085   .     S
H32    C148    1.087   1_455 S
N55    H56     1.045   .     S
N55    H57     1.046   .     S
N58    H60     1.046   .     S
N58    H59     1.045   .     S
N61    H62     1.046   .     S
N61    H63     1.046   .     S
N64    H65     1.046   .     S
N64    H66     1.046   .     S
C67    C87     1.462   .     S
C67    O113    1.298   .     A
C67    O115    1.295   .     A
C68    C88     1.461   .     S
C68    O116    1.295   .     A
C68    O114    1.297   .     A
C69    H107    1.081   .     S
C69    C77     1.405   .     A
C69    C71     1.409   .     A
C70    H108    1.081   .     S
C70    C72     1.411   .     A
C70    C78     1.404   .     A
C71    N111    1.370   .     A
C71    N121    1.428   .     S
C72    N124    1.431   .     S
C72    N112    1.373   .     A
C73    H109    1.081   .     S
C73    N111    1.364   .     A
C73    C75     1.416   .     A
C74    C76     1.416   .     A
C74    N112    1.365   .     A
C74    H110    1.081   .     S
C75    C77     1.420   .     A
C75    N127    1.432   .     S
C76    N130    1.432   .     S
C76    C78     1.419   .     A
C77    C474    1.522   1_554 S
C78    C473    1.522   .     S
C79    C81     1.433   .     S
C79    O119    1.289   .     A
C79    O117    1.289   .     A
C80    O120    1.288   .     A
C80    C82     1.434   .     S
C80    O118    1.290   .     A
C82    C147    1.332   .     S
C82    H164    1.087   .     S
C83    H99     1.083   .     S
C83    C93     1.404   .     A
C83    C85     1.390   .     A
C84    H100    1.083   .     S
C84    C94     1.404   .     A
C84    C86     1.391   .     A
C85    H101    1.080   .     S
C85    C87     1.401   .     A
C86    C88     1.402   .     A
C86    H102    1.083   .     S
C87    C89     1.403   .     A
C88    C90     1.402   .     A
C89    C91     1.390   .     A
C89    H103    1.083   .     S
C90    H104    1.083   .     S
C90    C92     1.389   .     A
C91    H105    1.083   .     S
C91    C93     1.403   .     A
C92    C94     1.403   .     A
C92    H106    1.083   .     S
C93    C292    1.470   1_545 S
C94    C291    1.470   .     S
Cu95   Cu96    2.685   .     S
Cu95   N112    2.017   .     S
Cu95   O113    1.959   .     S
Cu95   O116    1.956   .     S
Cu95   O120    1.960   .     S
Cu95   O117    1.960   .     S
Cu96   N111    2.017   .     S
Cu96   O115    1.956   .     S
Cu96   O119    1.960   .     S
Cu96   O114    1.959   .     S
Cu96   O118    1.960   .     S
H97    C147    1.085   .     S
N121   H122    1.045   .     S
N121   H123    1.046   .     S
N124   H126    1.046   .     S
N124   H125    1.045   .     S
N127   H128    1.046   .     S
N127   H129    1.046   .     S
N130   H131    1.046   .     S
N130   H132    1.046   .     S
C133   C153    1.462   .     S
C133   O179    1.298   .     A
C133   O181    1.295   .     A
C134   C154    1.461   .     S
C134   O182    1.295   .     A
C134   O180    1.297   .     A
C135   H173    1.081   .     S
C135   C143    1.405   .     A
C135   C137    1.409   .     A
C136   H174    1.081   .     S
C136   C138    1.411   .     A
C136   C144    1.404   .     A
C137   N177    1.370   .     A
C137   N187    1.428   .     S
C138   N190    1.431   .     S
C138   N178    1.373   .     A
C139   H175    1.081   .     S
C139   N177    1.364   .     A
C139   C141    1.416   .     A
C140   C142    1.416   .     A
C140   N178    1.365   .     A
C140   H176    1.081   .     S
C141   C143    1.420   .     A
C141   N193    1.432   .     S
C142   N196    1.432   .     S
C142   C144    1.419   .     A
C143   C540    1.522   1_554 S
C144   C539    1.522   .     S
C145   C147    1.433   .     S
C145   O185    1.289   .     A
C145   O183    1.289   .     A
C146   O186    1.288   .     A
C146   C148    1.434   .     S
C146   O184    1.290   .     A
C148   C15     1.332   1_655 S
C148   H32     1.087   1_655 S
C149   H165    1.083   .     S
C149   C159    1.404   .     A
C149   C151    1.390   .     A
C150   H166    1.083   .     S
C150   C160    1.404   .     A
C150   C152    1.391   .     A
C151   H167    1.080   .     S
C151   C153    1.401   .     A
C152   C154    1.402   .     A
C152   H168    1.083   .     S
C153   C155    1.403   .     A
C154   C156    1.402   .     A
C155   C157    1.390   .     A
C155   H169    1.083   .     S
C156   H170    1.083   .     S
C156   C158    1.389   .     A
C157   H171    1.083   .     S
C157   C159    1.403   .     A
C158   C160    1.403   .     A
C158   H172    1.083   .     S
C159   C358    1.470   1_545 S
C160   C357    1.470   .     S
Cu161  Cu162   2.685   .     S
Cu161  N178    2.017   .     S
Cu161  O179    1.959   .     S
Cu161  O182    1.956   .     S
Cu161  O186    1.960   .     S
Cu161  O183    1.960   .     S
Cu162  N177    2.017   .     S
Cu162  O181    1.956   .     S
Cu162  O185    1.960   .     S
Cu162  O180    1.959   .     S
Cu162  O184    1.960   .     S
H163   C15     1.085   1_655 S
N187   H188    1.045   .     S
N187   H189    1.046   .     S
N190   H192    1.046   .     S
N190   H191    1.045   .     S
N193   H194    1.046   .     S
N193   H195    1.046   .     S
N196   H197    1.046   .     S
N196   H198    1.046   .     S
C199   C219    1.462   .     S
C199   O245    1.298   .     A
C199   O247    1.295   .     A
C200   C220    1.461   .     S
C200   O248    1.295   .     A
C200   O246    1.297   .     A
C201   H239    1.081   .     S
C201   C209    1.405   .     A
C201   C203    1.409   .     A
C202   H240    1.081   .     S
C202   C204    1.411   .     A
C202   C210    1.404   .     A
C203   N243    1.370   .     A
C203   N253    1.428   .     S
C204   N256    1.431   .     S
C204   N244    1.373   .     A
C205   H241    1.081   .     S
C205   N243    1.364   .     A
C205   C207    1.416   .     A
C206   C208    1.416   .     A
C206   N244    1.365   .     A
C206   H242    1.081   .     S
C207   C209    1.420   .     A
C207   N259    1.432   .     S
C208   N262    1.432   .     S
C208   C210    1.419   .     A
C209   C606    1.522   1_554 S
C210   C605    1.522   .     S
C211   C213    1.433   .     S
C211   O251    1.289   .     A
C211   O249    1.289   .     A
C212   O252    1.288   .     A
C212   C214    1.434   .     S
C212   O250    1.290   .     A
C213   C346    1.332   1_455 S
C213   H361    1.085   1_455 S
C214   C279    1.332   .     S
C214   H296    1.087   .     S
C215   H231    1.083   .     S
C215   C225    1.404   .     A
C215   C217    1.390   .     A
C216   H232    1.083   .     S
C216   C226    1.404   .     A
C216   C218    1.391   .     A
C217   H233    1.080   .     S
C217   C219    1.401   .     A
C218   C220    1.402   .     A
C218   H234    1.083   .     S
C219   C221    1.403   .     A
C220   C222    1.402   .     A
C221   C223    1.390   .     A
C221   H235    1.083   .     S
C222   H236    1.083   .     S
C222   C224    1.389   .     A
C223   H237    1.083   .     S
C223   C225    1.403   .     A
C224   C226    1.403   .     A
C224   H238    1.083   .     S
C226   C27     1.470   1_565 S
Cu227  Cu228   2.685   .     S
Cu227  N244    2.017   .     S
Cu227  O245    1.959   .     S
Cu227  O248    1.956   .     S
Cu227  O252    1.960   .     S
Cu227  O249    1.960   .     S
Cu228  N243    2.017   .     S
Cu228  O247    1.956   .     S
Cu228  O251    1.960   .     S
Cu228  O246    1.959   .     S
Cu228  O250    1.960   .     S
H229   C279    1.085   .     S
H230   C346    1.087   1_455 S
N253   H254    1.045   .     S
N253   H255    1.046   .     S
N256   H258    1.046   .     S
N256   H257    1.045   .     S
N259   H260    1.046   .     S
N259   H261    1.046   .     S
N262   H263    1.046   .     S
N262   H264    1.046   .     S
C265   C285    1.462   .     S
C265   O311    1.298   .     A
C265   O313    1.295   .     A
C266   C286    1.461   .     S
C266   O314    1.295   .     A
C266   O312    1.297   .     A
C267   H305    1.081   .     S
C267   C275    1.405   .     A
C267   C269    1.409   .     A
C268   H306    1.081   .     S
C268   C270    1.411   .     A
C268   C276    1.404   .     A
C269   N309    1.370   .     A
C269   N319    1.428   .     S
C270   N322    1.431   .     S
C270   N310    1.373   .     A
C271   H307    1.081   .     S
C271   N309    1.364   .     A
C271   C273    1.416   .     A
C272   C274    1.416   .     A
C272   N310    1.365   .     A
C272   H308    1.081   .     S
C273   C275    1.420   .     A
C273   N325    1.432   .     S
C274   N328    1.432   .     S
C274   C276    1.419   .     A
C275   C672    1.522   1_554 S
C276   C671    1.522   .     S
C277   C279    1.433   .     S
C277   O317    1.289   .     A
C277   O315    1.289   .     A
C278   O318    1.288   .     A
C278   C280    1.434   .     S
C278   O316    1.290   .     A
C280   C345    1.332   .     S
C280   H362    1.087   .     S
C281   H297    1.083   .     S
C281   C291    1.404   .     A
C281   C283    1.390   .     A
C282   H298    1.083   .     S
C282   C292    1.404   .     A
C282   C284    1.391   .     A
C283   H299    1.080   .     S
C283   C285    1.401   .     A
C284   C286    1.402   .     A
C284   H300    1.083   .     S
C285   C287    1.403   .     A
C286   C288    1.402   .     A
C287   C289    1.390   .     A
C287   H301    1.083   .     S
C288   H302    1.083   .     S
C288   C290    1.389   .     A
C289   H303    1.083   .     S
C289   C291    1.403   .     A
C290   C292    1.403   .     A
C290   H304    1.083   .     S
C292   C93     1.470   1_565 S
Cu293  Cu294   2.685   .     S
Cu293  N310    2.017   .     S
Cu293  O311    1.959   .     S
Cu293  O314    1.956   .     S
Cu293  O318    1.960   .     S
Cu293  O315    1.960   .     S
Cu294  N309    2.017   .     S
Cu294  O313    1.956   .     S
Cu294  O317    1.960   .     S
Cu294  O312    1.959   .     S
Cu294  O316    1.960   .     S
H295   C345    1.085   .     S
N319   H320    1.045   .     S
N319   H321    1.046   .     S
N322   H324    1.046   .     S
N322   H323    1.045   .     S
N325   H326    1.046   .     S
N325   H327    1.046   .     S
N328   H329    1.046   .     S
N328   H330    1.046   .     S
C331   C351    1.462   .     S
C331   O377    1.298   .     A
C331   O379    1.295   .     A
C332   C352    1.461   .     S
C332   O380    1.295   .     A
C332   O378    1.297   .     A
C333   H371    1.081   .     S
C333   C341    1.405   .     A
C333   C335    1.409   .     A
C334   H372    1.081   .     S
C334   C336    1.411   .     A
C334   C342    1.404   .     A
C335   N375    1.370   .     A
C335   N385    1.428   .     S
C336   N388    1.431   .     S
C336   N376    1.373   .     A
C337   H373    1.081   .     S
C337   N375    1.364   .     A
C337   C339    1.416   .     A
C338   C340    1.416   .     A
C338   N376    1.365   .     A
C338   H374    1.081   .     S
C339   C341    1.420   .     A
C339   N391    1.432   .     S
C340   N394    1.432   .     S
C340   C342    1.419   .     A
C341   C738    1.522   1_554 S
C342   C737    1.522   .     S
C343   C345    1.433   .     S
C343   O383    1.289   .     A
C343   O381    1.289   .     A
C344   O384    1.288   .     A
C344   C346    1.434   .     S
C344   O382    1.290   .     A
C346   C213    1.332   1_655 S
C346   H230    1.087   1_655 S
C347   H363    1.083   .     S
C347   C357    1.404   .     A
C347   C349    1.390   .     A
C348   H364    1.083   .     S
C348   C358    1.404   .     A
C348   C350    1.391   .     A
C349   H365    1.080   .     S
C349   C351    1.401   .     A
C350   C352    1.402   .     A
C350   H366    1.083   .     S
C351   C353    1.403   .     A
C352   C354    1.402   .     A
C353   C355    1.390   .     A
C353   H367    1.083   .     S
C354   H368    1.083   .     S
C354   C356    1.389   .     A
C355   H369    1.083   .     S
C355   C357    1.403   .     A
C356   C358    1.403   .     A
C356   H370    1.083   .     S
C358   C159    1.470   1_565 S
Cu359  Cu360   2.685   .     S
Cu359  N376    2.017   .     S
Cu359  O377    1.959   .     S
Cu359  O380    1.956   .     S
Cu359  O384    1.960   .     S
Cu359  O381    1.960   .     S
Cu360  N375    2.017   .     S
Cu360  O379    1.956   .     S
Cu360  O383    1.960   .     S
Cu360  O378    1.959   .     S
Cu360  O382    1.960   .     S
H361   C213    1.085   1_655 S
N385   H386    1.045   .     S
N385   H387    1.046   .     S
N388   H390    1.046   .     S
N388   H389    1.045   .     S
N391   H392    1.046   .     S
N391   H393    1.046   .     S
N394   H395    1.046   .     S
N394   H396    1.046   .     S
C397   C417    1.462   .     S
C397   O443    1.298   .     A
C397   O445    1.295   .     A
C398   C418    1.461   .     S
C398   O446    1.295   .     A
C398   O444    1.297   .     A
C399   H437    1.081   .     S
C399   C407    1.405   .     A
C399   C401    1.409   .     A
C400   H438    1.081   .     S
C400   C402    1.411   .     A
C400   C408    1.404   .     A
C401   N441    1.370   .     A
C401   N451    1.428   .     S
C402   N454    1.431   .     S
C402   N442    1.373   .     A
C403   H439    1.081   .     S
C403   N441    1.364   .     A
C403   C405    1.416   .     A
C404   C406    1.416   .     A
C404   N442    1.365   .     A
C404   H440    1.081   .     S
C405   C407    1.420   .     A
C405   N457    1.432   .     S
C406   N460    1.432   .     S
C406   C408    1.419   .     A
C408   C11     1.522   1_556 S
C409   C411    1.433   .     S
C409   O449    1.289   .     A
C409   O447    1.289   .     A
C410   O450    1.288   .     A
C410   C412    1.434   .     S
C410   O448    1.290   .     A
C411   C544    1.332   1_455 S
C411   H559    1.085   1_455 S
C412   C477    1.332   .     S
C412   H494    1.087   .     S
C413   H429    1.083   .     S
C413   C423    1.404   .     A
C413   C415    1.390   .     A
C414   H430    1.083   .     S
C414   C424    1.404   .     A
C414   C416    1.391   .     A
C415   H431    1.080   .     S
C415   C417    1.401   .     A
C416   C418    1.402   .     A
C416   H432    1.083   .     S
C417   C419    1.403   .     A
C418   C420    1.402   .     A
C419   C421    1.390   .     A
C419   H433    1.083   .     S
C420   H434    1.083   .     S
C420   C422    1.389   .     A
C421   H435    1.083   .     S
C421   C423    1.403   .     A
C422   C424    1.403   .     A
C422   H436    1.083   .     S
C423   C622    1.470   1_545 S
C424   C621    1.470   .     S
Cu425  Cu426   2.685   .     S
Cu425  N442    2.017   .     S
Cu425  O443    1.959   .     S
Cu425  O446    1.956   .     S
Cu425  O450    1.960   .     S
Cu425  O447    1.960   .     S
Cu426  N441    2.017   .     S
Cu426  O445    1.956   .     S
Cu426  O449    1.960   .     S
Cu426  O444    1.959   .     S
Cu426  O448    1.960   .     S
H427   C477    1.085   .     S
H428   C544    1.087   1_455 S
N451   H452    1.045   .     S
N451   H453    1.046   .     S
N454   H456    1.046   .     S
N454   H455    1.045   .     S
N457   H458    1.046   .     S
N457   H459    1.046   .     S
N460   H461    1.046   .     S
N460   H462    1.046   .     S
C463   C483    1.462   .     S
C463   O509    1.298   .     A
C463   O511    1.295   .     A
C464   C484    1.461   .     S
C464   O512    1.295   .     A
C464   O510    1.297   .     A
C465   H503    1.081   .     S
C465   C473    1.405   .     A
C465   C467    1.409   .     A
C466   H504    1.081   .     S
C466   C468    1.411   .     A
C466   C474    1.404   .     A
C467   N507    1.370   .     A
C467   N517    1.428   .     S
C468   N520    1.431   .     S
C468   N508    1.373   .     A
C469   H505    1.081   .     S
C469   N507    1.364   .     A
C469   C471    1.416   .     A
C470   C472    1.416   .     A
C470   N508    1.365   .     A
C470   H506    1.081   .     S
C471   C473    1.420   .     A
C471   N523    1.432   .     S
C472   N526    1.432   .     S
C472   C474    1.419   .     A
C474   C77     1.522   1_556 S
C475   C477    1.433   .     S
C475   O515    1.289   .     A
C475   O513    1.289   .     A
C476   O516    1.288   .     A
C476   C478    1.434   .     S
C476   O514    1.290   .     A
C478   C543    1.332   .     S
C478   H560    1.087   .     S
C479   H495    1.083   .     S
C479   C489    1.404   .     A
C479   C481    1.390   .     A
C480   H496    1.083   .     S
C480   C490    1.404   .     A
C480   C482    1.391   .     A
C481   H497    1.080   .     S
C481   C483    1.401   .     A
C482   C484    1.402   .     A
C482   H498    1.083   .     S
C483   C485    1.403   .     A
C484   C486    1.402   .     A
C485   C487    1.390   .     A
C485   H499    1.083   .     S
C486   H500    1.083   .     S
C486   C488    1.389   .     A
C487   H501    1.083   .     S
C487   C489    1.403   .     A
C488   C490    1.403   .     A
C488   H502    1.083   .     S
C489   C688    1.470   1_545 S
C490   C687    1.470   .     S
Cu491  Cu492   2.685   .     S
Cu491  N508    2.017   .     S
Cu491  O509    1.959   .     S
Cu491  O512    1.956   .     S
Cu491  O516    1.960   .     S
Cu491  O513    1.960   .     S
Cu492  N507    2.017   .     S
Cu492  O511    1.956   .     S
Cu492  O515    1.960   .     S
Cu492  O510    1.959   .     S
Cu492  O514    1.960   .     S
H493   C543    1.085   .     S
N517   H518    1.045   .     S
N517   H519    1.046   .     S
N520   H522    1.046   .     S
N520   H521    1.045   .     S
N523   H524    1.046   .     S
N523   H525    1.046   .     S
N526   H527    1.046   .     S
N526   H528    1.046   .     S
C529   C549    1.462   .     S
C529   O575    1.298   .     A
C529   O577    1.295   .     A
C530   C550    1.461   .     S
C530   O578    1.295   .     A
C530   O576    1.297   .     A
C531   H569    1.081   .     S
C531   C539    1.405   .     A
C531   C533    1.409   .     A
C532   H570    1.081   .     S
C532   C534    1.411   .     A
C532   C540    1.404   .     A
C533   N573    1.370   .     A
C533   N583    1.428   .     S
C534   N586    1.431   .     S
C534   N574    1.373   .     A
C535   H571    1.081   .     S
C535   N573    1.364   .     A
C535   C537    1.416   .     A
C536   C538    1.416   .     A
C536   N574    1.365   .     A
C536   H572    1.081   .     S
C537   C539    1.420   .     A
C537   N589    1.432   .     S
C538   N592    1.432   .     S
C538   C540    1.419   .     A
C540   C143    1.522   1_556 S
C541   C543    1.433   .     S
C541   O581    1.289   .     A
C541   O579    1.289   .     A
C542   O582    1.288   .     A
C542   C544    1.434   .     S
C542   O580    1.290   .     A
C544   C411    1.332   1_655 S
C544   H428    1.087   1_655 S
C545   H561    1.083   .     S
C545   C555    1.404   .     A
C545   C547    1.390   .     A
C546   H562    1.083   .     S
C546   C556    1.404   .     A
C546   C548    1.391   .     A
C547   H563    1.080   .     S
C547   C549    1.401   .     A
C548   C550    1.402   .     A
C548   H564    1.083   .     S
C549   C551    1.403   .     A
C550   C552    1.402   .     A
C551   C553    1.390   .     A
C551   H565    1.083   .     S
C552   H566    1.083   .     S
C552   C554    1.389   .     A
C553   H567    1.083   .     S
C553   C555    1.403   .     A
C554   C556    1.403   .     A
C554   H568    1.083   .     S
C555   C754    1.470   1_545 S
C556   C753    1.470   .     S
Cu557  Cu558   2.685   .     S
Cu557  N574    2.017   .     S
Cu557  O575    1.959   .     S
Cu557  O578    1.956   .     S
Cu557  O582    1.960   .     S
Cu557  O579    1.960   .     S
Cu558  N573    2.017   .     S
Cu558  O577    1.956   .     S
Cu558  O581    1.960   .     S
Cu558  O576    1.959   .     S
Cu558  O580    1.960   .     S
H559   C411    1.085   1_655 S
N583   H584    1.045   .     S
N583   H585    1.046   .     S
N586   H588    1.046   .     S
N586   H587    1.045   .     S
N589   H590    1.046   .     S
N589   H591    1.046   .     S
N592   H593    1.046   .     S
N592   H594    1.046   .     S
C595   C615    1.462   .     S
C595   O641    1.298   .     A
C595   O643    1.295   .     A
C596   C616    1.461   .     S
C596   O644    1.295   .     A
C596   O642    1.297   .     A
C597   H635    1.081   .     S
C597   C605    1.405   .     A
C597   C599    1.409   .     A
C598   H636    1.081   .     S
C598   C600    1.411   .     A
C598   C606    1.404   .     A
C599   N639    1.370   .     A
C599   N649    1.428   .     S
C600   N652    1.431   .     S
C600   N640    1.373   .     A
C601   H637    1.081   .     S
C601   N639    1.364   .     A
C601   C603    1.416   .     A
C602   C604    1.416   .     A
C602   N640    1.365   .     A
C602   H638    1.081   .     S
C603   C605    1.420   .     A
C603   N655    1.432   .     S
C604   N658    1.432   .     S
C604   C606    1.419   .     A
C606   C209    1.522   1_556 S
C607   C609    1.433   .     S
C607   O647    1.289   .     A
C607   O645    1.289   .     A
C608   O648    1.288   .     A
C608   C610    1.434   .     S
C608   O646    1.290   .     A
C609   C742    1.332   1_455 S
C609   H757    1.085   1_455 S
C610   C675    1.332   .     S
C610   H692    1.087   .     S
C611   H627    1.083   .     S
C611   C621    1.404   .     A
C611   C613    1.390   .     A
C612   H628    1.083   .     S
C612   C622    1.404   .     A
C612   C614    1.391   .     A
C613   H629    1.080   .     S
C613   C615    1.401   .     A
C614   C616    1.402   .     A
C614   H630    1.083   .     S
C615   C617    1.403   .     A
C616   C618    1.402   .     A
C617   C619    1.390   .     A
C617   H631    1.083   .     S
C618   H632    1.083   .     S
C618   C620    1.389   .     A
C619   H633    1.083   .     S
C619   C621    1.403   .     A
C620   C622    1.403   .     A
C620   H634    1.083   .     S
C622   C423    1.470   1_565 S
Cu623  Cu624   2.685   .     S
Cu623  N640    2.017   .     S
Cu623  O641    1.959   .     S
Cu623  O644    1.956   .     S
Cu623  O648    1.960   .     S
Cu623  O645    1.960   .     S
Cu624  N639    2.017   .     S
Cu624  O643    1.956   .     S
Cu624  O647    1.960   .     S
Cu624  O642    1.959   .     S
Cu624  O646    1.960   .     S
H625   C675    1.085   .     S
H626   C742    1.087   1_455 S
N649   H650    1.045   .     S
N649   H651    1.046   .     S
N652   H654    1.046   .     S
N652   H653    1.045   .     S
N655   H656    1.046   .     S
N655   H657    1.046   .     S
N658   H659    1.046   .     S
N658   H660    1.046   .     S
C661   C681    1.462   .     S
C661   O707    1.298   .     A
C661   O709    1.295   .     A
C662   C682    1.461   .     S
C662   O710    1.295   .     A
C662   O708    1.297   .     A
C663   H701    1.081   .     S
C663   C671    1.405   .     A
C663   C665    1.409   .     A
C664   H702    1.081   .     S
C664   C666    1.411   .     A
C664   C672    1.404   .     A
C665   N705    1.370   .     A
C665   N715    1.428   .     S
C666   N718    1.431   .     S
C666   N706    1.373   .     A
C667   H703    1.081   .     S
C667   N705    1.364   .     A
C667   C669    1.416   .     A
C668   C670    1.416   .     A
C668   N706    1.365   .     A
C668   H704    1.081   .     S
C669   C671    1.420   .     A
C669   N721    1.432   .     S
C670   N724    1.432   .     S
C670   C672    1.419   .     A
C672   C275    1.522   1_556 S
C673   C675    1.433   .     S
C673   O713    1.289   .     A
C673   O711    1.289   .     A
C674   O714    1.288   .     A
C674   C676    1.434   .     S
C674   O712    1.290   .     A
C676   C741    1.332   .     S
C676   H758    1.087   .     S
C677   H693    1.083   .     S
C677   C687    1.404   .     A
C677   C679    1.390   .     A
C678   H694    1.083   .     S
C678   C688    1.404   .     A
C678   C680    1.391   .     A
C679   H695    1.080   .     S
C679   C681    1.401   .     A
C680   C682    1.402   .     A
C680   H696    1.083   .     S
C681   C683    1.403   .     A
C682   C684    1.402   .     A
C683   C685    1.390   .     A
C683   H697    1.083   .     S
C684   H698    1.083   .     S
C684   C686    1.389   .     A
C685   H699    1.083   .     S
C685   C687    1.403   .     A
C686   C688    1.403   .     A
C686   H700    1.083   .     S
C688   C489    1.470   1_565 S
Cu689  Cu690   2.685   .     S
Cu689  N706    2.017   .     S
Cu689  O707    1.959   .     S
Cu689  O710    1.956   .     S
Cu689  O714    1.960   .     S
Cu689  O711    1.960   .     S
Cu690  N705    2.017   .     S
Cu690  O709    1.956   .     S
Cu690  O713    1.960   .     S
Cu690  O708    1.959   .     S
Cu690  O712    1.960   .     S
H691   C741    1.085   .     S
N715   H716    1.045   .     S
N715   H717    1.046   .     S
N718   H720    1.046   .     S
N718   H719    1.045   .     S
N721   H722    1.046   .     S
N721   H723    1.046   .     S
N724   H725    1.046   .     S
N724   H726    1.046   .     S
C727   C747    1.462   .     S
C727   O773    1.298   .     A
C727   O775    1.295   .     A
C728   C748    1.461   .     S
C728   O776    1.295   .     A
C728   O774    1.297   .     A
C729   H767    1.081   .     S
C729   C737    1.405   .     A
C729   C731    1.409   .     A
C730   H768    1.081   .     S
C730   C732    1.411   .     A
C730   C738    1.404   .     A
C731   N771    1.370   .     A
C731   N781    1.428   .     S
C732   N784    1.431   .     S
C732   N772    1.373   .     A
C733   H769    1.081   .     S
C733   N771    1.364   .     A
C733   C735    1.416   .     A
C734   C736    1.416   .     A
C734   N772    1.365   .     A
C734   H770    1.081   .     S
C735   C737    1.420   .     A
C735   N787    1.432   .     S
C736   N790    1.432   .     S
C736   C738    1.419   .     A
C738   C341    1.522   1_556 S
C739   C741    1.433   .     S
C739   O779    1.289   .     A
C739   O777    1.289   .     A
C740   O780    1.288   .     A
C740   C742    1.434   .     S
C740   O778    1.290   .     A
C742   C609    1.332   1_655 S
C742   H626    1.087   1_655 S
C743   H759    1.083   .     S
C743   C753    1.404   .     A
C743   C745    1.390   .     A
C744   H760    1.083   .     S
C744   C754    1.404   .     A
C744   C746    1.391   .     A
C745   H761    1.080   .     S
C745   C747    1.401   .     A
C746   C748    1.402   .     A
C746   H762    1.083   .     S
C747   C749    1.403   .     A
C748   C750    1.402   .     A
C749   C751    1.390   .     A
C749   H763    1.083   .     S
C750   H764    1.083   .     S
C750   C752    1.389   .     A
C751   H765    1.083   .     S
C751   C753    1.403   .     A
C752   C754    1.403   .     A
C752   H766    1.083   .     S
C754   C555    1.470   1_565 S
Cu755  Cu756   2.685   .     S
Cu755  N772    2.017   .     S
Cu755  O773    1.959   .     S
Cu755  O776    1.956   .     S
Cu755  O780    1.960   .     S
Cu755  O777    1.960   .     S
Cu756  N771    2.017   .     S
Cu756  O775    1.956   .     S
Cu756  O779    1.960   .     S
Cu756  O774    1.959   .     S
Cu756  O778    1.960   .     S
H757   C609    1.085   1_655 S
N781   H782    1.045   .     S
N781   H783    1.046   .     S
N784   H786    1.046   .     S
N784   H785    1.045   .     S
N787   H788    1.046   .     S
N787   H789    1.046   .     S
N790   H791    1.046   .     S
N790   H792    1.046   .     S
