data_str_m2_o10_o18_pcu_sym.115
_audit_creation_date              2020-01-03
_audit_creation_method            'Materials Studio'
_symmetry_space_group_name_H-M    'P1'
_symmetry_Int_Tables_number       1
_symmetry_cell_setting            triclinic
loop_
_symmetry_equiv_pos_as_xyz
  x,y,z
_cell_length_a                    22.2460
_cell_length_b                    26.0759
_cell_length_c                    31.5330
_cell_angle_alpha                 94.6691
_cell_angle_beta                  75.0189
_cell_angle_gamma                 103.2298
loop_
_atom_site_label
_atom_site_type_symbol
_atom_site_fract_x
_atom_site_fract_y
_atom_site_fract_z
_atom_site_U_iso_or_equiv
_atom_site_adp_type
_atom_site_occupancy
C1     C     0.18176   0.26677   0.25126   0.00000  Uiso   1.00
C2     C     0.15145   0.06657   0.24900   0.00000  Uiso   1.00
C3     C     0.09953   0.11538   0.03647   0.00000  Uiso   1.00
C4     C     0.24170   0.18837   0.45753   0.00000  Uiso   1.00
C5     C     0.05784   0.09778   0.00969   0.00000  Uiso   1.00
C6     C     0.28659   0.19913   0.48227   0.00000  Uiso   1.00
C7     C     0.19063   0.32271   0.25115   0.00000  Uiso   1.00
C8     C     0.14251   0.01063   0.24936   0.00000  Uiso   1.00
C9     C     0.12776   0.16141   0.33313   0.00000  Uiso   1.00
C10    C     0.20562   0.17158   0.16671   0.00000  Uiso   1.00
C11    C     0.10355   0.14949   0.38004   0.00000  Uiso   1.00
C12    C     0.22983   0.17791   0.11873   0.00000  Uiso   1.00
C13    C     0.03286   0.09283   0.43816   0.00000  Uiso   1.00
C14    C     0.31363   0.20608   0.05285   0.00000  Uiso   1.00
C15    C     0.04697   0.11188   0.39538   0.00000  Uiso   1.00
C16    C     0.29365   0.20205   0.09886   0.00000  Uiso   1.00
C17    C     0.14402   0.16910   0.40764   0.00000  Uiso   1.00
C18    C     0.18647   0.16055   0.09266   0.00000  Uiso   1.00
C19    C     0.13217   0.14946   0.44986   0.00000  Uiso   1.00
C20    C     0.20445   0.16594   0.04695   0.00000  Uiso   1.00
C21    C     0.07363   0.11372   0.46620   0.00000  Uiso   1.00
C22    C     0.26857   0.19016   0.02726   0.00000  Uiso   1.00
C23    C     0.17779   0.16321   0.47571   0.00000  Uiso   1.00
C24    C     0.16011   0.14842   0.02036   0.00000  Uiso   1.00
Cu25   Cu    0.10737   0.16108   0.24516   0.00000  Uiso   1.00
Cu26   Cu    0.22596   0.17225   0.25483   0.00000  Uiso   1.00
H27    H     0.01284   0.07131   0.02337   0.00000  Uiso   1.00
H28    H     0.00204   0.21656   0.46609   0.00000  Uiso   1.00
H29    H     0.13773   0.14444   0.10915   0.00000  Uiso   1.00
H30    H     0.18550   0.19939   0.39487   0.00000  Uiso   1.00
H31    H     0.08407   0.09985   0.06908   0.00000  Uiso   1.00
H32    H     0.25942   0.19779   0.42338   0.00000  Uiso   1.00
H33    H     0.23727   0.01315   0.25219   0.00000  Uiso   1.00
H34    H     0.09587   0.32015   0.24839   0.00000  Uiso   1.00
H35    H     0.00129   0.20514   0.28463   0.00000  Uiso   1.00
H36    H     0.33201   0.12815   0.21540   0.00000  Uiso   1.00
N37    N     0.31506   0.18068   0.26212   0.00000  Uiso   1.00
N38    N     0.01827   0.15265   0.23788   0.00000  Uiso   1.00
O39    O     0.12815   0.23809   0.24686   0.00000  Uiso   1.00
O40    O     0.20518   0.09524   0.25314   0.00000  Uiso   1.00
O41    O     0.22829   0.24753   0.25502   0.00000  Uiso   1.00
O42    O     0.10504   0.08580   0.24497   0.00000  Uiso   1.00
O43    O     0.08851   0.15930   0.30854   0.00000  Uiso   1.00
O44    O     0.24482   0.17403   0.19145   0.00000  Uiso   1.00
O45    O     0.18866   0.16874   0.31671   0.00000  Uiso   1.00
O46    O     0.14468   0.16460   0.18329   0.00000  Uiso   1.00
O47    O     0.00425   0.22023   0.12366   0.00000  Uiso   1.00
C48    C     0.32992   0.27047   0.14201   0.00000  Uiso   1.00
H49    H     0.28353   0.26799   0.16651   0.00000  Uiso   1.00
H50    H     0.33203   0.29846   0.11658   0.00000  Uiso   1.00
C51    C     0.04933   0.29307   0.16513   0.00000  Uiso   1.00
H52    H     0.09658   0.29767   0.14127   0.00000  Uiso   1.00
H53    H     0.04346   0.33219   0.18018   0.00000  Uiso   1.00
H54    H     0.04716   0.26619   0.19131   0.00000  Uiso   1.00
O55    O     0.01299   0.08602   0.36590   0.00000  Uiso   1.00
C56    C     0.28817   0.10223   0.37323   0.00000  Uiso   1.00
H57    H     0.29719   0.14416   0.36420   0.00000  Uiso   1.00
H58    H     0.26002   0.09693   0.40789   0.00000  Uiso   1.00
C59    C     0.24845   0.06874   0.34429   0.00000  Uiso   1.00
H60    H     0.20178   0.08005   0.35026   0.00000  Uiso   1.00
H61    H     0.27401   0.07463   0.30924   0.00000  Uiso   1.00
H62    H     0.23982   0.02642   0.35183   0.00000  Uiso   1.00
O63    O     0.31328   0.05238   0.45154   0.00000  Uiso   1.00
C64    C     0.33238   0.00366   0.44860   0.00000  Uiso   1.00
H65    H     0.29586   0.31030   0.47275   0.00000  Uiso   1.00
H66    H     0.04526   0.00695   0.45722   0.00000  Uiso   1.00
C67    C     0.00274   0.31120   0.40302   0.00000  Uiso   1.00
H68    H     0.04229   0.00117   0.37825   0.00000  Uiso   1.00
H69    H     0.01289   0.27148   0.40286   0.00000  Uiso   1.00
H70    H     0.29025   0.30743   0.39387   0.00000  Uiso   1.00
O71    O     0.04483   0.21964   0.03243   0.00000  Uiso   1.00
C72    C     0.06595   0.27496   0.03019   0.00000  Uiso   1.00
H73    H     0.08210   0.29047   0.06007   0.00000  Uiso   1.00
H74    H     0.02866   0.29527   0.02646   0.00000  Uiso   1.00
C75    C     0.12342   0.28840   0.49125   0.00000  Uiso   1.00
H76    H     0.11073   0.27203   0.46032   0.00000  Uiso   1.00
H77    H     0.16301   0.27175   0.49566   0.00000  Uiso   1.00
H78    H     0.13984   0.33186   0.48876   0.00000  Uiso   1.00
C79    C     0.51510   0.26677   0.25126   0.00000  Uiso   1.00
C80    C     0.48478   0.06657   0.24900   0.00000  Uiso   1.00
C81    C     0.43287   0.11538   0.03647   0.00000  Uiso   1.00
C82    C     0.57503   0.18837   0.45753   0.00000  Uiso   1.00
C83    C     0.39117   0.09778   0.00969   0.00000  Uiso   1.00
C84    C     0.61992   0.19913   0.48227   0.00000  Uiso   1.00
C85    C     0.52397   0.32271   0.25115   0.00000  Uiso   1.00
C86    C     0.47584   0.01063   0.24936   0.00000  Uiso   1.00
C87    C     0.46109   0.16141   0.33313   0.00000  Uiso   1.00
C88    C     0.53895   0.17158   0.16671   0.00000  Uiso   1.00
C89    C     0.43688   0.14949   0.38004   0.00000  Uiso   1.00
C90    C     0.56316   0.17791   0.11873   0.00000  Uiso   1.00
C91    C     0.36619   0.09283   0.43816   0.00000  Uiso   1.00
C92    C     0.64697   0.20608   0.05285   0.00000  Uiso   1.00
C93    C     0.38030   0.11188   0.39538   0.00000  Uiso   1.00
C94    C     0.62698   0.20205   0.09886   0.00000  Uiso   1.00
C95    C     0.47736   0.16910   0.40764   0.00000  Uiso   1.00
C96    C     0.51981   0.16055   0.09266   0.00000  Uiso   1.00
C97    C     0.46551   0.14946   0.44986   0.00000  Uiso   1.00
C98    C     0.53778   0.16594   0.04695   0.00000  Uiso   1.00
C99    C     0.40696   0.11372   0.46620   0.00000  Uiso   1.00
C100   C     0.60190   0.19016   0.02726   0.00000  Uiso   1.00
C101   C     0.51113   0.16321   0.47571   0.00000  Uiso   1.00
C102   C     0.49345   0.14842   0.02036   0.00000  Uiso   1.00
Cu103  Cu    0.44071   0.16108   0.24516   0.00000  Uiso   1.00
Cu104  Cu    0.55929   0.17225   0.25483   0.00000  Uiso   1.00
H105   H     0.34617   0.07131   0.02337   0.00000  Uiso   1.00
H106   H     0.33537   0.21656   0.46609   0.00000  Uiso   1.00
H107   H     0.47107   0.14444   0.10915   0.00000  Uiso   1.00
H108   H     0.51883   0.19939   0.39487   0.00000  Uiso   1.00
H109   H     0.41741   0.09985   0.06908   0.00000  Uiso   1.00
H110   H     0.59276   0.19779   0.42338   0.00000  Uiso   1.00
H111   H     0.57060   0.01315   0.25219   0.00000  Uiso   1.00
H112   H     0.42921   0.32015   0.24839   0.00000  Uiso   1.00
H113   H     0.33462   0.20514   0.28463   0.00000  Uiso   1.00
H114   H     0.66535   0.12815   0.21540   0.00000  Uiso   1.00
N115   N     0.64839   0.18068   0.26212   0.00000  Uiso   1.00
N116   N     0.35161   0.15265   0.23788   0.00000  Uiso   1.00
O117   O     0.46148   0.23809   0.24686   0.00000  Uiso   1.00
O118   O     0.53852   0.09524   0.25314   0.00000  Uiso   1.00
O119   O     0.56163   0.24753   0.25502   0.00000  Uiso   1.00
O120   O     0.43837   0.08580   0.24497   0.00000  Uiso   1.00
O121   O     0.42185   0.15930   0.30854   0.00000  Uiso   1.00
O122   O     0.57815   0.17403   0.19145   0.00000  Uiso   1.00
O123   O     0.52199   0.16874   0.31671   0.00000  Uiso   1.00
O124   O     0.47801   0.16460   0.18329   0.00000  Uiso   1.00
O125   O     0.33758   0.22023   0.12366   0.00000  Uiso   1.00
C126   C     0.66325   0.27047   0.14201   0.00000  Uiso   1.00
H127   H     0.61686   0.26799   0.16651   0.00000  Uiso   1.00
H128   H     0.66537   0.29846   0.11658   0.00000  Uiso   1.00
C129   C     0.38266   0.29307   0.16513   0.00000  Uiso   1.00
H130   H     0.42991   0.29767   0.14127   0.00000  Uiso   1.00
H131   H     0.37679   0.33219   0.18018   0.00000  Uiso   1.00
H132   H     0.38050   0.26619   0.19131   0.00000  Uiso   1.00
O133   O     0.34632   0.08602   0.36590   0.00000  Uiso   1.00
C134   C     0.62150   0.10223   0.37323   0.00000  Uiso   1.00
H135   H     0.63052   0.14416   0.36420   0.00000  Uiso   1.00
H136   H     0.59335   0.09693   0.40789   0.00000  Uiso   1.00
C137   C     0.58179   0.06874   0.34429   0.00000  Uiso   1.00
H138   H     0.53511   0.08005   0.35026   0.00000  Uiso   1.00
H139   H     0.60735   0.07463   0.30924   0.00000  Uiso   1.00
H140   H     0.57315   0.02642   0.35183   0.00000  Uiso   1.00
O141   O     0.64661   0.05238   0.45154   0.00000  Uiso   1.00
C142   C     0.66571   0.00366   0.44860   0.00000  Uiso   1.00
H143   H     0.62920   0.31030   0.47275   0.00000  Uiso   1.00
H144   H     0.37859   0.00695   0.45722   0.00000  Uiso   1.00
C145   C     0.33608   0.31120   0.40302   0.00000  Uiso   1.00
H146   H     0.37562   0.00117   0.37825   0.00000  Uiso   1.00
H147   H     0.34622   0.27148   0.40286   0.00000  Uiso   1.00
H148   H     0.62358   0.30743   0.39387   0.00000  Uiso   1.00
O149   O     0.37816   0.21964   0.03243   0.00000  Uiso   1.00
C150   C     0.39928   0.27496   0.03019   0.00000  Uiso   1.00
H151   H     0.41543   0.29047   0.06007   0.00000  Uiso   1.00
H152   H     0.36199   0.29527   0.02646   0.00000  Uiso   1.00
C153   C     0.45675   0.28840   0.49125   0.00000  Uiso   1.00
H154   H     0.44406   0.27203   0.46032   0.00000  Uiso   1.00
H155   H     0.49635   0.27175   0.49566   0.00000  Uiso   1.00
H156   H     0.47318   0.33186   0.48876   0.00000  Uiso   1.00
C157   C     0.84843   0.26677   0.25126   0.00000  Uiso   1.00
C158   C     0.81812   0.06657   0.24900   0.00000  Uiso   1.00
C159   C     0.76620   0.11538   0.03647   0.00000  Uiso   1.00
C160   C     0.90836   0.18837   0.45753   0.00000  Uiso   1.00
C161   C     0.72451   0.09778   0.00969   0.00000  Uiso   1.00
C162   C     0.95326   0.19913   0.48227   0.00000  Uiso   1.00
C163   C     0.85730   0.32271   0.25115   0.00000  Uiso   1.00
C164   C     0.80918   0.01063   0.24936   0.00000  Uiso   1.00
C165   C     0.79442   0.16141   0.33313   0.00000  Uiso   1.00
C166   C     0.87228   0.17158   0.16671   0.00000  Uiso   1.00
C167   C     0.77021   0.14949   0.38004   0.00000  Uiso   1.00
C168   C     0.89649   0.17791   0.11873   0.00000  Uiso   1.00
C169   C     0.69953   0.09283   0.43816   0.00000  Uiso   1.00
C170   C     0.98030   0.20608   0.05285   0.00000  Uiso   1.00
C171   C     0.71364   0.11188   0.39538   0.00000  Uiso   1.00
C172   C     0.96031   0.20205   0.09886   0.00000  Uiso   1.00
C173   C     0.81069   0.16910   0.40764   0.00000  Uiso   1.00
C174   C     0.85314   0.16055   0.09266   0.00000  Uiso   1.00
C175   C     0.79884   0.14946   0.44986   0.00000  Uiso   1.00
C176   C     0.87112   0.16594   0.04695   0.00000  Uiso   1.00
C177   C     0.74030   0.11372   0.46620   0.00000  Uiso   1.00
C178   C     0.93523   0.19016   0.02726   0.00000  Uiso   1.00
C179   C     0.84446   0.16321   0.47571   0.00000  Uiso   1.00
C180   C     0.82678   0.14842   0.02036   0.00000  Uiso   1.00
Cu181  Cu    0.77404   0.16108   0.24516   0.00000  Uiso   1.00
Cu182  Cu    0.89263   0.17225   0.25483   0.00000  Uiso   1.00
H183   H     0.67950   0.07131   0.02337   0.00000  Uiso   1.00
H184   H     0.66871   0.21656   0.46609   0.00000  Uiso   1.00
H185   H     0.80440   0.14444   0.10915   0.00000  Uiso   1.00
H186   H     0.85217   0.19939   0.39487   0.00000  Uiso   1.00
H187   H     0.75074   0.09985   0.06908   0.00000  Uiso   1.00
H188   H     0.92609   0.19779   0.42338   0.00000  Uiso   1.00
H189   H     0.90394   0.01315   0.25219   0.00000  Uiso   1.00
H190   H     0.76254   0.32015   0.24839   0.00000  Uiso   1.00
H191   H     0.66795   0.20514   0.28463   0.00000  Uiso   1.00
H192   H     0.99868   0.12815   0.21540   0.00000  Uiso   1.00
N193   N     0.98173   0.18068   0.26212   0.00000  Uiso   1.00
N194   N     0.68494   0.15265   0.23788   0.00000  Uiso   1.00
O195   O     0.79482   0.23809   0.24686   0.00000  Uiso   1.00
O196   O     0.87185   0.09524   0.25314   0.00000  Uiso   1.00
O197   O     0.89496   0.24753   0.25502   0.00000  Uiso   1.00
O198   O     0.77171   0.08580   0.24497   0.00000  Uiso   1.00
O199   O     0.75518   0.15930   0.30854   0.00000  Uiso   1.00
O200   O     0.91149   0.17403   0.19145   0.00000  Uiso   1.00
O201   O     0.85532   0.16874   0.31671   0.00000  Uiso   1.00
O202   O     0.81134   0.16460   0.18329   0.00000  Uiso   1.00
O203   O     0.67092   0.22023   0.12366   0.00000  Uiso   1.00
C204   C     0.99659   0.27047   0.14201   0.00000  Uiso   1.00
H205   H     0.95020   0.26799   0.16651   0.00000  Uiso   1.00
H206   H     0.99870   0.29846   0.11658   0.00000  Uiso   1.00
C207   C     0.71600   0.29307   0.16513   0.00000  Uiso   1.00
H208   H     0.76325   0.29767   0.14127   0.00000  Uiso   1.00
H209   H     0.71013   0.33219   0.18018   0.00000  Uiso   1.00
H210   H     0.71383   0.26619   0.19131   0.00000  Uiso   1.00
O211   O     0.67966   0.08602   0.36590   0.00000  Uiso   1.00
C212   C     0.95483   0.10223   0.37323   0.00000  Uiso   1.00
H213   H     0.96385   0.14416   0.36420   0.00000  Uiso   1.00
H214   H     0.92668   0.09693   0.40789   0.00000  Uiso   1.00
C215   C     0.91512   0.06874   0.34429   0.00000  Uiso   1.00
H216   H     0.86845   0.08005   0.35026   0.00000  Uiso   1.00
H217   H     0.94068   0.07463   0.30924   0.00000  Uiso   1.00
H218   H     0.90648   0.02642   0.35183   0.00000  Uiso   1.00
O219   O     0.97994   0.05238   0.45154   0.00000  Uiso   1.00
C220   C     0.99904   0.00366   0.44860   0.00000  Uiso   1.00
H221   H     0.96253   0.31030   0.47275   0.00000  Uiso   1.00
H222   H     0.71193   0.00695   0.45722   0.00000  Uiso   1.00
C223   C     0.66941   0.31120   0.40302   0.00000  Uiso   1.00
H224   H     0.70896   0.00117   0.37825   0.00000  Uiso   1.00
H225   H     0.67956   0.27148   0.40286   0.00000  Uiso   1.00
H226   H     0.95691   0.30743   0.39387   0.00000  Uiso   1.00
O227   O     0.71149   0.21964   0.03243   0.00000  Uiso   1.00
C228   C     0.73261   0.27496   0.03019   0.00000  Uiso   1.00
H229   H     0.74877   0.29047   0.06007   0.00000  Uiso   1.00
H230   H     0.69532   0.29527   0.02646   0.00000  Uiso   1.00
C231   C     0.79008   0.28840   0.49125   0.00000  Uiso   1.00
H232   H     0.77740   0.27203   0.46032   0.00000  Uiso   1.00
H233   H     0.82968   0.27175   0.49566   0.00000  Uiso   1.00
H234   H     0.80651   0.33186   0.48876   0.00000  Uiso   1.00
C235   C     0.18176   0.60010   0.25126   0.00000  Uiso   1.00
C236   C     0.15145   0.39990   0.24900   0.00000  Uiso   1.00
C237   C     0.09953   0.44871   0.03647   0.00000  Uiso   1.00
C238   C     0.24170   0.52171   0.45753   0.00000  Uiso   1.00
C239   C     0.05784   0.43111   0.00969   0.00000  Uiso   1.00
C240   C     0.28659   0.53247   0.48227   0.00000  Uiso   1.00
C241   C     0.19063   0.65605   0.25115   0.00000  Uiso   1.00
C242   C     0.14251   0.34396   0.24936   0.00000  Uiso   1.00
C243   C     0.12776   0.49474   0.33313   0.00000  Uiso   1.00
C244   C     0.20562   0.50491   0.16671   0.00000  Uiso   1.00
C245   C     0.10355   0.48283   0.38004   0.00000  Uiso   1.00
C246   C     0.22983   0.51125   0.11873   0.00000  Uiso   1.00
C247   C     0.03286   0.42616   0.43816   0.00000  Uiso   1.00
C248   C     0.31363   0.53942   0.05285   0.00000  Uiso   1.00
C249   C     0.04697   0.44521   0.39538   0.00000  Uiso   1.00
C250   C     0.29365   0.53538   0.09886   0.00000  Uiso   1.00
C251   C     0.14402   0.50243   0.40764   0.00000  Uiso   1.00
C252   C     0.18647   0.49389   0.09266   0.00000  Uiso   1.00
C253   C     0.13217   0.48280   0.44986   0.00000  Uiso   1.00
C254   C     0.20445   0.49927   0.04695   0.00000  Uiso   1.00
C255   C     0.07363   0.44705   0.46620   0.00000  Uiso   1.00
C256   C     0.26857   0.52349   0.02726   0.00000  Uiso   1.00
C257   C     0.17779   0.49654   0.47571   0.00000  Uiso   1.00
C258   C     0.16011   0.48175   0.02036   0.00000  Uiso   1.00
Cu259  Cu    0.10737   0.49441   0.24516   0.00000  Uiso   1.00
Cu260  Cu    0.22596   0.50559   0.25483   0.00000  Uiso   1.00
H261   H     0.01284   0.40464   0.02337   0.00000  Uiso   1.00
H262   H     0.00204   0.54989   0.46609   0.00000  Uiso   1.00
H263   H     0.13773   0.47777   0.10915   0.00000  Uiso   1.00
H264   H     0.18550   0.53272   0.39487   0.00000  Uiso   1.00
H265   H     0.08407   0.43318   0.06908   0.00000  Uiso   1.00
H266   H     0.25942   0.53112   0.42338   0.00000  Uiso   1.00
H267   H     0.23727   0.34649   0.25219   0.00000  Uiso   1.00
H268   H     0.09587   0.65349   0.24839   0.00000  Uiso   1.00
H269   H     0.00129   0.53847   0.28463   0.00000  Uiso   1.00
H270   H     0.33201   0.46149   0.21540   0.00000  Uiso   1.00
N271   N     0.31506   0.51401   0.26212   0.00000  Uiso   1.00
N272   N     0.01827   0.48599   0.23788   0.00000  Uiso   1.00
O273   O     0.12815   0.57142   0.24686   0.00000  Uiso   1.00
O274   O     0.20518   0.42858   0.25314   0.00000  Uiso   1.00
O275   O     0.22829   0.58086   0.25502   0.00000  Uiso   1.00
O276   O     0.10504   0.41914   0.24497   0.00000  Uiso   1.00
O277   O     0.08851   0.49263   0.30854   0.00000  Uiso   1.00
O278   O     0.24482   0.50737   0.19145   0.00000  Uiso   1.00
O279   O     0.18866   0.50207   0.31671   0.00000  Uiso   1.00
O280   O     0.14468   0.49793   0.18329   0.00000  Uiso   1.00
O281   O     0.00425   0.55356   0.12366   0.00000  Uiso   1.00
C282   C     0.32992   0.60380   0.14201   0.00000  Uiso   1.00
H283   H     0.28353   0.60133   0.16651   0.00000  Uiso   1.00
H284   H     0.33203   0.63180   0.11658   0.00000  Uiso   1.00
C285   C     0.04933   0.62640   0.16513   0.00000  Uiso   1.00
H286   H     0.09658   0.63100   0.14127   0.00000  Uiso   1.00
H287   H     0.04346   0.66553   0.18018   0.00000  Uiso   1.00
H288   H     0.04716   0.59952   0.19131   0.00000  Uiso   1.00
O289   O     0.01299   0.41935   0.36590   0.00000  Uiso   1.00
C290   C     0.28817   0.43556   0.37323   0.00000  Uiso   1.00
H291   H     0.29719   0.47749   0.36420   0.00000  Uiso   1.00
H292   H     0.26002   0.43027   0.40789   0.00000  Uiso   1.00
C293   C     0.24845   0.40207   0.34429   0.00000  Uiso   1.00
H294   H     0.20178   0.41338   0.35026   0.00000  Uiso   1.00
H295   H     0.27401   0.40797   0.30924   0.00000  Uiso   1.00
H296   H     0.23982   0.35976   0.35183   0.00000  Uiso   1.00
O297   O     0.31328   0.38572   0.45154   0.00000  Uiso   1.00
C298   C     0.33238   0.33699   0.44860   0.00000  Uiso   1.00
H299   H     0.29586   0.64363   0.47275   0.00000  Uiso   1.00
H300   H     0.04526   0.34028   0.45722   0.00000  Uiso   1.00
C301   C     0.00274   0.64453   0.40302   0.00000  Uiso   1.00
H302   H     0.04229   0.33451   0.37825   0.00000  Uiso   1.00
H303   H     0.01289   0.60481   0.40286   0.00000  Uiso   1.00
H304   H     0.29025   0.64076   0.39387   0.00000  Uiso   1.00
O305   O     0.04483   0.55298   0.03243   0.00000  Uiso   1.00
C306   C     0.06595   0.60829   0.03019   0.00000  Uiso   1.00
H307   H     0.08210   0.62380   0.06007   0.00000  Uiso   1.00
H308   H     0.02866   0.62860   0.02646   0.00000  Uiso   1.00
C309   C     0.12342   0.62174   0.49125   0.00000  Uiso   1.00
H310   H     0.11073   0.60536   0.46032   0.00000  Uiso   1.00
H311   H     0.16301   0.60508   0.49566   0.00000  Uiso   1.00
H312   H     0.13984   0.66520   0.48876   0.00000  Uiso   1.00
C313   C     0.51510   0.60010   0.25126   0.00000  Uiso   1.00
C314   C     0.48478   0.39990   0.24900   0.00000  Uiso   1.00
C315   C     0.43287   0.44871   0.03647   0.00000  Uiso   1.00
C316   C     0.57503   0.52171   0.45753   0.00000  Uiso   1.00
C317   C     0.39117   0.43111   0.00969   0.00000  Uiso   1.00
C318   C     0.61992   0.53247   0.48227   0.00000  Uiso   1.00
C319   C     0.52397   0.65605   0.25115   0.00000  Uiso   1.00
C320   C     0.47584   0.34396   0.24936   0.00000  Uiso   1.00
C321   C     0.46109   0.49474   0.33313   0.00000  Uiso   1.00
C322   C     0.53895   0.50491   0.16671   0.00000  Uiso   1.00
C323   C     0.43688   0.48283   0.38004   0.00000  Uiso   1.00
C324   C     0.56316   0.51125   0.11873   0.00000  Uiso   1.00
C325   C     0.36619   0.42616   0.43816   0.00000  Uiso   1.00
C326   C     0.64697   0.53942   0.05285   0.00000  Uiso   1.00
C327   C     0.38030   0.44521   0.39538   0.00000  Uiso   1.00
C328   C     0.62698   0.53538   0.09886   0.00000  Uiso   1.00
C329   C     0.47736   0.50243   0.40764   0.00000  Uiso   1.00
C330   C     0.51981   0.49389   0.09266   0.00000  Uiso   1.00
C331   C     0.46551   0.48280   0.44986   0.00000  Uiso   1.00
C332   C     0.53778   0.49927   0.04695   0.00000  Uiso   1.00
C333   C     0.40696   0.44705   0.46620   0.00000  Uiso   1.00
C334   C     0.60190   0.52349   0.02726   0.00000  Uiso   1.00
C335   C     0.51113   0.49654   0.47571   0.00000  Uiso   1.00
C336   C     0.49345   0.48175   0.02036   0.00000  Uiso   1.00
Cu337  Cu    0.44071   0.49441   0.24516   0.00000  Uiso   1.00
Cu338  Cu    0.55929   0.50559   0.25483   0.00000  Uiso   1.00
H339   H     0.34617   0.40464   0.02337   0.00000  Uiso   1.00
H340   H     0.33537   0.54989   0.46609   0.00000  Uiso   1.00
H341   H     0.47107   0.47777   0.10915   0.00000  Uiso   1.00
H342   H     0.51883   0.53272   0.39487   0.00000  Uiso   1.00
H343   H     0.41741   0.43318   0.06908   0.00000  Uiso   1.00
H344   H     0.59276   0.53112   0.42338   0.00000  Uiso   1.00
H345   H     0.57060   0.34649   0.25219   0.00000  Uiso   1.00
H346   H     0.42921   0.65349   0.24839   0.00000  Uiso   1.00
H347   H     0.33462   0.53847   0.28463   0.00000  Uiso   1.00
H348   H     0.66535   0.46149   0.21540   0.00000  Uiso   1.00
N349   N     0.64839   0.51401   0.26212   0.00000  Uiso   1.00
N350   N     0.35161   0.48599   0.23788   0.00000  Uiso   1.00
O351   O     0.46148   0.57142   0.24686   0.00000  Uiso   1.00
O352   O     0.53852   0.42858   0.25314   0.00000  Uiso   1.00
O353   O     0.56163   0.58086   0.25502   0.00000  Uiso   1.00
O354   O     0.43837   0.41914   0.24497   0.00000  Uiso   1.00
O355   O     0.42185   0.49263   0.30854   0.00000  Uiso   1.00
O356   O     0.57815   0.50737   0.19145   0.00000  Uiso   1.00
O357   O     0.52199   0.50207   0.31671   0.00000  Uiso   1.00
O358   O     0.47801   0.49793   0.18329   0.00000  Uiso   1.00
O359   O     0.33758   0.55356   0.12366   0.00000  Uiso   1.00
C360   C     0.66325   0.60380   0.14201   0.00000  Uiso   1.00
H361   H     0.61686   0.60133   0.16651   0.00000  Uiso   1.00
H362   H     0.66537   0.63180   0.11658   0.00000  Uiso   1.00
C363   C     0.38266   0.62640   0.16513   0.00000  Uiso   1.00
H364   H     0.42991   0.63100   0.14127   0.00000  Uiso   1.00
H365   H     0.37679   0.66553   0.18018   0.00000  Uiso   1.00
H366   H     0.38050   0.59952   0.19131   0.00000  Uiso   1.00
O367   O     0.34632   0.41935   0.36590   0.00000  Uiso   1.00
C368   C     0.62150   0.43556   0.37323   0.00000  Uiso   1.00
H369   H     0.63052   0.47749   0.36420   0.00000  Uiso   1.00
H370   H     0.59335   0.43027   0.40789   0.00000  Uiso   1.00
C371   C     0.58179   0.40207   0.34429   0.00000  Uiso   1.00
H372   H     0.53511   0.41338   0.35026   0.00000  Uiso   1.00
H373   H     0.60735   0.40797   0.30924   0.00000  Uiso   1.00
H374   H     0.57315   0.35976   0.35183   0.00000  Uiso   1.00
O375   O     0.64661   0.38572   0.45154   0.00000  Uiso   1.00
C376   C     0.66571   0.33699   0.44860   0.00000  Uiso   1.00
H377   H     0.62920   0.64363   0.47275   0.00000  Uiso   1.00
H378   H     0.37859   0.34028   0.45722   0.00000  Uiso   1.00
C379   C     0.33608   0.64453   0.40302   0.00000  Uiso   1.00
H380   H     0.37562   0.33451   0.37825   0.00000  Uiso   1.00
H381   H     0.34622   0.60481   0.40286   0.00000  Uiso   1.00
H382   H     0.62358   0.64076   0.39387   0.00000  Uiso   1.00
O383   O     0.37816   0.55298   0.03243   0.00000  Uiso   1.00
C384   C     0.39928   0.60829   0.03019   0.00000  Uiso   1.00
H385   H     0.41543   0.62380   0.06007   0.00000  Uiso   1.00
H386   H     0.36199   0.62860   0.02646   0.00000  Uiso   1.00
C387   C     0.45675   0.62174   0.49125   0.00000  Uiso   1.00
H388   H     0.44406   0.60536   0.46032   0.00000  Uiso   1.00
H389   H     0.49635   0.60508   0.49566   0.00000  Uiso   1.00
H390   H     0.47318   0.66520   0.48876   0.00000  Uiso   1.00
C391   C     0.84843   0.60010   0.25126   0.00000  Uiso   1.00
C392   C     0.81812   0.39990   0.24900   0.00000  Uiso   1.00
C393   C     0.76620   0.44871   0.03647   0.00000  Uiso   1.00
C394   C     0.90836   0.52171   0.45753   0.00000  Uiso   1.00
C395   C     0.72451   0.43111   0.00969   0.00000  Uiso   1.00
C396   C     0.95326   0.53247   0.48227   0.00000  Uiso   1.00
C397   C     0.85730   0.65605   0.25115   0.00000  Uiso   1.00
C398   C     0.80918   0.34396   0.24936   0.00000  Uiso   1.00
C399   C     0.79442   0.49474   0.33313   0.00000  Uiso   1.00
C400   C     0.87228   0.50491   0.16671   0.00000  Uiso   1.00
C401   C     0.77021   0.48283   0.38004   0.00000  Uiso   1.00
C402   C     0.89649   0.51125   0.11873   0.00000  Uiso   1.00
C403   C     0.69953   0.42616   0.43816   0.00000  Uiso   1.00
C404   C     0.98030   0.53942   0.05285   0.00000  Uiso   1.00
C405   C     0.71364   0.44521   0.39538   0.00000  Uiso   1.00
C406   C     0.96031   0.53538   0.09886   0.00000  Uiso   1.00
C407   C     0.81069   0.50243   0.40764   0.00000  Uiso   1.00
C408   C     0.85314   0.49389   0.09266   0.00000  Uiso   1.00
C409   C     0.79884   0.48280   0.44986   0.00000  Uiso   1.00
C410   C     0.87112   0.49927   0.04695   0.00000  Uiso   1.00
C411   C     0.74030   0.44705   0.46620   0.00000  Uiso   1.00
C412   C     0.93523   0.52349   0.02726   0.00000  Uiso   1.00
C413   C     0.84446   0.49654   0.47571   0.00000  Uiso   1.00
C414   C     0.82678   0.48175   0.02036   0.00000  Uiso   1.00
Cu415  Cu    0.77404   0.49441   0.24516   0.00000  Uiso   1.00
Cu416  Cu    0.89263   0.50559   0.25483   0.00000  Uiso   1.00
H417   H     0.67950   0.40464   0.02337   0.00000  Uiso   1.00
H418   H     0.66871   0.54989   0.46609   0.00000  Uiso   1.00
H419   H     0.80440   0.47777   0.10915   0.00000  Uiso   1.00
H420   H     0.85217   0.53272   0.39487   0.00000  Uiso   1.00
H421   H     0.75074   0.43318   0.06908   0.00000  Uiso   1.00
H422   H     0.92609   0.53112   0.42338   0.00000  Uiso   1.00
H423   H     0.90394   0.34649   0.25219   0.00000  Uiso   1.00
H424   H     0.76254   0.65349   0.24839   0.00000  Uiso   1.00
H425   H     0.66795   0.53847   0.28463   0.00000  Uiso   1.00
H426   H     0.99868   0.46149   0.21540   0.00000  Uiso   1.00
N427   N     0.98173   0.51401   0.26212   0.00000  Uiso   1.00
N428   N     0.68494   0.48599   0.23788   0.00000  Uiso   1.00
O429   O     0.79482   0.57142   0.24686   0.00000  Uiso   1.00
O430   O     0.87185   0.42858   0.25314   0.00000  Uiso   1.00
O431   O     0.89496   0.58086   0.25502   0.00000  Uiso   1.00
O432   O     0.77171   0.41914   0.24497   0.00000  Uiso   1.00
O433   O     0.75518   0.49263   0.30854   0.00000  Uiso   1.00
O434   O     0.91149   0.50737   0.19145   0.00000  Uiso   1.00
O435   O     0.85532   0.50207   0.31671   0.00000  Uiso   1.00
O436   O     0.81134   0.49793   0.18329   0.00000  Uiso   1.00
O437   O     0.67092   0.55356   0.12366   0.00000  Uiso   1.00
C438   C     0.99659   0.60380   0.14201   0.00000  Uiso   1.00
H439   H     0.95020   0.60133   0.16651   0.00000  Uiso   1.00
H440   H     0.99870   0.63180   0.11658   0.00000  Uiso   1.00
C441   C     0.71600   0.62640   0.16513   0.00000  Uiso   1.00
H442   H     0.76325   0.63100   0.14127   0.00000  Uiso   1.00
H443   H     0.71013   0.66553   0.18018   0.00000  Uiso   1.00
H444   H     0.71383   0.59952   0.19131   0.00000  Uiso   1.00
O445   O     0.67966   0.41935   0.36590   0.00000  Uiso   1.00
C446   C     0.95483   0.43556   0.37323   0.00000  Uiso   1.00
H447   H     0.96385   0.47749   0.36420   0.00000  Uiso   1.00
H448   H     0.92668   0.43027   0.40789   0.00000  Uiso   1.00
C449   C     0.91512   0.40207   0.34429   0.00000  Uiso   1.00
H450   H     0.86845   0.41338   0.35026   0.00000  Uiso   1.00
H451   H     0.94068   0.40797   0.30924   0.00000  Uiso   1.00
H452   H     0.90648   0.35976   0.35183   0.00000  Uiso   1.00
O453   O     0.97994   0.38572   0.45154   0.00000  Uiso   1.00
C454   C     0.99904   0.33699   0.44860   0.00000  Uiso   1.00
H455   H     0.96253   0.64363   0.47275   0.00000  Uiso   1.00
H456   H     0.71193   0.34028   0.45722   0.00000  Uiso   1.00
C457   C     0.66941   0.64453   0.40302   0.00000  Uiso   1.00
H458   H     0.70896   0.33451   0.37825   0.00000  Uiso   1.00
H459   H     0.67956   0.60481   0.40286   0.00000  Uiso   1.00
H460   H     0.95691   0.64076   0.39387   0.00000  Uiso   1.00
O461   O     0.71149   0.55298   0.03243   0.00000  Uiso   1.00
C462   C     0.73261   0.60829   0.03019   0.00000  Uiso   1.00
H463   H     0.74877   0.62380   0.06007   0.00000  Uiso   1.00
H464   H     0.69532   0.62860   0.02646   0.00000  Uiso   1.00
C465   C     0.79008   0.62174   0.49125   0.00000  Uiso   1.00
H466   H     0.77740   0.60536   0.46032   0.00000  Uiso   1.00
H467   H     0.82968   0.60508   0.49566   0.00000  Uiso   1.00
H468   H     0.80651   0.66520   0.48876   0.00000  Uiso   1.00
C469   C     0.18176   0.93343   0.25126   0.00000  Uiso   1.00
C470   C     0.15145   0.73323   0.24900   0.00000  Uiso   1.00
C471   C     0.09953   0.78205   0.03647   0.00000  Uiso   1.00
C472   C     0.24170   0.85504   0.45753   0.00000  Uiso   1.00
C473   C     0.05784   0.76444   0.00969   0.00000  Uiso   1.00
C474   C     0.28659   0.86580   0.48227   0.00000  Uiso   1.00
C475   C     0.19063   0.98938   0.25115   0.00000  Uiso   1.00
C476   C     0.14251   0.67729   0.24936   0.00000  Uiso   1.00
C477   C     0.12776   0.82807   0.33313   0.00000  Uiso   1.00
C478   C     0.20562   0.83825   0.16671   0.00000  Uiso   1.00
C479   C     0.10355   0.81616   0.38004   0.00000  Uiso   1.00
C480   C     0.22983   0.84458   0.11873   0.00000  Uiso   1.00
C481   C     0.03286   0.75950   0.43816   0.00000  Uiso   1.00
C482   C     0.31363   0.87275   0.05285   0.00000  Uiso   1.00
C483   C     0.04697   0.77855   0.39538   0.00000  Uiso   1.00
C484   C     0.29365   0.86872   0.09886   0.00000  Uiso   1.00
C485   C     0.14402   0.83577   0.40764   0.00000  Uiso   1.00
C486   C     0.18647   0.82722   0.09266   0.00000  Uiso   1.00
C487   C     0.13217   0.81613   0.44986   0.00000  Uiso   1.00
C488   C     0.20445   0.83260   0.04695   0.00000  Uiso   1.00
C489   C     0.07363   0.78039   0.46620   0.00000  Uiso   1.00
C490   C     0.26857   0.85682   0.02726   0.00000  Uiso   1.00
C491   C     0.17779   0.82988   0.47571   0.00000  Uiso   1.00
C492   C     0.16011   0.81509   0.02036   0.00000  Uiso   1.00
Cu493  Cu    0.10737   0.82775   0.24516   0.00000  Uiso   1.00
Cu494  Cu    0.22596   0.83892   0.25483   0.00000  Uiso   1.00
H495   H     0.01284   0.73797   0.02337   0.00000  Uiso   1.00
H496   H     0.00204   0.88322   0.46609   0.00000  Uiso   1.00
H497   H     0.13773   0.81111   0.10915   0.00000  Uiso   1.00
H498   H     0.18550   0.86606   0.39487   0.00000  Uiso   1.00
H499   H     0.08407   0.76652   0.06908   0.00000  Uiso   1.00
H500   H     0.25942   0.86445   0.42338   0.00000  Uiso   1.00
H501   H     0.23727   0.67982   0.25219   0.00000  Uiso   1.00
H502   H     0.09587   0.98682   0.24839   0.00000  Uiso   1.00
H503   H     0.00129   0.87180   0.28463   0.00000  Uiso   1.00
H504   H     0.33201   0.79482   0.21540   0.00000  Uiso   1.00
N505   N     0.31506   0.84735   0.26212   0.00000  Uiso   1.00
N506   N     0.01827   0.81932   0.23788   0.00000  Uiso   1.00
O507   O     0.12815   0.90476   0.24686   0.00000  Uiso   1.00
O508   O     0.20518   0.76191   0.25314   0.00000  Uiso   1.00
O509   O     0.22829   0.91420   0.25502   0.00000  Uiso   1.00
O510   O     0.10504   0.75247   0.24497   0.00000  Uiso   1.00
O511   O     0.08851   0.82597   0.30854   0.00000  Uiso   1.00
O512   O     0.24482   0.84070   0.19145   0.00000  Uiso   1.00
O513   O     0.18866   0.83540   0.31671   0.00000  Uiso   1.00
O514   O     0.14468   0.83126   0.18329   0.00000  Uiso   1.00
O515   O     0.00425   0.88690   0.12366   0.00000  Uiso   1.00
C516   C     0.32992   0.93713   0.14201   0.00000  Uiso   1.00
H517   H     0.28353   0.93466   0.16651   0.00000  Uiso   1.00
H518   H     0.33203   0.96513   0.11658   0.00000  Uiso   1.00
C519   C     0.04933   0.95973   0.16513   0.00000  Uiso   1.00
H520   H     0.09658   0.96433   0.14127   0.00000  Uiso   1.00
H521   H     0.04346   0.99886   0.18018   0.00000  Uiso   1.00
H522   H     0.04716   0.93286   0.19131   0.00000  Uiso   1.00
O523   O     0.01299   0.75268   0.36590   0.00000  Uiso   1.00
C524   C     0.28817   0.76890   0.37323   0.00000  Uiso   1.00
H525   H     0.29719   0.81083   0.36420   0.00000  Uiso   1.00
H526   H     0.26002   0.76360   0.40789   0.00000  Uiso   1.00
C527   C     0.24845   0.73541   0.34429   0.00000  Uiso   1.00
H528   H     0.20178   0.74672   0.35026   0.00000  Uiso   1.00
H529   H     0.27401   0.74130   0.30924   0.00000  Uiso   1.00
H530   H     0.23982   0.69309   0.35183   0.00000  Uiso   1.00
O531   O     0.31328   0.71905   0.45154   0.00000  Uiso   1.00
C532   C     0.33238   0.67032   0.44860   0.00000  Uiso   1.00
H533   H     0.29586   0.97697   0.47275   0.00000  Uiso   1.00
H534   H     0.04526   0.67362   0.45722   0.00000  Uiso   1.00
C535   C     0.00274   0.97787   0.40302   0.00000  Uiso   1.00
H536   H     0.04229   0.66784   0.37825   0.00000  Uiso   1.00
H537   H     0.01289   0.93815   0.40286   0.00000  Uiso   1.00
H538   H     0.29025   0.97409   0.39387   0.00000  Uiso   1.00
O539   O     0.04483   0.88631   0.03243   0.00000  Uiso   1.00
C540   C     0.06595   0.94163   0.03019   0.00000  Uiso   1.00
H541   H     0.08210   0.95714   0.06007   0.00000  Uiso   1.00
H542   H     0.02866   0.96193   0.02646   0.00000  Uiso   1.00
C543   C     0.12342   0.95507   0.49125   0.00000  Uiso   1.00
H544   H     0.11073   0.93870   0.46032   0.00000  Uiso   1.00
H545   H     0.16301   0.93842   0.49566   0.00000  Uiso   1.00
H546   H     0.13984   0.99853   0.48876   0.00000  Uiso   1.00
C547   C     0.51510   0.93343   0.25126   0.00000  Uiso   1.00
C548   C     0.48478   0.73323   0.24900   0.00000  Uiso   1.00
C549   C     0.43287   0.78205   0.03647   0.00000  Uiso   1.00
C550   C     0.57503   0.85504   0.45753   0.00000  Uiso   1.00
C551   C     0.39117   0.76444   0.00969   0.00000  Uiso   1.00
C552   C     0.61992   0.86580   0.48227   0.00000  Uiso   1.00
C553   C     0.52397   0.98938   0.25115   0.00000  Uiso   1.00
C554   C     0.47584   0.67729   0.24936   0.00000  Uiso   1.00
C555   C     0.46109   0.82807   0.33313   0.00000  Uiso   1.00
C556   C     0.53895   0.83825   0.16671   0.00000  Uiso   1.00
C557   C     0.43688   0.81616   0.38004   0.00000  Uiso   1.00
C558   C     0.56316   0.84458   0.11873   0.00000  Uiso   1.00
C559   C     0.36619   0.75950   0.43816   0.00000  Uiso   1.00
C560   C     0.64697   0.87275   0.05285   0.00000  Uiso   1.00
C561   C     0.38030   0.77855   0.39538   0.00000  Uiso   1.00
C562   C     0.62698   0.86872   0.09886   0.00000  Uiso   1.00
C563   C     0.47736   0.83577   0.40764   0.00000  Uiso   1.00
C564   C     0.51981   0.82722   0.09266   0.00000  Uiso   1.00
C565   C     0.46551   0.81613   0.44986   0.00000  Uiso   1.00
C566   C     0.53778   0.83260   0.04695   0.00000  Uiso   1.00
C567   C     0.40696   0.78039   0.46620   0.00000  Uiso   1.00
C568   C     0.60190   0.85682   0.02726   0.00000  Uiso   1.00
C569   C     0.51113   0.82988   0.47571   0.00000  Uiso   1.00
C570   C     0.49345   0.81509   0.02036   0.00000  Uiso   1.00
Cu571  Cu    0.44071   0.82775   0.24516   0.00000  Uiso   1.00
Cu572  Cu    0.55929   0.83892   0.25483   0.00000  Uiso   1.00
H573   H     0.34617   0.73797   0.02337   0.00000  Uiso   1.00
H574   H     0.33537   0.88322   0.46609   0.00000  Uiso   1.00
H575   H     0.47107   0.81111   0.10915   0.00000  Uiso   1.00
H576   H     0.51883   0.86606   0.39487   0.00000  Uiso   1.00
H577   H     0.41741   0.76652   0.06908   0.00000  Uiso   1.00
H578   H     0.59276   0.86445   0.42338   0.00000  Uiso   1.00
H579   H     0.57060   0.67982   0.25219   0.00000  Uiso   1.00
H580   H     0.42921   0.98682   0.24839   0.00000  Uiso   1.00
H581   H     0.33462   0.87180   0.28463   0.00000  Uiso   1.00
H582   H     0.66535   0.79482   0.21540   0.00000  Uiso   1.00
N583   N     0.64839   0.84735   0.26212   0.00000  Uiso   1.00
N584   N     0.35161   0.81932   0.23788   0.00000  Uiso   1.00
O585   O     0.46148   0.90476   0.24686   0.00000  Uiso   1.00
O586   O     0.53852   0.76191   0.25314   0.00000  Uiso   1.00
O587   O     0.56163   0.91420   0.25502   0.00000  Uiso   1.00
O588   O     0.43837   0.75247   0.24497   0.00000  Uiso   1.00
O589   O     0.42185   0.82597   0.30854   0.00000  Uiso   1.00
O590   O     0.57815   0.84070   0.19145   0.00000  Uiso   1.00
O591   O     0.52199   0.83540   0.31671   0.00000  Uiso   1.00
O592   O     0.47801   0.83126   0.18329   0.00000  Uiso   1.00
O593   O     0.33758   0.88690   0.12366   0.00000  Uiso   1.00
C594   C     0.66325   0.93713   0.14201   0.00000  Uiso   1.00
H595   H     0.61686   0.93466   0.16651   0.00000  Uiso   1.00
H596   H     0.66537   0.96513   0.11658   0.00000  Uiso   1.00
C597   C     0.38266   0.95973   0.16513   0.00000  Uiso   1.00
H598   H     0.42991   0.96433   0.14127   0.00000  Uiso   1.00
H599   H     0.37679   0.99886   0.18018   0.00000  Uiso   1.00
H600   H     0.38050   0.93286   0.19131   0.00000  Uiso   1.00
O601   O     0.34632   0.75268   0.36590   0.00000  Uiso   1.00
C602   C     0.62150   0.76890   0.37323   0.00000  Uiso   1.00
H603   H     0.63052   0.81083   0.36420   0.00000  Uiso   1.00
H604   H     0.59335   0.76360   0.40789   0.00000  Uiso   1.00
C605   C     0.58179   0.73541   0.34429   0.00000  Uiso   1.00
H606   H     0.53511   0.74672   0.35026   0.00000  Uiso   1.00
H607   H     0.60735   0.74130   0.30924   0.00000  Uiso   1.00
H608   H     0.57315   0.69309   0.35183   0.00000  Uiso   1.00
O609   O     0.64661   0.71905   0.45154   0.00000  Uiso   1.00
C610   C     0.66571   0.67032   0.44860   0.00000  Uiso   1.00
H611   H     0.62920   0.97697   0.47275   0.00000  Uiso   1.00
H612   H     0.37859   0.67362   0.45722   0.00000  Uiso   1.00
C613   C     0.33608   0.97787   0.40302   0.00000  Uiso   1.00
H614   H     0.37562   0.66784   0.37825   0.00000  Uiso   1.00
H615   H     0.34622   0.93815   0.40286   0.00000  Uiso   1.00
H616   H     0.62358   0.97409   0.39387   0.00000  Uiso   1.00
O617   O     0.37816   0.88631   0.03243   0.00000  Uiso   1.00
C618   C     0.39928   0.94163   0.03019   0.00000  Uiso   1.00
H619   H     0.41543   0.95714   0.06007   0.00000  Uiso   1.00
H620   H     0.36199   0.96193   0.02646   0.00000  Uiso   1.00
C621   C     0.45675   0.95507   0.49125   0.00000  Uiso   1.00
H622   H     0.44406   0.93870   0.46032   0.00000  Uiso   1.00
H623   H     0.49635   0.93842   0.49566   0.00000  Uiso   1.00
H624   H     0.47318   0.99853   0.48876   0.00000  Uiso   1.00
C625   C     0.84843   0.93343   0.25126   0.00000  Uiso   1.00
C626   C     0.81812   0.73323   0.24900   0.00000  Uiso   1.00
C627   C     0.76620   0.78205   0.03647   0.00000  Uiso   1.00
C628   C     0.90836   0.85504   0.45753   0.00000  Uiso   1.00
C629   C     0.72451   0.76444   0.00969   0.00000  Uiso   1.00
C630   C     0.95326   0.86580   0.48227   0.00000  Uiso   1.00
C631   C     0.85730   0.98938   0.25115   0.00000  Uiso   1.00
C632   C     0.80918   0.67729   0.24936   0.00000  Uiso   1.00
C633   C     0.79442   0.82807   0.33313   0.00000  Uiso   1.00
C634   C     0.87228   0.83825   0.16671   0.00000  Uiso   1.00
C635   C     0.77021   0.81616   0.38004   0.00000  Uiso   1.00
C636   C     0.89649   0.84458   0.11873   0.00000  Uiso   1.00
C637   C     0.69953   0.75950   0.43816   0.00000  Uiso   1.00
C638   C     0.98030   0.87275   0.05285   0.00000  Uiso   1.00
C639   C     0.71364   0.77855   0.39538   0.00000  Uiso   1.00
C640   C     0.96031   0.86872   0.09886   0.00000  Uiso   1.00
C641   C     0.81069   0.83577   0.40764   0.00000  Uiso   1.00
C642   C     0.85314   0.82722   0.09266   0.00000  Uiso   1.00
C643   C     0.79884   0.81613   0.44986   0.00000  Uiso   1.00
C644   C     0.87112   0.83260   0.04695   0.00000  Uiso   1.00
C645   C     0.74030   0.78039   0.46620   0.00000  Uiso   1.00
C646   C     0.93523   0.85682   0.02726   0.00000  Uiso   1.00
C647   C     0.84446   0.82988   0.47571   0.00000  Uiso   1.00
C648   C     0.82678   0.81509   0.02036   0.00000  Uiso   1.00
Cu649  Cu    0.77404   0.82775   0.24516   0.00000  Uiso   1.00
Cu650  Cu    0.89263   0.83892   0.25483   0.00000  Uiso   1.00
H651   H     0.67950   0.73797   0.02337   0.00000  Uiso   1.00
H652   H     0.66871   0.88322   0.46609   0.00000  Uiso   1.00
H653   H     0.80440   0.81111   0.10915   0.00000  Uiso   1.00
H654   H     0.85217   0.86606   0.39487   0.00000  Uiso   1.00
H655   H     0.75074   0.76652   0.06908   0.00000  Uiso   1.00
H656   H     0.92609   0.86445   0.42338   0.00000  Uiso   1.00
H657   H     0.90394   0.67982   0.25219   0.00000  Uiso   1.00
H658   H     0.76254   0.98682   0.24839   0.00000  Uiso   1.00
H659   H     0.66795   0.87180   0.28463   0.00000  Uiso   1.00
H660   H     0.99868   0.79482   0.21540   0.00000  Uiso   1.00
N661   N     0.98173   0.84735   0.26212   0.00000  Uiso   1.00
N662   N     0.68494   0.81932   0.23788   0.00000  Uiso   1.00
O663   O     0.79482   0.90476   0.24686   0.00000  Uiso   1.00
O664   O     0.87185   0.76191   0.25314   0.00000  Uiso   1.00
O665   O     0.89496   0.91420   0.25502   0.00000  Uiso   1.00
O666   O     0.77171   0.75247   0.24497   0.00000  Uiso   1.00
O667   O     0.75518   0.82597   0.30854   0.00000  Uiso   1.00
O668   O     0.91149   0.84070   0.19145   0.00000  Uiso   1.00
O669   O     0.85532   0.83540   0.31671   0.00000  Uiso   1.00
O670   O     0.81134   0.83126   0.18329   0.00000  Uiso   1.00
O671   O     0.67092   0.88690   0.12366   0.00000  Uiso   1.00
C672   C     0.99659   0.93713   0.14201   0.00000  Uiso   1.00
H673   H     0.95020   0.93466   0.16651   0.00000  Uiso   1.00
H674   H     0.99870   0.96513   0.11658   0.00000  Uiso   1.00
C675   C     0.71600   0.95973   0.16513   0.00000  Uiso   1.00
H676   H     0.76325   0.96433   0.14127   0.00000  Uiso   1.00
H677   H     0.71013   0.99886   0.18018   0.00000  Uiso   1.00
H678   H     0.71383   0.93286   0.19131   0.00000  Uiso   1.00
O679   O     0.67966   0.75268   0.36590   0.00000  Uiso   1.00
C680   C     0.95483   0.76890   0.37323   0.00000  Uiso   1.00
H681   H     0.96385   0.81083   0.36420   0.00000  Uiso   1.00
H682   H     0.92668   0.76360   0.40789   0.00000  Uiso   1.00
C683   C     0.91512   0.73541   0.34429   0.00000  Uiso   1.00
H684   H     0.86845   0.74672   0.35026   0.00000  Uiso   1.00
H685   H     0.94068   0.74130   0.30924   0.00000  Uiso   1.00
H686   H     0.90648   0.69309   0.35183   0.00000  Uiso   1.00
O687   O     0.97994   0.71905   0.45154   0.00000  Uiso   1.00
C688   C     0.99904   0.67032   0.44860   0.00000  Uiso   1.00
H689   H     0.96253   0.97697   0.47275   0.00000  Uiso   1.00
H690   H     0.71193   0.67362   0.45722   0.00000  Uiso   1.00
C691   C     0.66941   0.97787   0.40302   0.00000  Uiso   1.00
H692   H     0.70896   0.66784   0.37825   0.00000  Uiso   1.00
H693   H     0.67956   0.93815   0.40286   0.00000  Uiso   1.00
H694   H     0.95691   0.97409   0.39387   0.00000  Uiso   1.00
O695   O     0.71149   0.88631   0.03243   0.00000  Uiso   1.00
C696   C     0.73261   0.94163   0.03019   0.00000  Uiso   1.00
H697   H     0.74877   0.95714   0.06007   0.00000  Uiso   1.00
H698   H     0.69532   0.96193   0.02646   0.00000  Uiso   1.00
C699   C     0.79008   0.95507   0.49125   0.00000  Uiso   1.00
H700   H     0.77740   0.93870   0.46032   0.00000  Uiso   1.00
H701   H     0.82968   0.93842   0.49566   0.00000  Uiso   1.00
H702   H     0.80651   0.99853   0.48876   0.00000  Uiso   1.00
C703   C     0.18176   0.26677   0.75126   0.00000  Uiso   1.00
C704   C     0.15145   0.06657   0.74900   0.00000  Uiso   1.00
C705   C     0.09953   0.11538   0.53647   0.00000  Uiso   1.00
C706   C     0.24170   0.18837   0.95753   0.00000  Uiso   1.00
C707   C     0.05784   0.09778   0.50969   0.00000  Uiso   1.00
C708   C     0.28659   0.19913   0.98227   0.00000  Uiso   1.00
C709   C     0.19063   0.32271   0.75115   0.00000  Uiso   1.00
C710   C     0.14251   0.01063   0.74936   0.00000  Uiso   1.00
C711   C     0.12776   0.16141   0.83313   0.00000  Uiso   1.00
C712   C     0.20562   0.17158   0.66671   0.00000  Uiso   1.00
C713   C     0.10355   0.14949   0.88004   0.00000  Uiso   1.00
C714   C     0.22983   0.17791   0.61873   0.00000  Uiso   1.00
C715   C     0.03286   0.09283   0.93816   0.00000  Uiso   1.00
C716   C     0.31363   0.20608   0.55285   0.00000  Uiso   1.00
C717   C     0.04697   0.11188   0.89538   0.00000  Uiso   1.00
C718   C     0.29365   0.20205   0.59886   0.00000  Uiso   1.00
C719   C     0.14402   0.16910   0.90764   0.00000  Uiso   1.00
C720   C     0.18647   0.16055   0.59266   0.00000  Uiso   1.00
C721   C     0.13217   0.14946   0.94986   0.00000  Uiso   1.00
C722   C     0.20445   0.16594   0.54695   0.00000  Uiso   1.00
C723   C     0.07363   0.11372   0.96620   0.00000  Uiso   1.00
C724   C     0.26857   0.19016   0.52726   0.00000  Uiso   1.00
C725   C     0.17779   0.16321   0.97571   0.00000  Uiso   1.00
C726   C     0.16011   0.14842   0.52036   0.00000  Uiso   1.00
Cu727  Cu    0.10737   0.16108   0.74516   0.00000  Uiso   1.00
Cu728  Cu    0.22596   0.17225   0.75483   0.00000  Uiso   1.00
H729   H     0.01284   0.07131   0.52337   0.00000  Uiso   1.00
H730   H     0.00204   0.21656   0.96609   0.00000  Uiso   1.00
H731   H     0.13773   0.14444   0.60915   0.00000  Uiso   1.00
H732   H     0.18550   0.19939   0.89487   0.00000  Uiso   1.00
H733   H     0.08407   0.09985   0.56908   0.00000  Uiso   1.00
H734   H     0.25942   0.19779   0.92338   0.00000  Uiso   1.00
H735   H     0.23727   0.01315   0.75219   0.00000  Uiso   1.00
H736   H     0.09587   0.32015   0.74839   0.00000  Uiso   1.00
H737   H     0.00129   0.20514   0.78463   0.00000  Uiso   1.00
H738   H     0.33201   0.12815   0.71540   0.00000  Uiso   1.00
N739   N     0.31506   0.18068   0.76212   0.00000  Uiso   1.00
N740   N     0.01827   0.15265   0.73788   0.00000  Uiso   1.00
O741   O     0.12815   0.23809   0.74686   0.00000  Uiso   1.00
O742   O     0.20518   0.09524   0.75314   0.00000  Uiso   1.00
O743   O     0.22829   0.24753   0.75502   0.00000  Uiso   1.00
O744   O     0.10504   0.08580   0.74497   0.00000  Uiso   1.00
O745   O     0.08851   0.15930   0.80854   0.00000  Uiso   1.00
O746   O     0.24482   0.17403   0.69145   0.00000  Uiso   1.00
O747   O     0.18866   0.16874   0.81671   0.00000  Uiso   1.00
O748   O     0.14468   0.16460   0.68329   0.00000  Uiso   1.00
O749   O     0.00425   0.22023   0.62366   0.00000  Uiso   1.00
C750   C     0.32992   0.27047   0.64201   0.00000  Uiso   1.00
H751   H     0.28353   0.26799   0.66651   0.00000  Uiso   1.00
H752   H     0.33203   0.29846   0.61658   0.00000  Uiso   1.00
C753   C     0.04933   0.29307   0.66513   0.00000  Uiso   1.00
H754   H     0.09658   0.29767   0.64127   0.00000  Uiso   1.00
H755   H     0.04346   0.33219   0.68018   0.00000  Uiso   1.00
H756   H     0.04716   0.26619   0.69131   0.00000  Uiso   1.00
O757   O     0.01299   0.08602   0.86590   0.00000  Uiso   1.00
C758   C     0.28817   0.10223   0.87323   0.00000  Uiso   1.00
H759   H     0.29719   0.14416   0.86420   0.00000  Uiso   1.00
H760   H     0.26002   0.09693   0.90789   0.00000  Uiso   1.00
C761   C     0.24845   0.06874   0.84429   0.00000  Uiso   1.00
H762   H     0.20178   0.08005   0.85026   0.00000  Uiso   1.00
H763   H     0.27401   0.07463   0.80924   0.00000  Uiso   1.00
H764   H     0.23982   0.02642   0.85183   0.00000  Uiso   1.00
O765   O     0.31328   0.05238   0.95154   0.00000  Uiso   1.00
C766   C     0.33238   0.00366   0.94860   0.00000  Uiso   1.00
H767   H     0.29586   0.31030   0.97275   0.00000  Uiso   1.00
H768   H     0.04526   0.00695   0.95722   0.00000  Uiso   1.00
C769   C     0.00274   0.31120   0.90302   0.00000  Uiso   1.00
H770   H     0.04229   0.00117   0.87825   0.00000  Uiso   1.00
H771   H     0.01289   0.27148   0.90286   0.00000  Uiso   1.00
H772   H     0.29025   0.30743   0.89387   0.00000  Uiso   1.00
O773   O     0.04483   0.21964   0.53243   0.00000  Uiso   1.00
C774   C     0.06595   0.27496   0.53019   0.00000  Uiso   1.00
H775   H     0.08210   0.29047   0.56007   0.00000  Uiso   1.00
H776   H     0.02866   0.29527   0.52646   0.00000  Uiso   1.00
C777   C     0.12342   0.28840   0.99125   0.00000  Uiso   1.00
H778   H     0.11073   0.27203   0.96032   0.00000  Uiso   1.00
H779   H     0.16301   0.27175   0.99566   0.00000  Uiso   1.00
H780   H     0.13984   0.33186   0.98876   0.00000  Uiso   1.00
C781   C     0.51510   0.26677   0.75126   0.00000  Uiso   1.00
C782   C     0.48478   0.06657   0.74900   0.00000  Uiso   1.00
C783   C     0.43287   0.11538   0.53647   0.00000  Uiso   1.00
C784   C     0.57503   0.18837   0.95753   0.00000  Uiso   1.00
C785   C     0.39117   0.09778   0.50969   0.00000  Uiso   1.00
C786   C     0.61992   0.19913   0.98227   0.00000  Uiso   1.00
C787   C     0.52397   0.32271   0.75115   0.00000  Uiso   1.00
C788   C     0.47584   0.01063   0.74936   0.00000  Uiso   1.00
C789   C     0.46109   0.16141   0.83313   0.00000  Uiso   1.00
C790   C     0.53895   0.17158   0.66671   0.00000  Uiso   1.00
C791   C     0.43688   0.14949   0.88004   0.00000  Uiso   1.00
C792   C     0.56316   0.17791   0.61873   0.00000  Uiso   1.00
C793   C     0.36619   0.09283   0.93816   0.00000  Uiso   1.00
C794   C     0.64697   0.20608   0.55285   0.00000  Uiso   1.00
C795   C     0.38030   0.11188   0.89538   0.00000  Uiso   1.00
C796   C     0.62698   0.20205   0.59886   0.00000  Uiso   1.00
C797   C     0.47736   0.16910   0.90764   0.00000  Uiso   1.00
C798   C     0.51981   0.16055   0.59266   0.00000  Uiso   1.00
C799   C     0.46551   0.14946   0.94986   0.00000  Uiso   1.00
C800   C     0.53778   0.16594   0.54695   0.00000  Uiso   1.00
C801   C     0.40696   0.11372   0.96620   0.00000  Uiso   1.00
C802   C     0.60190   0.19016   0.52726   0.00000  Uiso   1.00
C803   C     0.51113   0.16321   0.97571   0.00000  Uiso   1.00
C804   C     0.49345   0.14842   0.52036   0.00000  Uiso   1.00
Cu805  Cu    0.44071   0.16108   0.74516   0.00000  Uiso   1.00
Cu806  Cu    0.55929   0.17225   0.75483   0.00000  Uiso   1.00
H807   H     0.34617   0.07131   0.52337   0.00000  Uiso   1.00
H808   H     0.33537   0.21656   0.96609   0.00000  Uiso   1.00
H809   H     0.47107   0.14444   0.60915   0.00000  Uiso   1.00
H810   H     0.51883   0.19939   0.89487   0.00000  Uiso   1.00
H811   H     0.41741   0.09985   0.56908   0.00000  Uiso   1.00
H812   H     0.59276   0.19779   0.92338   0.00000  Uiso   1.00
H813   H     0.57060   0.01315   0.75219   0.00000  Uiso   1.00
H814   H     0.42921   0.32015   0.74839   0.00000  Uiso   1.00
H815   H     0.33462   0.20514   0.78463   0.00000  Uiso   1.00
H816   H     0.66535   0.12815   0.71540   0.00000  Uiso   1.00
N817   N     0.64839   0.18068   0.76212   0.00000  Uiso   1.00
N818   N     0.35161   0.15265   0.73788   0.00000  Uiso   1.00
O819   O     0.46148   0.23809   0.74686   0.00000  Uiso   1.00
O820   O     0.53852   0.09524   0.75314   0.00000  Uiso   1.00
O821   O     0.56163   0.24753   0.75502   0.00000  Uiso   1.00
O822   O     0.43837   0.08580   0.74497   0.00000  Uiso   1.00
O823   O     0.42185   0.15930   0.80854   0.00000  Uiso   1.00
O824   O     0.57815   0.17403   0.69145   0.00000  Uiso   1.00
O825   O     0.52199   0.16874   0.81671   0.00000  Uiso   1.00
O826   O     0.47801   0.16460   0.68329   0.00000  Uiso   1.00
O827   O     0.33758   0.22023   0.62366   0.00000  Uiso   1.00
C828   C     0.66325   0.27047   0.64201   0.00000  Uiso   1.00
H829   H     0.61686   0.26799   0.66651   0.00000  Uiso   1.00
H830   H     0.66537   0.29846   0.61658   0.00000  Uiso   1.00
C831   C     0.38266   0.29307   0.66513   0.00000  Uiso   1.00
H832   H     0.42991   0.29767   0.64127   0.00000  Uiso   1.00
H833   H     0.37679   0.33219   0.68018   0.00000  Uiso   1.00
H834   H     0.38050   0.26619   0.69131   0.00000  Uiso   1.00
O835   O     0.34632   0.08602   0.86590   0.00000  Uiso   1.00
C836   C     0.62150   0.10223   0.87323   0.00000  Uiso   1.00
H837   H     0.63052   0.14416   0.86420   0.00000  Uiso   1.00
H838   H     0.59335   0.09693   0.90789   0.00000  Uiso   1.00
C839   C     0.58179   0.06874   0.84429   0.00000  Uiso   1.00
H840   H     0.53511   0.08005   0.85026   0.00000  Uiso   1.00
H841   H     0.60735   0.07463   0.80924   0.00000  Uiso   1.00
H842   H     0.57315   0.02642   0.85183   0.00000  Uiso   1.00
O843   O     0.64661   0.05238   0.95154   0.00000  Uiso   1.00
C844   C     0.66571   0.00366   0.94860   0.00000  Uiso   1.00
H845   H     0.62920   0.31030   0.97275   0.00000  Uiso   1.00
H846   H     0.37859   0.00695   0.95722   0.00000  Uiso   1.00
C847   C     0.33608   0.31120   0.90302   0.00000  Uiso   1.00
H848   H     0.37562   0.00117   0.87825   0.00000  Uiso   1.00
H849   H     0.34622   0.27148   0.90286   0.00000  Uiso   1.00
H850   H     0.62358   0.30743   0.89387   0.00000  Uiso   1.00
O851   O     0.37816   0.21964   0.53243   0.00000  Uiso   1.00
C852   C     0.39928   0.27496   0.53019   0.00000  Uiso   1.00
H853   H     0.41543   0.29047   0.56007   0.00000  Uiso   1.00
H854   H     0.36199   0.29527   0.52646   0.00000  Uiso   1.00
C855   C     0.45675   0.28840   0.99125   0.00000  Uiso   1.00
H856   H     0.44406   0.27203   0.96032   0.00000  Uiso   1.00
H857   H     0.49635   0.27175   0.99566   0.00000  Uiso   1.00
H858   H     0.47318   0.33186   0.98876   0.00000  Uiso   1.00
C859   C     0.84843   0.26677   0.75126   0.00000  Uiso   1.00
C860   C     0.81812   0.06657   0.74900   0.00000  Uiso   1.00
C861   C     0.76620   0.11538   0.53647   0.00000  Uiso   1.00
C862   C     0.90836   0.18837   0.95753   0.00000  Uiso   1.00
C863   C     0.72451   0.09778   0.50969   0.00000  Uiso   1.00
C864   C     0.95326   0.19913   0.98227   0.00000  Uiso   1.00
C865   C     0.85730   0.32271   0.75115   0.00000  Uiso   1.00
C866   C     0.80918   0.01063   0.74936   0.00000  Uiso   1.00
C867   C     0.79442   0.16141   0.83313   0.00000  Uiso   1.00
C868   C     0.87228   0.17158   0.66671   0.00000  Uiso   1.00
C869   C     0.77021   0.14949   0.88004   0.00000  Uiso   1.00
C870   C     0.89649   0.17791   0.61873   0.00000  Uiso   1.00
C871   C     0.69953   0.09283   0.93816   0.00000  Uiso   1.00
C872   C     0.98030   0.20608   0.55285   0.00000  Uiso   1.00
C873   C     0.71364   0.11188   0.89538   0.00000  Uiso   1.00
C874   C     0.96031   0.20205   0.59886   0.00000  Uiso   1.00
C875   C     0.81069   0.16910   0.90764   0.00000  Uiso   1.00
C876   C     0.85314   0.16055   0.59266   0.00000  Uiso   1.00
C877   C     0.79884   0.14946   0.94986   0.00000  Uiso   1.00
C878   C     0.87112   0.16594   0.54695   0.00000  Uiso   1.00
C879   C     0.74030   0.11372   0.96620   0.00000  Uiso   1.00
C880   C     0.93523   0.19016   0.52726   0.00000  Uiso   1.00
C881   C     0.84446   0.16321   0.97571   0.00000  Uiso   1.00
C882   C     0.82678   0.14842   0.52036   0.00000  Uiso   1.00
Cu883  Cu    0.77404   0.16108   0.74516   0.00000  Uiso   1.00
Cu884  Cu    0.89263   0.17225   0.75483   0.00000  Uiso   1.00
H885   H     0.67950   0.07131   0.52337   0.00000  Uiso   1.00
H886   H     0.66871   0.21656   0.96609   0.00000  Uiso   1.00
H887   H     0.80440   0.14444   0.60915   0.00000  Uiso   1.00
H888   H     0.85217   0.19939   0.89487   0.00000  Uiso   1.00
H889   H     0.75074   0.09985   0.56908   0.00000  Uiso   1.00
H890   H     0.92609   0.19779   0.92338   0.00000  Uiso   1.00
H891   H     0.90394   0.01315   0.75219   0.00000  Uiso   1.00
H892   H     0.76254   0.32015   0.74839   0.00000  Uiso   1.00
H893   H     0.66795   0.20514   0.78463   0.00000  Uiso   1.00
H894   H     0.99868   0.12815   0.71540   0.00000  Uiso   1.00
N895   N     0.98173   0.18068   0.76212   0.00000  Uiso   1.00
N896   N     0.68494   0.15265   0.73788   0.00000  Uiso   1.00
O897   O     0.79482   0.23809   0.74686   0.00000  Uiso   1.00
O898   O     0.87185   0.09524   0.75314   0.00000  Uiso   1.00
O899   O     0.89496   0.24753   0.75502   0.00000  Uiso   1.00
O900   O     0.77171   0.08580   0.74497   0.00000  Uiso   1.00
O901   O     0.75518   0.15930   0.80854   0.00000  Uiso   1.00
O902   O     0.91149   0.17403   0.69145   0.00000  Uiso   1.00
O903   O     0.85532   0.16874   0.81671   0.00000  Uiso   1.00
O904   O     0.81134   0.16460   0.68329   0.00000  Uiso   1.00
O905   O     0.67092   0.22023   0.62366   0.00000  Uiso   1.00
C906   C     0.99659   0.27047   0.64201   0.00000  Uiso   1.00
H907   H     0.95020   0.26799   0.66651   0.00000  Uiso   1.00
H908   H     0.99870   0.29846   0.61658   0.00000  Uiso   1.00
C909   C     0.71600   0.29307   0.66513   0.00000  Uiso   1.00
H910   H     0.76325   0.29767   0.64127   0.00000  Uiso   1.00
H911   H     0.71013   0.33219   0.68018   0.00000  Uiso   1.00
H912   H     0.71383   0.26619   0.69131   0.00000  Uiso   1.00
O913   O     0.67966   0.08602   0.86590   0.00000  Uiso   1.00
C914   C     0.95483   0.10223   0.87323   0.00000  Uiso   1.00
H915   H     0.96385   0.14416   0.86420   0.00000  Uiso   1.00
H916   H     0.92668   0.09693   0.90789   0.00000  Uiso   1.00
C917   C     0.91512   0.06874   0.84429   0.00000  Uiso   1.00
H918   H     0.86845   0.08005   0.85026   0.00000  Uiso   1.00
H919   H     0.94068   0.07463   0.80924   0.00000  Uiso   1.00
H920   H     0.90648   0.02642   0.85183   0.00000  Uiso   1.00
O921   O     0.97994   0.05238   0.95154   0.00000  Uiso   1.00
C922   C     0.99904   0.00366   0.94860   0.00000  Uiso   1.00
H923   H     0.96253   0.31030   0.97275   0.00000  Uiso   1.00
H924   H     0.71193   0.00695   0.95722   0.00000  Uiso   1.00
C925   C     0.66941   0.31120   0.90302   0.00000  Uiso   1.00
H926   H     0.70896   0.00117   0.87825   0.00000  Uiso   1.00
H927   H     0.67956   0.27148   0.90286   0.00000  Uiso   1.00
H928   H     0.95691   0.30743   0.89387   0.00000  Uiso   1.00
O929   O     0.71149   0.21964   0.53243   0.00000  Uiso   1.00
C930   C     0.73261   0.27496   0.53019   0.00000  Uiso   1.00
H931   H     0.74877   0.29047   0.56007   0.00000  Uiso   1.00
H932   H     0.69532   0.29527   0.52646   0.00000  Uiso   1.00
C933   C     0.79008   0.28840   0.99125   0.00000  Uiso   1.00
H934   H     0.77740   0.27203   0.96032   0.00000  Uiso   1.00
H935   H     0.82968   0.27175   0.99566   0.00000  Uiso   1.00
H936   H     0.80651   0.33186   0.98876   0.00000  Uiso   1.00
C937   C     0.18176   0.60010   0.75126   0.00000  Uiso   1.00
C938   C     0.15145   0.39990   0.74900   0.00000  Uiso   1.00
C939   C     0.09953   0.44871   0.53647   0.00000  Uiso   1.00
C940   C     0.24170   0.52171   0.95753   0.00000  Uiso   1.00
C941   C     0.05784   0.43111   0.50969   0.00000  Uiso   1.00
C942   C     0.28659   0.53247   0.98227   0.00000  Uiso   1.00
C943   C     0.19063   0.65605   0.75115   0.00000  Uiso   1.00
C944   C     0.14251   0.34396   0.74936   0.00000  Uiso   1.00
C945   C     0.12776   0.49474   0.83313   0.00000  Uiso   1.00
C946   C     0.20562   0.50491   0.66671   0.00000  Uiso   1.00
C947   C     0.10355   0.48283   0.88004   0.00000  Uiso   1.00
C948   C     0.22983   0.51125   0.61873   0.00000  Uiso   1.00
C949   C     0.03286   0.42616   0.93816   0.00000  Uiso   1.00
C950   C     0.31363   0.53942   0.55285   0.00000  Uiso   1.00
C951   C     0.04697   0.44521   0.89538   0.00000  Uiso   1.00
C952   C     0.29365   0.53538   0.59886   0.00000  Uiso   1.00
C953   C     0.14402   0.50243   0.90764   0.00000  Uiso   1.00
C954   C     0.18647   0.49389   0.59266   0.00000  Uiso   1.00
C955   C     0.13217   0.48280   0.94986   0.00000  Uiso   1.00
C956   C     0.20445   0.49927   0.54695   0.00000  Uiso   1.00
C957   C     0.07363   0.44705   0.96620   0.00000  Uiso   1.00
C958   C     0.26857   0.52349   0.52726   0.00000  Uiso   1.00
C959   C     0.17779   0.49654   0.97571   0.00000  Uiso   1.00
C960   C     0.16011   0.48175   0.52036   0.00000  Uiso   1.00
Cu961  Cu    0.10737   0.49441   0.74516   0.00000  Uiso   1.00
Cu962  Cu    0.22596   0.50559   0.75483   0.00000  Uiso   1.00
H963   H     0.01284   0.40464   0.52337   0.00000  Uiso   1.00
H964   H     0.00204   0.54989   0.96609   0.00000  Uiso   1.00
H965   H     0.13773   0.47777   0.60915   0.00000  Uiso   1.00
H966   H     0.18550   0.53272   0.89487   0.00000  Uiso   1.00
H967   H     0.08407   0.43318   0.56908   0.00000  Uiso   1.00
H968   H     0.25942   0.53112   0.92338   0.00000  Uiso   1.00
H969   H     0.23727   0.34649   0.75219   0.00000  Uiso   1.00
H970   H     0.09587   0.65349   0.74839   0.00000  Uiso   1.00
H971   H     0.00129   0.53847   0.78463   0.00000  Uiso   1.00
H972   H     0.33201   0.46149   0.71540   0.00000  Uiso   1.00
N973   N     0.31506   0.51401   0.76212   0.00000  Uiso   1.00
N974   N     0.01827   0.48599   0.73788   0.00000  Uiso   1.00
O975   O     0.12815   0.57142   0.74686   0.00000  Uiso   1.00
O976   O     0.20518   0.42858   0.75314   0.00000  Uiso   1.00
O977   O     0.22829   0.58086   0.75502   0.00000  Uiso   1.00
O978   O     0.10504   0.41914   0.74497   0.00000  Uiso   1.00
O979   O     0.08851   0.49263   0.80854   0.00000  Uiso   1.00
O980   O     0.24482   0.50737   0.69145   0.00000  Uiso   1.00
O981   O     0.18866   0.50207   0.81671   0.00000  Uiso   1.00
O982   O     0.14468   0.49793   0.68329   0.00000  Uiso   1.00
O983   O     0.00425   0.55356   0.62366   0.00000  Uiso   1.00
C984   C     0.32992   0.60380   0.64201   0.00000  Uiso   1.00
H985   H     0.28353   0.60133   0.66651   0.00000  Uiso   1.00
H986   H     0.33203   0.63180   0.61658   0.00000  Uiso   1.00
C987   C     0.04933   0.62640   0.66513   0.00000  Uiso   1.00
H988   H     0.09658   0.63100   0.64127   0.00000  Uiso   1.00
H989   H     0.04346   0.66553   0.68018   0.00000  Uiso   1.00
H990   H     0.04716   0.59952   0.69131   0.00000  Uiso   1.00
O991   O     0.01299   0.41935   0.86590   0.00000  Uiso   1.00
C992   C     0.28817   0.43556   0.87323   0.00000  Uiso   1.00
H993   H     0.29719   0.47749   0.86420   0.00000  Uiso   1.00
H994   H     0.26002   0.43027   0.90789   0.00000  Uiso   1.00
C995   C     0.24845   0.40207   0.84429   0.00000  Uiso   1.00
H996   H     0.20178   0.41338   0.85026   0.00000  Uiso   1.00
H997   H     0.27401   0.40797   0.80924   0.00000  Uiso   1.00
H998   H     0.23982   0.35976   0.85183   0.00000  Uiso   1.00
O999   O     0.31328   0.38572   0.95154   0.00000  Uiso   1.00
C1000  C     0.33238   0.33699   0.94860   0.00000  Uiso   1.00
H1001  H     0.29586   0.64363   0.97275   0.00000  Uiso   1.00
H1002  H     0.04526   0.34028   0.95722   0.00000  Uiso   1.00
C1003  C     0.00274   0.64453   0.90302   0.00000  Uiso   1.00
H1004  H     0.04229   0.33451   0.87825   0.00000  Uiso   1.00
H1005  H     0.01289   0.60481   0.90286   0.00000  Uiso   1.00
H1006  H     0.29025   0.64076   0.89387   0.00000  Uiso   1.00
O1007  O     0.04483   0.55298   0.53243   0.00000  Uiso   1.00
C1008  C     0.06595   0.60829   0.53019   0.00000  Uiso   1.00
H1009  H     0.08210   0.62380   0.56007   0.00000  Uiso   1.00
H1010  H     0.02866   0.62860   0.52646   0.00000  Uiso   1.00
C1011  C     0.12342   0.62174   0.99125   0.00000  Uiso   1.00
H1012  H     0.11073   0.60536   0.96032   0.00000  Uiso   1.00
H1013  H     0.16301   0.60508   0.99566   0.00000  Uiso   1.00
H1014  H     0.13984   0.66520   0.98876   0.00000  Uiso   1.00
C1015  C     0.51510   0.60010   0.75126   0.00000  Uiso   1.00
C1016  C     0.48478   0.39990   0.74900   0.00000  Uiso   1.00
C1017  C     0.43287   0.44871   0.53647   0.00000  Uiso   1.00
C1018  C     0.57503   0.52171   0.95753   0.00000  Uiso   1.00
C1019  C     0.39117   0.43111   0.50969   0.00000  Uiso   1.00
C1020  C     0.61992   0.53247   0.98227   0.00000  Uiso   1.00
C1021  C     0.52397   0.65605   0.75115   0.00000  Uiso   1.00
C1022  C     0.47584   0.34396   0.74936   0.00000  Uiso   1.00
C1023  C     0.46109   0.49474   0.83313   0.00000  Uiso   1.00
C1024  C     0.53895   0.50491   0.66671   0.00000  Uiso   1.00
C1025  C     0.43688   0.48283   0.88004   0.00000  Uiso   1.00
C1026  C     0.56316   0.51125   0.61873   0.00000  Uiso   1.00
C1027  C     0.36619   0.42616   0.93816   0.00000  Uiso   1.00
C1028  C     0.64697   0.53942   0.55285   0.00000  Uiso   1.00
C1029  C     0.38030   0.44521   0.89538   0.00000  Uiso   1.00
C1030  C     0.62698   0.53538   0.59886   0.00000  Uiso   1.00
C1031  C     0.47736   0.50243   0.90764   0.00000  Uiso   1.00
C1032  C     0.51981   0.49389   0.59266   0.00000  Uiso   1.00
C1033  C     0.46551   0.48280   0.94986   0.00000  Uiso   1.00
C1034  C     0.53778   0.49927   0.54695   0.00000  Uiso   1.00
C1035  C     0.40696   0.44705   0.96620   0.00000  Uiso   1.00
C1036  C     0.60190   0.52349   0.52726   0.00000  Uiso   1.00
C1037  C     0.51113   0.49654   0.97571   0.00000  Uiso   1.00
C1038  C     0.49345   0.48175   0.52036   0.00000  Uiso   1.00
Cu1039 Cu    0.44071   0.49441   0.74516   0.00000  Uiso   1.00
Cu1040 Cu    0.55929   0.50559   0.75483   0.00000  Uiso   1.00
H1041  H     0.34617   0.40464   0.52337   0.00000  Uiso   1.00
H1042  H     0.33537   0.54989   0.96609   0.00000  Uiso   1.00
H1043  H     0.47107   0.47777   0.60915   0.00000  Uiso   1.00
H1044  H     0.51883   0.53272   0.89487   0.00000  Uiso   1.00
H1045  H     0.41741   0.43318   0.56908   0.00000  Uiso   1.00
H1046  H     0.59276   0.53112   0.92338   0.00000  Uiso   1.00
H1047  H     0.57060   0.34649   0.75219   0.00000  Uiso   1.00
H1048  H     0.42921   0.65349   0.74839   0.00000  Uiso   1.00
H1049  H     0.33462   0.53847   0.78463   0.00000  Uiso   1.00
H1050  H     0.66535   0.46149   0.71540   0.00000  Uiso   1.00
N1051  N     0.64839   0.51401   0.76212   0.00000  Uiso   1.00
N1052  N     0.35161   0.48599   0.73788   0.00000  Uiso   1.00
O1053  O     0.46148   0.57142   0.74686   0.00000  Uiso   1.00
O1054  O     0.53852   0.42858   0.75314   0.00000  Uiso   1.00
O1055  O     0.56163   0.58086   0.75502   0.00000  Uiso   1.00
O1056  O     0.43837   0.41914   0.74497   0.00000  Uiso   1.00
O1057  O     0.42185   0.49263   0.80854   0.00000  Uiso   1.00
O1058  O     0.57815   0.50737   0.69145   0.00000  Uiso   1.00
O1059  O     0.52199   0.50207   0.81671   0.00000  Uiso   1.00
O1060  O     0.47801   0.49793   0.68329   0.00000  Uiso   1.00
O1061  O     0.33758   0.55356   0.62366   0.00000  Uiso   1.00
C1062  C     0.66325   0.60380   0.64201   0.00000  Uiso   1.00
H1063  H     0.61686   0.60133   0.66651   0.00000  Uiso   1.00
H1064  H     0.66537   0.63180   0.61658   0.00000  Uiso   1.00
C1065  C     0.38266   0.62640   0.66513   0.00000  Uiso   1.00
H1066  H     0.42991   0.63100   0.64127   0.00000  Uiso   1.00
H1067  H     0.37679   0.66553   0.68018   0.00000  Uiso   1.00
H1068  H     0.38050   0.59952   0.69131   0.00000  Uiso   1.00
O1069  O     0.34632   0.41935   0.86590   0.00000  Uiso   1.00
C1070  C     0.62150   0.43556   0.87323   0.00000  Uiso   1.00
H1071  H     0.63052   0.47749   0.86420   0.00000  Uiso   1.00
H1072  H     0.59335   0.43027   0.90789   0.00000  Uiso   1.00
C1073  C     0.58179   0.40207   0.84429   0.00000  Uiso   1.00
H1074  H     0.53511   0.41338   0.85026   0.00000  Uiso   1.00
H1075  H     0.60735   0.40797   0.80924   0.00000  Uiso   1.00
H1076  H     0.57315   0.35976   0.85183   0.00000  Uiso   1.00
O1077  O     0.64661   0.38572   0.95154   0.00000  Uiso   1.00
C1078  C     0.66571   0.33699   0.94860   0.00000  Uiso   1.00
H1079  H     0.62920   0.64363   0.97275   0.00000  Uiso   1.00
H1080  H     0.37859   0.34028   0.95722   0.00000  Uiso   1.00
C1081  C     0.33608   0.64453   0.90302   0.00000  Uiso   1.00
H1082  H     0.37562   0.33451   0.87825   0.00000  Uiso   1.00
H1083  H     0.34622   0.60481   0.90286   0.00000  Uiso   1.00
H1084  H     0.62358   0.64076   0.89387   0.00000  Uiso   1.00
O1085  O     0.37816   0.55298   0.53243   0.00000  Uiso   1.00
C1086  C     0.39928   0.60829   0.53019   0.00000  Uiso   1.00
H1087  H     0.41543   0.62380   0.56007   0.00000  Uiso   1.00
H1088  H     0.36199   0.62860   0.52646   0.00000  Uiso   1.00
C1089  C     0.45675   0.62174   0.99125   0.00000  Uiso   1.00
H1090  H     0.44406   0.60536   0.96032   0.00000  Uiso   1.00
H1091  H     0.49635   0.60508   0.99566   0.00000  Uiso   1.00
H1092  H     0.47318   0.66520   0.98876   0.00000  Uiso   1.00
C1093  C     0.84843   0.60010   0.75126   0.00000  Uiso   1.00
C1094  C     0.81812   0.39990   0.74900   0.00000  Uiso   1.00
C1095  C     0.76620   0.44871   0.53647   0.00000  Uiso   1.00
C1096  C     0.90836   0.52171   0.95753   0.00000  Uiso   1.00
C1097  C     0.72451   0.43111   0.50969   0.00000  Uiso   1.00
C1098  C     0.95326   0.53247   0.98227   0.00000  Uiso   1.00
C1099  C     0.85730   0.65605   0.75115   0.00000  Uiso   1.00
C1100  C     0.80918   0.34396   0.74936   0.00000  Uiso   1.00
C1101  C     0.79442   0.49474   0.83313   0.00000  Uiso   1.00
C1102  C     0.87228   0.50491   0.66671   0.00000  Uiso   1.00
C1103  C     0.77021   0.48283   0.88004   0.00000  Uiso   1.00
C1104  C     0.89649   0.51125   0.61873   0.00000  Uiso   1.00
C1105  C     0.69953   0.42616   0.93816   0.00000  Uiso   1.00
C1106  C     0.98030   0.53942   0.55285   0.00000  Uiso   1.00
C1107  C     0.71364   0.44521   0.89538   0.00000  Uiso   1.00
C1108  C     0.96031   0.53538   0.59886   0.00000  Uiso   1.00
C1109  C     0.81069   0.50243   0.90764   0.00000  Uiso   1.00
C1110  C     0.85314   0.49389   0.59266   0.00000  Uiso   1.00
C1111  C     0.79884   0.48280   0.94986   0.00000  Uiso   1.00
C1112  C     0.87112   0.49927   0.54695   0.00000  Uiso   1.00
C1113  C     0.74030   0.44705   0.96620   0.00000  Uiso   1.00
C1114  C     0.93523   0.52349   0.52726   0.00000  Uiso   1.00
C1115  C     0.84446   0.49654   0.97571   0.00000  Uiso   1.00
C1116  C     0.82678   0.48175   0.52036   0.00000  Uiso   1.00
Cu1117 Cu    0.77404   0.49441   0.74516   0.00000  Uiso   1.00
Cu1118 Cu    0.89263   0.50559   0.75483   0.00000  Uiso   1.00
H1119  H     0.67950   0.40464   0.52337   0.00000  Uiso   1.00
H1120  H     0.66871   0.54989   0.96609   0.00000  Uiso   1.00
H1121  H     0.80440   0.47777   0.60915   0.00000  Uiso   1.00
H1122  H     0.85217   0.53272   0.89487   0.00000  Uiso   1.00
H1123  H     0.75074   0.43318   0.56908   0.00000  Uiso   1.00
H1124  H     0.92609   0.53112   0.92338   0.00000  Uiso   1.00
H1125  H     0.90394   0.34649   0.75219   0.00000  Uiso   1.00
H1126  H     0.76254   0.65349   0.74839   0.00000  Uiso   1.00
H1127  H     0.66795   0.53847   0.78463   0.00000  Uiso   1.00
H1128  H     0.99868   0.46149   0.71540   0.00000  Uiso   1.00
N1129  N     0.98173   0.51401   0.76212   0.00000  Uiso   1.00
N1130  N     0.68494   0.48599   0.73788   0.00000  Uiso   1.00
O1131  O     0.79482   0.57142   0.74686   0.00000  Uiso   1.00
O1132  O     0.87185   0.42858   0.75314   0.00000  Uiso   1.00
O1133  O     0.89496   0.58086   0.75502   0.00000  Uiso   1.00
O1134  O     0.77171   0.41914   0.74497   0.00000  Uiso   1.00
O1135  O     0.75518   0.49263   0.80854   0.00000  Uiso   1.00
O1136  O     0.91149   0.50737   0.69145   0.00000  Uiso   1.00
O1137  O     0.85532   0.50207   0.81671   0.00000  Uiso   1.00
O1138  O     0.81134   0.49793   0.68329   0.00000  Uiso   1.00
O1139  O     0.67092   0.55356   0.62366   0.00000  Uiso   1.00
C1140  C     0.99659   0.60380   0.64201   0.00000  Uiso   1.00
H1141  H     0.95020   0.60133   0.66651   0.00000  Uiso   1.00
H1142  H     0.99870   0.63180   0.61658   0.00000  Uiso   1.00
C1143  C     0.71600   0.62640   0.66513   0.00000  Uiso   1.00
H1144  H     0.76325   0.63100   0.64127   0.00000  Uiso   1.00
H1145  H     0.71013   0.66553   0.68018   0.00000  Uiso   1.00
H1146  H     0.71383   0.59952   0.69131   0.00000  Uiso   1.00
O1147  O     0.67966   0.41935   0.86590   0.00000  Uiso   1.00
C1148  C     0.95483   0.43556   0.87323   0.00000  Uiso   1.00
H1149  H     0.96385   0.47749   0.86420   0.00000  Uiso   1.00
H1150  H     0.92668   0.43027   0.90789   0.00000  Uiso   1.00
C1151  C     0.91512   0.40207   0.84429   0.00000  Uiso   1.00
H1152  H     0.86845   0.41338   0.85026   0.00000  Uiso   1.00
H1153  H     0.94068   0.40797   0.80924   0.00000  Uiso   1.00
H1154  H     0.90648   0.35976   0.85183   0.00000  Uiso   1.00
O1155  O     0.97994   0.38572   0.95154   0.00000  Uiso   1.00
C1156  C     0.99904   0.33699   0.94860   0.00000  Uiso   1.00
H1157  H     0.96253   0.64363   0.97275   0.00000  Uiso   1.00
H1158  H     0.71193   0.34028   0.95722   0.00000  Uiso   1.00
C1159  C     0.66941   0.64453   0.90302   0.00000  Uiso   1.00
H1160  H     0.70896   0.33451   0.87825   0.00000  Uiso   1.00
H1161  H     0.67956   0.60481   0.90286   0.00000  Uiso   1.00
H1162  H     0.95691   0.64076   0.89387   0.00000  Uiso   1.00
O1163  O     0.71149   0.55298   0.53243   0.00000  Uiso   1.00
C1164  C     0.73261   0.60829   0.53019   0.00000  Uiso   1.00
H1165  H     0.74877   0.62380   0.56007   0.00000  Uiso   1.00
H1166  H     0.69532   0.62860   0.52646   0.00000  Uiso   1.00
C1167  C     0.79008   0.62174   0.99125   0.00000  Uiso   1.00
H1168  H     0.77740   0.60536   0.96032   0.00000  Uiso   1.00
H1169  H     0.82968   0.60508   0.99566   0.00000  Uiso   1.00
H1170  H     0.80651   0.66520   0.98876   0.00000  Uiso   1.00
C1171  C     0.18176   0.93343   0.75126   0.00000  Uiso   1.00
C1172  C     0.15145   0.73323   0.74900   0.00000  Uiso   1.00
C1173  C     0.09953   0.78205   0.53647   0.00000  Uiso   1.00
C1174  C     0.24170   0.85504   0.95753   0.00000  Uiso   1.00
C1175  C     0.05784   0.76444   0.50969   0.00000  Uiso   1.00
C1176  C     0.28659   0.86580   0.98227   0.00000  Uiso   1.00
C1177  C     0.19063   0.98938   0.75115   0.00000  Uiso   1.00
C1178  C     0.14251   0.67729   0.74936   0.00000  Uiso   1.00
C1179  C     0.12776   0.82807   0.83313   0.00000  Uiso   1.00
C1180  C     0.20562   0.83825   0.66671   0.00000  Uiso   1.00
C1181  C     0.10355   0.81616   0.88004   0.00000  Uiso   1.00
C1182  C     0.22983   0.84458   0.61873   0.00000  Uiso   1.00
C1183  C     0.03286   0.75950   0.93816   0.00000  Uiso   1.00
C1184  C     0.31363   0.87275   0.55285   0.00000  Uiso   1.00
C1185  C     0.04697   0.77855   0.89538   0.00000  Uiso   1.00
C1186  C     0.29365   0.86872   0.59886   0.00000  Uiso   1.00
C1187  C     0.14402   0.83577   0.90764   0.00000  Uiso   1.00
C1188  C     0.18647   0.82722   0.59266   0.00000  Uiso   1.00
C1189  C     0.13217   0.81613   0.94986   0.00000  Uiso   1.00
C1190  C     0.20445   0.83260   0.54695   0.00000  Uiso   1.00
C1191  C     0.07363   0.78039   0.96620   0.00000  Uiso   1.00
C1192  C     0.26857   0.85682   0.52726   0.00000  Uiso   1.00
C1193  C     0.17779   0.82988   0.97571   0.00000  Uiso   1.00
C1194  C     0.16011   0.81509   0.52036   0.00000  Uiso   1.00
Cu1195 Cu    0.10737   0.82775   0.74516   0.00000  Uiso   1.00
Cu1196 Cu    0.22596   0.83892   0.75483   0.00000  Uiso   1.00
H1197  H     0.01284   0.73797   0.52337   0.00000  Uiso   1.00
H1198  H     0.00204   0.88322   0.96609   0.00000  Uiso   1.00
H1199  H     0.13773   0.81111   0.60915   0.00000  Uiso   1.00
H1200  H     0.18550   0.86606   0.89487   0.00000  Uiso   1.00
H1201  H     0.08407   0.76652   0.56908   0.00000  Uiso   1.00
H1202  H     0.25942   0.86445   0.92338   0.00000  Uiso   1.00
H1203  H     0.23727   0.67982   0.75219   0.00000  Uiso   1.00
H1204  H     0.09587   0.98682   0.74839   0.00000  Uiso   1.00
H1205  H     0.00129   0.87180   0.78463   0.00000  Uiso   1.00
H1206  H     0.33201   0.79482   0.71540   0.00000  Uiso   1.00
N1207  N     0.31506   0.84735   0.76212   0.00000  Uiso   1.00
N1208  N     0.01827   0.81932   0.73788   0.00000  Uiso   1.00
O1209  O     0.12815   0.90476   0.74686   0.00000  Uiso   1.00
O1210  O     0.20518   0.76191   0.75314   0.00000  Uiso   1.00
O1211  O     0.22829   0.91420   0.75502   0.00000  Uiso   1.00
O1212  O     0.10504   0.75247   0.74497   0.00000  Uiso   1.00
O1213  O     0.08851   0.82597   0.80854   0.00000  Uiso   1.00
O1214  O     0.24482   0.84070   0.69145   0.00000  Uiso   1.00
O1215  O     0.18866   0.83540   0.81671   0.00000  Uiso   1.00
O1216  O     0.14468   0.83126   0.68329   0.00000  Uiso   1.00
O1217  O     0.00425   0.88690   0.62366   0.00000  Uiso   1.00
C1218  C     0.32992   0.93713   0.64201   0.00000  Uiso   1.00
H1219  H     0.28353   0.93466   0.66651   0.00000  Uiso   1.00
H1220  H     0.33203   0.96513   0.61658   0.00000  Uiso   1.00
C1221  C     0.04933   0.95973   0.66513   0.00000  Uiso   1.00
H1222  H     0.09658   0.96433   0.64127   0.00000  Uiso   1.00
H1223  H     0.04346   0.99886   0.68018   0.00000  Uiso   1.00
H1224  H     0.04716   0.93286   0.69131   0.00000  Uiso   1.00
O1225  O     0.01299   0.75268   0.86590   0.00000  Uiso   1.00
C1226  C     0.28817   0.76890   0.87323   0.00000  Uiso   1.00
H1227  H     0.29719   0.81083   0.86420   0.00000  Uiso   1.00
H1228  H     0.26002   0.76360   0.90789   0.00000  Uiso   1.00
C1229  C     0.24845   0.73541   0.84429   0.00000  Uiso   1.00
H1230  H     0.20178   0.74672   0.85026   0.00000  Uiso   1.00
H1231  H     0.27401   0.74130   0.80924   0.00000  Uiso   1.00
H1232  H     0.23982   0.69309   0.85183   0.00000  Uiso   1.00
O1233  O     0.31328   0.71905   0.95154   0.00000  Uiso   1.00
C1234  C     0.33238   0.67032   0.94860   0.00000  Uiso   1.00
H1235  H     0.29586   0.97697   0.97275   0.00000  Uiso   1.00
H1236  H     0.04526   0.67362   0.95722   0.00000  Uiso   1.00
C1237  C     0.00274   0.97787   0.90302   0.00000  Uiso   1.00
H1238  H     0.04229   0.66784   0.87825   0.00000  Uiso   1.00
H1239  H     0.01289   0.93815   0.90286   0.00000  Uiso   1.00
H1240  H     0.29025   0.97409   0.89387   0.00000  Uiso   1.00
O1241  O     0.04483   0.88631   0.53243   0.00000  Uiso   1.00
C1242  C     0.06595   0.94163   0.53019   0.00000  Uiso   1.00
H1243  H     0.08210   0.95714   0.56007   0.00000  Uiso   1.00
H1244  H     0.02866   0.96193   0.52646   0.00000  Uiso   1.00
C1245  C     0.12342   0.95507   0.99125   0.00000  Uiso   1.00
H1246  H     0.11073   0.93870   0.96032   0.00000  Uiso   1.00
H1247  H     0.16301   0.93842   0.99566   0.00000  Uiso   1.00
H1248  H     0.13984   0.99853   0.98876   0.00000  Uiso   1.00
C1249  C     0.51510   0.93343   0.75126   0.00000  Uiso   1.00
C1250  C     0.48478   0.73323   0.74900   0.00000  Uiso   1.00
C1251  C     0.43287   0.78205   0.53647   0.00000  Uiso   1.00
C1252  C     0.57503   0.85504   0.95753   0.00000  Uiso   1.00
C1253  C     0.39117   0.76444   0.50969   0.00000  Uiso   1.00
C1254  C     0.61992   0.86580   0.98227   0.00000  Uiso   1.00
C1255  C     0.52397   0.98938   0.75115   0.00000  Uiso   1.00
C1256  C     0.47584   0.67729   0.74936   0.00000  Uiso   1.00
C1257  C     0.46109   0.82807   0.83313   0.00000  Uiso   1.00
C1258  C     0.53895   0.83825   0.66671   0.00000  Uiso   1.00
C1259  C     0.43688   0.81616   0.88004   0.00000  Uiso   1.00
C1260  C     0.56316   0.84458   0.61873   0.00000  Uiso   1.00
C1261  C     0.36619   0.75950   0.93816   0.00000  Uiso   1.00
C1262  C     0.64697   0.87275   0.55285   0.00000  Uiso   1.00
C1263  C     0.38030   0.77855   0.89538   0.00000  Uiso   1.00
C1264  C     0.62698   0.86872   0.59886   0.00000  Uiso   1.00
C1265  C     0.47736   0.83577   0.90764   0.00000  Uiso   1.00
C1266  C     0.51981   0.82722   0.59266   0.00000  Uiso   1.00
C1267  C     0.46551   0.81613   0.94986   0.00000  Uiso   1.00
C1268  C     0.53778   0.83260   0.54695   0.00000  Uiso   1.00
C1269  C     0.40696   0.78039   0.96620   0.00000  Uiso   1.00
C1270  C     0.60190   0.85682   0.52726   0.00000  Uiso   1.00
C1271  C     0.51113   0.82988   0.97571   0.00000  Uiso   1.00
C1272  C     0.49345   0.81509   0.52036   0.00000  Uiso   1.00
Cu1273 Cu    0.44071   0.82775   0.74516   0.00000  Uiso   1.00
Cu1274 Cu    0.55929   0.83892   0.75483   0.00000  Uiso   1.00
H1275  H     0.34617   0.73797   0.52337   0.00000  Uiso   1.00
H1276  H     0.33537   0.88322   0.96609   0.00000  Uiso   1.00
H1277  H     0.47107   0.81111   0.60915   0.00000  Uiso   1.00
H1278  H     0.51883   0.86606   0.89487   0.00000  Uiso   1.00
H1279  H     0.41741   0.76652   0.56908   0.00000  Uiso   1.00
H1280  H     0.59276   0.86445   0.92338   0.00000  Uiso   1.00
H1281  H     0.57060   0.67982   0.75219   0.00000  Uiso   1.00
H1282  H     0.42921   0.98682   0.74839   0.00000  Uiso   1.00
H1283  H     0.33462   0.87180   0.78463   0.00000  Uiso   1.00
H1284  H     0.66535   0.79482   0.71540   0.00000  Uiso   1.00
N1285  N     0.64839   0.84735   0.76212   0.00000  Uiso   1.00
N1286  N     0.35161   0.81932   0.73788   0.00000  Uiso   1.00
O1287  O     0.46148   0.90476   0.74686   0.00000  Uiso   1.00
O1288  O     0.53852   0.76191   0.75314   0.00000  Uiso   1.00
O1289  O     0.56163   0.91420   0.75502   0.00000  Uiso   1.00
O1290  O     0.43837   0.75247   0.74497   0.00000  Uiso   1.00
O1291  O     0.42185   0.82597   0.80854   0.00000  Uiso   1.00
O1292  O     0.57815   0.84070   0.69145   0.00000  Uiso   1.00
O1293  O     0.52199   0.83540   0.81671   0.00000  Uiso   1.00
O1294  O     0.47801   0.83126   0.68329   0.00000  Uiso   1.00
O1295  O     0.33758   0.88690   0.62366   0.00000  Uiso   1.00
C1296  C     0.66325   0.93713   0.64201   0.00000  Uiso   1.00
H1297  H     0.61686   0.93466   0.66651   0.00000  Uiso   1.00
H1298  H     0.66537   0.96513   0.61658   0.00000  Uiso   1.00
C1299  C     0.38266   0.95973   0.66513   0.00000  Uiso   1.00
H1300  H     0.42991   0.96433   0.64127   0.00000  Uiso   1.00
H1301  H     0.37679   0.99886   0.68018   0.00000  Uiso   1.00
H1302  H     0.38050   0.93286   0.69131   0.00000  Uiso   1.00
O1303  O     0.34632   0.75268   0.86590   0.00000  Uiso   1.00
C1304  C     0.62150   0.76890   0.87323   0.00000  Uiso   1.00
H1305  H     0.63052   0.81083   0.86420   0.00000  Uiso   1.00
H1306  H     0.59335   0.76360   0.90789   0.00000  Uiso   1.00
C1307  C     0.58179   0.73541   0.84429   0.00000  Uiso   1.00
H1308  H     0.53511   0.74672   0.85026   0.00000  Uiso   1.00
H1309  H     0.60735   0.74130   0.80924   0.00000  Uiso   1.00
H1310  H     0.57315   0.69309   0.85183   0.00000  Uiso   1.00
O1311  O     0.64661   0.71905   0.95154   0.00000  Uiso   1.00
C1312  C     0.66571   0.67032   0.94860   0.00000  Uiso   1.00
H1313  H     0.62920   0.97697   0.97275   0.00000  Uiso   1.00
H1314  H     0.37859   0.67362   0.95722   0.00000  Uiso   1.00
C1315  C     0.33608   0.97787   0.90302   0.00000  Uiso   1.00
H1316  H     0.37562   0.66784   0.87825   0.00000  Uiso   1.00
H1317  H     0.34622   0.93815   0.90286   0.00000  Uiso   1.00
H1318  H     0.62358   0.97409   0.89387   0.00000  Uiso   1.00
O1319  O     0.37816   0.88631   0.53243   0.00000  Uiso   1.00
C1320  C     0.39928   0.94163   0.53019   0.00000  Uiso   1.00
H1321  H     0.41543   0.95714   0.56007   0.00000  Uiso   1.00
H1322  H     0.36199   0.96193   0.52646   0.00000  Uiso   1.00
C1323  C     0.45675   0.95507   0.99125   0.00000  Uiso   1.00
H1324  H     0.44406   0.93870   0.96032   0.00000  Uiso   1.00
H1325  H     0.49635   0.93842   0.99566   0.00000  Uiso   1.00
H1326  H     0.47318   0.99853   0.98876   0.00000  Uiso   1.00
C1327  C     0.84843   0.93343   0.75126   0.00000  Uiso   1.00
C1328  C     0.81812   0.73323   0.74900   0.00000  Uiso   1.00
C1329  C     0.76620   0.78205   0.53647   0.00000  Uiso   1.00
C1330  C     0.90836   0.85504   0.95753   0.00000  Uiso   1.00
C1331  C     0.72451   0.76444   0.50969   0.00000  Uiso   1.00
C1332  C     0.95326   0.86580   0.98227   0.00000  Uiso   1.00
C1333  C     0.85730   0.98938   0.75115   0.00000  Uiso   1.00
C1334  C     0.80918   0.67729   0.74936   0.00000  Uiso   1.00
C1335  C     0.79442   0.82807   0.83313   0.00000  Uiso   1.00
C1336  C     0.87228   0.83825   0.66671   0.00000  Uiso   1.00
C1337  C     0.77021   0.81616   0.88004   0.00000  Uiso   1.00
C1338  C     0.89649   0.84458   0.61873   0.00000  Uiso   1.00
C1339  C     0.69953   0.75950   0.93816   0.00000  Uiso   1.00
C1340  C     0.98030   0.87275   0.55285   0.00000  Uiso   1.00
C1341  C     0.71364   0.77855   0.89538   0.00000  Uiso   1.00
C1342  C     0.96031   0.86872   0.59886   0.00000  Uiso   1.00
C1343  C     0.81069   0.83577   0.90764   0.00000  Uiso   1.00
C1344  C     0.85314   0.82722   0.59266   0.00000  Uiso   1.00
C1345  C     0.79884   0.81613   0.94986   0.00000  Uiso   1.00
C1346  C     0.87112   0.83260   0.54695   0.00000  Uiso   1.00
C1347  C     0.74030   0.78039   0.96620   0.00000  Uiso   1.00
C1348  C     0.93523   0.85682   0.52726   0.00000  Uiso   1.00
C1349  C     0.84446   0.82988   0.97571   0.00000  Uiso   1.00
C1350  C     0.82678   0.81509   0.52036   0.00000  Uiso   1.00
Cu1351 Cu    0.77404   0.82775   0.74516   0.00000  Uiso   1.00
Cu1352 Cu    0.89263   0.83892   0.75483   0.00000  Uiso   1.00
H1353  H     0.67950   0.73797   0.52337   0.00000  Uiso   1.00
H1354  H     0.66871   0.88322   0.96609   0.00000  Uiso   1.00
H1355  H     0.80440   0.81111   0.60915   0.00000  Uiso   1.00
H1356  H     0.85217   0.86606   0.89487   0.00000  Uiso   1.00
H1357  H     0.75074   0.76652   0.56908   0.00000  Uiso   1.00
H1358  H     0.92609   0.86445   0.92338   0.00000  Uiso   1.00
H1359  H     0.90394   0.67982   0.75219   0.00000  Uiso   1.00
H1360  H     0.76254   0.98682   0.74839   0.00000  Uiso   1.00
H1361  H     0.66795   0.87180   0.78463   0.00000  Uiso   1.00
H1362  H     0.99868   0.79482   0.71540   0.00000  Uiso   1.00
N1363  N     0.98173   0.84735   0.76212   0.00000  Uiso   1.00
N1364  N     0.68494   0.81932   0.73788   0.00000  Uiso   1.00
O1365  O     0.79482   0.90476   0.74686   0.00000  Uiso   1.00
O1366  O     0.87185   0.76191   0.75314   0.00000  Uiso   1.00
O1367  O     0.89496   0.91420   0.75502   0.00000  Uiso   1.00
O1368  O     0.77171   0.75247   0.74497   0.00000  Uiso   1.00
O1369  O     0.75518   0.82597   0.80854   0.00000  Uiso   1.00
O1370  O     0.91149   0.84070   0.69145   0.00000  Uiso   1.00
O1371  O     0.85532   0.83540   0.81671   0.00000  Uiso   1.00
O1372  O     0.81134   0.83126   0.68329   0.00000  Uiso   1.00
O1373  O     0.67092   0.88690   0.62366   0.00000  Uiso   1.00
C1374  C     0.99659   0.93713   0.64201   0.00000  Uiso   1.00
H1375  H     0.95020   0.93466   0.66651   0.00000  Uiso   1.00
H1376  H     0.99870   0.96513   0.61658   0.00000  Uiso   1.00
C1377  C     0.71600   0.95973   0.66513   0.00000  Uiso   1.00
H1378  H     0.76325   0.96433   0.64127   0.00000  Uiso   1.00
H1379  H     0.71013   0.99886   0.68018   0.00000  Uiso   1.00
H1380  H     0.71383   0.93286   0.69131   0.00000  Uiso   1.00
O1381  O     0.67966   0.75268   0.86590   0.00000  Uiso   1.00
C1382  C     0.95483   0.76890   0.87323   0.00000  Uiso   1.00
H1383  H     0.96385   0.81083   0.86420   0.00000  Uiso   1.00
H1384  H     0.92668   0.76360   0.90789   0.00000  Uiso   1.00
C1385  C     0.91512   0.73541   0.84429   0.00000  Uiso   1.00
H1386  H     0.86845   0.74672   0.85026   0.00000  Uiso   1.00
H1387  H     0.94068   0.74130   0.80924   0.00000  Uiso   1.00
H1388  H     0.90648   0.69309   0.85183   0.00000  Uiso   1.00
O1389  O     0.97994   0.71905   0.95154   0.00000  Uiso   1.00
C1390  C     0.99904   0.67032   0.94860   0.00000  Uiso   1.00
H1391  H     0.96253   0.97697   0.97275   0.00000  Uiso   1.00
H1392  H     0.71193   0.67362   0.95722   0.00000  Uiso   1.00
C1393  C     0.66941   0.97787   0.90302   0.00000  Uiso   1.00
H1394  H     0.70896   0.66784   0.87825   0.00000  Uiso   1.00
H1395  H     0.67956   0.93815   0.90286   0.00000  Uiso   1.00
H1396  H     0.95691   0.97409   0.89387   0.00000  Uiso   1.00
O1397  O     0.71149   0.88631   0.53243   0.00000  Uiso   1.00
C1398  C     0.73261   0.94163   0.53019   0.00000  Uiso   1.00
H1399  H     0.74877   0.95714   0.56007   0.00000  Uiso   1.00
H1400  H     0.69532   0.96193   0.52646   0.00000  Uiso   1.00
C1401  C     0.79008   0.95507   0.99125   0.00000  Uiso   1.00
H1402  H     0.77740   0.93870   0.96032   0.00000  Uiso   1.00
H1403  H     0.82968   0.93842   0.99566   0.00000  Uiso   1.00
H1404  H     0.80651   0.99853   0.98876   0.00000  Uiso   1.00
loop_
_geom_bond_atom_site_label_1
_geom_bond_atom_site_label_2
_geom_bond_distance
_geom_bond_site_symmetry_2
_ccdc_geom_bond_type
C1     O41     1.284   .     A
C1     C7      1.427   .     S
C1     O39     1.289   .     A
C2     C8      1.427   .     S
C2     O42     1.284   .     A
C2     O40     1.289   .     A
C3     C24     1.415   .     A
C3     H31     1.077   .     S
C3     C5      1.390   .     A
C4     C6      1.387   .     A
C4     C23     1.412   .     A
C4     H32     1.074   .     S
C5     H27     1.083   .     S
C5     C723    1.398   1_554 S
C6     C724    1.395   .     S
C6     H106    1.082   .     S
C7     C242    1.328   .     S
C7     H267    1.087   .     S
C8     C475    1.328   1_545 S
C8     H502    1.087   1_545 S
C9     O45     1.294   .     A
C9     O43     1.299   .     A
C9     C11     1.470   .     S
C10    O46     1.296   .     A
C10    O44     1.301   .     A
C10    C12     1.478   .     S
C11    C15     1.406   .     A
C11    C17     1.397   .     A
C12    C16     1.414   .     A
C12    C18     1.400   .     A
C13    C21     1.418   .     A
C13    C15     1.409   .     A
C13    O219    1.387   1_455 S
C14    C22     1.415   .     A
C14    C16     1.409   .     A
C14    O149    1.388   .     S
C15    O55     1.385   .     S
C16    O125    1.384   .     S
C17    H30     1.079   .     S
C17    C19     1.404   .     A
C18    H29     1.076   .     S
C18    C20     1.402   .     A
C19    C21     1.416   .     A
C19    C23     1.427   .     A
C20    C24     1.430   .     A
C20    C22     1.419   .     A
C21    C707    1.398   .     S
C22    C708    1.395   1_554 S
C23    C726    1.421   .     S
C24    C725    1.421   1_554 S
Cu25   O43     1.935   .     S
Cu25   Cu26    2.681   .     S
Cu25   N38     2.014   .     S
Cu25   O42     1.951   .     S
Cu25   O39     1.954   .     S
Cu25   O46     1.913   .     S
Cu26   O44     1.935   .     S
Cu26   O45     1.913   .     S
Cu26   N37     2.014   .     S
Cu26   O40     1.954   .     S
Cu26   O41     1.951   .     S
H28    C162    1.082   1_455 S
H33    C475    1.087   1_545 S
H34    C242    1.087   .     S
H35    N193    1.029   1_455 S
H36    N116    1.029   .     S
N37    H113    1.029   .     S
N37    N116    1.280   .     S
N38    H192    1.029   1_455 S
N38    N193    1.280   1_455 S
O47    C172    1.384   1_455 S
O47    C204    1.417   1_455 S
C48    H50     1.113   .     S
C48    H49     1.110   .     S
C48    O125    1.417   .     S
C48    C129    1.520   .     S
C51    H52     1.111   .     S
C51    H54     1.110   .     S
C51    H53     1.111   .     S
C51    C204    1.520   1_455 S
O55    C212    1.409   1_455 S
C56    H57     1.112   .     S
C56    C59     1.520   .     S
C56    H58     1.112   .     S
C56    O133    1.409   .     S
C59    H60     1.109   .     S
C59    H61     1.110   .     S
C59    H62     1.110   .     S
O63    C64     1.418   .     S
O63    C91     1.387   .     S
C64    H533    1.110   1_545 S
C64    H144    1.113   .     S
C64    C613    1.527   1_545 S
H65    C298    1.110   .     S
H66    C220    1.113   1_455 S
C67    H69     1.109   .     S
C67    C454    1.527   1_455 S
C67    H302    1.109   .     S
C67    H226    1.111   1_455 S
H68    C535    1.109   1_545 S
H70    C145    1.111   .     S
O71    C72     1.413   .     S
O71    C170    1.388   1_455 S
C72    H74     1.115   .     S
C72    H73     1.108   .     S
C72    C777    1.523   1_554 S
C75    H76     1.110   .     S
C75    H77     1.110   .     S
C75    H78     1.111   .     S
C75    C774    1.523   .     S
C79    O119    1.284   .     A
C79    C85     1.427   .     S
C79    O117    1.289   .     A
C80    C86     1.427   .     S
C80    O120    1.284   .     A
C80    O118    1.289   .     A
C81    C102    1.415   .     A
C81    H109    1.077   .     S
C81    C83     1.390   .     A
C82    C84     1.387   .     A
C82    C101    1.412   .     A
C82    H110    1.074   .     S
C83    H105    1.083   .     S
C83    C801    1.398   1_554 S
C84    C802    1.395   .     S
C84    H184    1.082   .     S
C85    C320    1.328   .     S
C85    H345    1.087   .     S
C86    C553    1.328   1_545 S
C86    H580    1.087   1_545 S
C87    O123    1.294   .     A
C87    O121    1.299   .     A
C87    C89     1.470   .     S
C88    O124    1.296   .     A
C88    O122    1.301   .     A
C88    C90     1.478   .     S
C89    C93     1.406   .     A
C89    C95     1.397   .     A
C90    C94     1.414   .     A
C90    C96     1.400   .     A
C91    C99     1.418   .     A
C91    C93     1.409   .     A
C92    C100    1.415   .     A
C92    C94     1.409   .     A
C92    O227    1.388   .     S
C93    O133    1.385   .     S
C94    O203    1.384   .     S
C95    H108    1.079   .     S
C95    C97     1.404   .     A
C96    H107    1.076   .     S
C96    C98     1.402   .     A
C97    C99     1.416   .     A
C97    C101    1.427   .     A
C98    C102    1.430   .     A
C98    C100    1.419   .     A
C99    C785    1.398   .     S
C100   C786    1.395   1_554 S
C101   C804    1.421   .     S
C102   C803    1.421   1_554 S
Cu103  O121    1.935   .     S
Cu103  Cu104   2.681   .     S
Cu103  N116    2.014   .     S
Cu103  O120    1.951   .     S
Cu103  O117    1.954   .     S
Cu103  O124    1.913   .     S
Cu104  O122    1.935   .     S
Cu104  O123    1.913   .     S
Cu104  N115    2.014   .     S
Cu104  O118    1.954   .     S
Cu104  O119    1.951   .     S
H111   C553    1.087   1_545 S
H112   C320    1.087   .     S
H114   N194    1.029   .     S
N115   H191    1.029   .     S
N115   N194    1.280   .     S
C126   H128    1.113   .     S
C126   H127    1.110   .     S
C126   O203    1.417   .     S
C126   C207    1.520   .     S
C129   H130    1.111   .     S
C129   H132    1.110   .     S
C129   H131    1.111   .     S
C134   H135    1.112   .     S
C134   C137    1.520   .     S
C134   H136    1.112   .     S
C134   O211    1.409   .     S
C137   H138    1.109   .     S
C137   H139    1.110   .     S
C137   H140    1.110   .     S
O141   C142    1.418   .     S
O141   C169    1.387   .     S
C142   H611    1.110   1_545 S
C142   H222    1.113   .     S
C142   C691    1.527   1_545 S
H143   C376    1.110   .     S
C145   H147    1.109   .     S
C145   C298    1.527   .     S
C145   H380    1.109   .     S
H146   C613    1.109   1_545 S
H148   C223    1.111   .     S
O149   C150    1.413   .     S
C150   H152    1.115   .     S
C150   H151    1.108   .     S
C150   C855    1.523   1_554 S
C153   H154    1.110   .     S
C153   H155    1.110   .     S
C153   H156    1.111   .     S
C153   C852    1.523   .     S
C157   O197    1.284   .     A
C157   C163    1.427   .     S
C157   O195    1.289   .     A
C158   C164    1.427   .     S
C158   O198    1.284   .     A
C158   O196    1.289   .     A
C159   C180    1.415   .     A
C159   H187    1.077   .     S
C159   C161    1.390   .     A
C160   C162    1.387   .     A
C160   C179    1.412   .     A
C160   H188    1.074   .     S
C161   H183    1.083   .     S
C161   C879    1.398   1_554 S
C162   C880    1.395   .     S
C162   H28     1.082   1_655 S
C163   C398    1.328   .     S
C163   H423    1.087   .     S
C164   C631    1.328   1_545 S
C164   H658    1.087   1_545 S
C165   O201    1.294   .     A
C165   O199    1.299   .     A
C165   C167    1.470   .     S
C166   O202    1.296   .     A
C166   O200    1.301   .     A
C166   C168    1.478   .     S
C167   C171    1.406   .     A
C167   C173    1.397   .     A
C168   C172    1.414   .     A
C168   C174    1.400   .     A
C169   C177    1.418   .     A
C169   C171    1.409   .     A
C170   C178    1.415   .     A
C170   C172    1.409   .     A
C170   O71     1.388   1_655 S
C171   O211    1.385   .     S
C172   O47     1.384   1_655 S
C173   H186    1.079   .     S
C173   C175    1.404   .     A
C174   H185    1.076   .     S
C174   C176    1.402   .     A
C175   C177    1.416   .     A
C175   C179    1.427   .     A
C176   C180    1.430   .     A
C176   C178    1.419   .     A
C177   C863    1.398   .     S
C178   C864    1.395   1_554 S
C179   C882    1.421   .     S
C180   C881    1.421   1_554 S
Cu181  O199    1.935   .     S
Cu181  Cu182   2.681   .     S
Cu181  N194    2.014   .     S
Cu181  O198    1.951   .     S
Cu181  O195    1.954   .     S
Cu181  O202    1.913   .     S
Cu182  O200    1.935   .     S
Cu182  O201    1.913   .     S
Cu182  N193    2.014   .     S
Cu182  O196    1.954   .     S
Cu182  O197    1.951   .     S
H189   C631    1.087   1_545 S
H190   C398    1.087   .     S
H192   N38     1.029   1_655 S
N193   H35     1.029   1_655 S
N193   N38     1.280   1_655 S
C204   H206    1.113   .     S
C204   H205    1.110   .     S
C204   O47     1.417   1_655 S
C204   C51     1.520   1_655 S
C207   H208    1.111   .     S
C207   H210    1.110   .     S
C207   H209    1.111   .     S
C212   H213    1.112   .     S
C212   C215    1.520   .     S
C212   H214    1.112   .     S
C212   O55     1.409   1_655 S
C215   H216    1.109   .     S
C215   H217    1.110   .     S
C215   H218    1.110   .     S
O219   C220    1.418   .     S
O219   C13     1.387   1_655 S
C220   H689    1.110   1_545 S
C220   H66     1.113   1_655 S
C220   C535    1.527   1_645 S
H221   C454    1.110   .     S
C223   H225    1.109   .     S
C223   C376    1.527   .     S
C223   H458    1.109   .     S
H224   C691    1.109   1_545 S
H226   C67     1.111   1_655 S
O227   C228    1.413   .     S
C228   H230    1.115   .     S
C228   H229    1.108   .     S
C228   C933    1.523   1_554 S
C231   H232    1.110   .     S
C231   H233    1.110   .     S
C231   H234    1.111   .     S
C231   C930    1.523   .     S
C235   O275    1.284   .     A
C235   C241    1.427   .     S
C235   O273    1.289   .     A
C236   C242    1.427   .     S
C236   O276    1.284   .     A
C236   O274    1.289   .     A
C237   C258    1.415   .     A
C237   H265    1.077   .     S
C237   C239    1.390   .     A
C238   C240    1.387   .     A
C238   C257    1.412   .     A
C238   H266    1.074   .     S
C239   H261    1.083   .     S
C239   C957    1.398   1_554 S
C240   C958    1.395   .     S
C240   H340    1.082   .     S
C241   C476    1.328   .     S
C241   H501    1.087   .     S
C243   O279    1.294   .     A
C243   O277    1.299   .     A
C243   C245    1.470   .     S
C244   O280    1.296   .     A
C244   O278    1.301   .     A
C244   C246    1.478   .     S
C245   C249    1.406   .     A
C245   C251    1.397   .     A
C246   C250    1.414   .     A
C246   C252    1.400   .     A
C247   C255    1.418   .     A
C247   C249    1.409   .     A
C247   O453    1.387   1_455 S
C248   C256    1.415   .     A
C248   C250    1.409   .     A
C248   O383    1.388   .     S
C249   O289    1.385   .     S
C250   O359    1.384   .     S
C251   H264    1.079   .     S
C251   C253    1.404   .     A
C252   H263    1.076   .     S
C252   C254    1.402   .     A
C253   C255    1.416   .     A
C253   C257    1.427   .     A
C254   C258    1.430   .     A
C254   C256    1.419   .     A
C255   C941    1.398   .     S
C256   C942    1.395   1_554 S
C257   C960    1.421   .     S
C258   C959    1.421   1_554 S
Cu259  O277    1.935   .     S
Cu259  Cu260   2.681   .     S
Cu259  N272    2.014   .     S
Cu259  O276    1.951   .     S
Cu259  O273    1.954   .     S
Cu259  O280    1.913   .     S
Cu260  O278    1.935   .     S
Cu260  O279    1.913   .     S
Cu260  N271    2.014   .     S
Cu260  O274    1.954   .     S
Cu260  O275    1.951   .     S
H262   C396    1.082   1_455 S
H268   C476    1.087   .     S
H269   N427    1.029   1_455 S
H270   N350    1.029   .     S
N271   H347    1.029   .     S
N271   N350    1.280   .     S
N272   H426    1.029   1_455 S
N272   N427    1.280   1_455 S
O281   C406    1.384   1_455 S
O281   C438    1.417   1_455 S
C282   H284    1.113   .     S
C282   H283    1.110   .     S
C282   O359    1.417   .     S
C282   C363    1.520   .     S
C285   H286    1.111   .     S
C285   H288    1.110   .     S
C285   H287    1.111   .     S
C285   C438    1.520   1_455 S
O289   C446    1.409   1_455 S
C290   H291    1.112   .     S
C290   C293    1.520   .     S
C290   H292    1.112   .     S
C290   O367    1.409   .     S
C293   H294    1.109   .     S
C293   H295    1.110   .     S
C293   H296    1.110   .     S
O297   C298    1.418   .     S
O297   C325    1.387   .     S
C298   H378    1.113   .     S
H299   C532    1.110   .     S
H300   C454    1.113   1_455 S
C301   H303    1.109   .     S
C301   C688    1.527   1_455 S
C301   H536    1.109   .     S
C301   H460    1.111   1_455 S
H304   C379    1.111   .     S
O305   C306    1.413   .     S
O305   C404    1.388   1_455 S
C306   H308    1.115   .     S
C306   H307    1.108   .     S
C306   C1011   1.523   1_554 S
C309   H310    1.110   .     S
C309   H311    1.110   .     S
C309   H312    1.111   .     S
C309   C1008   1.523   .     S
C313   O353    1.284   .     A
C313   C319    1.427   .     S
C313   O351    1.289   .     A
C314   C320    1.427   .     S
C314   O354    1.284   .     A
C314   O352    1.289   .     A
C315   C336    1.415   .     A
C315   H343    1.077   .     S
C315   C317    1.390   .     A
C316   C318    1.387   .     A
C316   C335    1.412   .     A
C316   H344    1.074   .     S
C317   H339    1.083   .     S
C317   C1035   1.398   1_554 S
C318   C1036   1.395   .     S
C318   H418    1.082   .     S
C319   C554    1.328   .     S
C319   H579    1.087   .     S
C321   O357    1.294   .     A
C321   O355    1.299   .     A
C321   C323    1.470   .     S
C322   O358    1.296   .     A
C322   O356    1.301   .     A
C322   C324    1.478   .     S
C323   C327    1.406   .     A
C323   C329    1.397   .     A
C324   C328    1.414   .     A
C324   C330    1.400   .     A
C325   C333    1.418   .     A
C325   C327    1.409   .     A
C326   C334    1.415   .     A
C326   C328    1.409   .     A
C326   O461    1.388   .     S
C327   O367    1.385   .     S
C328   O437    1.384   .     S
C329   H342    1.079   .     S
C329   C331    1.404   .     A
C330   H341    1.076   .     S
C330   C332    1.402   .     A
C331   C333    1.416   .     A
C331   C335    1.427   .     A
C332   C336    1.430   .     A
C332   C334    1.419   .     A
C333   C1019   1.398   .     S
C334   C1020   1.395   1_554 S
C335   C1038   1.421   .     S
C336   C1037   1.421   1_554 S
Cu337  O355    1.935   .     S
Cu337  Cu338   2.681   .     S
Cu337  N350    2.014   .     S
Cu337  O354    1.951   .     S
Cu337  O351    1.954   .     S
Cu337  O358    1.913   .     S
Cu338  O356    1.935   .     S
Cu338  O357    1.913   .     S
Cu338  N349    2.014   .     S
Cu338  O352    1.954   .     S
Cu338  O353    1.951   .     S
H346   C554    1.087   .     S
H348   N428    1.029   .     S
N349   H425    1.029   .     S
N349   N428    1.280   .     S
C360   H362    1.113   .     S
C360   H361    1.110   .     S
C360   O437    1.417   .     S
C360   C441    1.520   .     S
C363   H364    1.111   .     S
C363   H366    1.110   .     S
C363   H365    1.111   .     S
C368   H369    1.112   .     S
C368   C371    1.520   .     S
C368   H370    1.112   .     S
C368   O445    1.409   .     S
C371   H372    1.109   .     S
C371   H373    1.110   .     S
C371   H374    1.110   .     S
O375   C376    1.418   .     S
O375   C403    1.387   .     S
C376   H456    1.113   .     S
H377   C610    1.110   .     S
C379   H381    1.109   .     S
C379   C532    1.527   .     S
C379   H614    1.109   .     S
H382   C457    1.111   .     S
O383   C384    1.413   .     S
C384   H386    1.115   .     S
C384   H385    1.108   .     S
C384   C1089   1.523   1_554 S
C387   H388    1.110   .     S
C387   H389    1.110   .     S
C387   H390    1.111   .     S
C387   C1086   1.523   .     S
C391   O431    1.284   .     A
C391   C397    1.427   .     S
C391   O429    1.289   .     A
C392   C398    1.427   .     S
C392   O432    1.284   .     A
C392   O430    1.289   .     A
C393   C414    1.415   .     A
C393   H421    1.077   .     S
C393   C395    1.390   .     A
C394   C396    1.387   .     A
C394   C413    1.412   .     A
C394   H422    1.074   .     S
C395   H417    1.083   .     S
C395   C1113   1.398   1_554 S
C396   C1114   1.395   .     S
C396   H262    1.082   1_655 S
C397   C632    1.328   .     S
C397   H657    1.087   .     S
C399   O435    1.294   .     A
C399   O433    1.299   .     A
C399   C401    1.470   .     S
C400   O436    1.296   .     A
C400   O434    1.301   .     A
C400   C402    1.478   .     S
C401   C405    1.406   .     A
C401   C407    1.397   .     A
C402   C406    1.414   .     A
C402   C408    1.400   .     A
C403   C411    1.418   .     A
C403   C405    1.409   .     A
C404   C412    1.415   .     A
C404   C406    1.409   .     A
C404   O305    1.388   1_655 S
C405   O445    1.385   .     S
C406   O281    1.384   1_655 S
C407   H420    1.079   .     S
C407   C409    1.404   .     A
C408   H419    1.076   .     S
C408   C410    1.402   .     A
C409   C411    1.416   .     A
C409   C413    1.427   .     A
C410   C414    1.430   .     A
C410   C412    1.419   .     A
C411   C1097   1.398   .     S
C412   C1098   1.395   1_554 S
C413   C1116   1.421   .     S
C414   C1115   1.421   1_554 S
Cu415  O433    1.935   .     S
Cu415  Cu416   2.681   .     S
Cu415  N428    2.014   .     S
Cu415  O432    1.951   .     S
Cu415  O429    1.954   .     S
Cu415  O436    1.913   .     S
Cu416  O434    1.935   .     S
Cu416  O435    1.913   .     S
Cu416  N427    2.014   .     S
Cu416  O430    1.954   .     S
Cu416  O431    1.951   .     S
H424   C632    1.087   .     S
H426   N272    1.029   1_655 S
N427   H269    1.029   1_655 S
N427   N272    1.280   1_655 S
C438   H440    1.113   .     S
C438   H439    1.110   .     S
C438   O281    1.417   1_655 S
C438   C285    1.520   1_655 S
C441   H442    1.111   .     S
C441   H444    1.110   .     S
C441   H443    1.111   .     S
C446   H447    1.112   .     S
C446   C449    1.520   .     S
C446   H448    1.112   .     S
C446   O289    1.409   1_655 S
C449   H450    1.109   .     S
C449   H451    1.110   .     S
C449   H452    1.110   .     S
O453   C454    1.418   .     S
O453   C247    1.387   1_655 S
C454   H300    1.113   1_655 S
C454   C67     1.527   1_655 S
H455   C688    1.110   .     S
C457   H459    1.109   .     S
C457   C610    1.527   .     S
C457   H692    1.109   .     S
H460   C301    1.111   1_655 S
O461   C462    1.413   .     S
C462   H464    1.115   .     S
C462   H463    1.108   .     S
C462   C1167   1.523   1_554 S
C465   H466    1.110   .     S
C465   H467    1.110   .     S
C465   H468    1.111   .     S
C465   C1164   1.523   .     S
C469   O509    1.284   .     A
C469   C475    1.427   .     S
C469   O507    1.289   .     A
C470   C476    1.427   .     S
C470   O510    1.284   .     A
C470   O508    1.289   .     A
C471   C492    1.415   .     A
C471   H499    1.077   .     S
C471   C473    1.390   .     A
C472   C474    1.387   .     A
C472   C491    1.412   .     A
C472   H500    1.074   .     S
C473   H495    1.083   .     S
C473   C1191   1.398   1_554 S
C474   C1192   1.395   .     S
C474   H574    1.082   .     S
C475   C8      1.328   1_565 S
C475   H33     1.087   1_565 S
C477   O513    1.294   .     A
C477   O511    1.299   .     A
C477   C479    1.470   .     S
C478   O514    1.296   .     A
C478   O512    1.301   .     A
C478   C480    1.478   .     S
C479   C483    1.406   .     A
C479   C485    1.397   .     A
C480   C484    1.414   .     A
C480   C486    1.400   .     A
C481   C489    1.418   .     A
C481   C483    1.409   .     A
C481   O687    1.387   1_455 S
C482   C490    1.415   .     A
C482   C484    1.409   .     A
C482   O617    1.388   .     S
C483   O523    1.385   .     S
C484   O593    1.384   .     S
C485   H498    1.079   .     S
C485   C487    1.404   .     A
C486   H497    1.076   .     S
C486   C488    1.402   .     A
C487   C489    1.416   .     A
C487   C491    1.427   .     A
C488   C492    1.430   .     A
C488   C490    1.419   .     A
C489   C1175   1.398   .     S
C490   C1176   1.395   1_554 S
C491   C1194   1.421   .     S
C492   C1193   1.421   1_554 S
Cu493  O511    1.935   .     S
Cu493  Cu494   2.681   .     S
Cu493  N506    2.014   .     S
Cu493  O510    1.951   .     S
Cu493  O507    1.954   .     S
Cu493  O514    1.913   .     S
Cu494  O512    1.935   .     S
Cu494  O513    1.913   .     S
Cu494  N505    2.014   .     S
Cu494  O508    1.954   .     S
Cu494  O509    1.951   .     S
H496   C630    1.082   1_455 S
H502   C8      1.087   1_565 S
H503   N661    1.029   1_455 S
H504   N584    1.029   .     S
N505   H581    1.029   .     S
N505   N584    1.280   .     S
N506   H660    1.029   1_455 S
N506   N661    1.280   1_455 S
O515   C640    1.384   1_455 S
O515   C672    1.417   1_455 S
C516   H518    1.113   .     S
C516   H517    1.110   .     S
C516   O593    1.417   .     S
C516   C597    1.520   .     S
C519   H520    1.111   .     S
C519   H522    1.110   .     S
C519   H521    1.111   .     S
C519   C672    1.520   1_455 S
O523   C680    1.409   1_455 S
C524   H525    1.112   .     S
C524   C527    1.520   .     S
C524   H526    1.112   .     S
C524   O601    1.409   .     S
C527   H528    1.109   .     S
C527   H529    1.110   .     S
C527   H530    1.110   .     S
O531   C532    1.418   .     S
O531   C559    1.387   .     S
C532   H612    1.113   .     S
H533   C64     1.110   1_565 S
H534   C688    1.113   1_455 S
C535   H537    1.109   .     S
C535   C220    1.527   1_465 S
C535   H68     1.109   1_565 S
C535   H694    1.111   1_455 S
H538   C613    1.111   .     S
O539   C540    1.413   .     S
O539   C638    1.388   1_455 S
C540   H542    1.115   .     S
C540   H541    1.108   .     S
C540   C1245   1.523   1_554 S
C543   H544    1.110   .     S
C543   H545    1.110   .     S
C543   H546    1.111   .     S
C543   C1242   1.523   .     S
C547   O587    1.284   .     A
C547   C553    1.427   .     S
C547   O585    1.289   .     A
C548   C554    1.427   .     S
C548   O588    1.284   .     A
C548   O586    1.289   .     A
C549   C570    1.415   .     A
C549   H577    1.077   .     S
C549   C551    1.390   .     A
C550   C552    1.387   .     A
C550   C569    1.412   .     A
C550   H578    1.074   .     S
C551   H573    1.083   .     S
C551   C1269   1.398   1_554 S
C552   C1270   1.395   .     S
C552   H652    1.082   .     S
C553   C86     1.328   1_565 S
C553   H111    1.087   1_565 S
C555   O591    1.294   .     A
C555   O589    1.299   .     A
C555   C557    1.470   .     S
C556   O592    1.296   .     A
C556   O590    1.301   .     A
C556   C558    1.478   .     S
C557   C561    1.406   .     A
C557   C563    1.397   .     A
C558   C562    1.414   .     A
C558   C564    1.400   .     A
C559   C567    1.418   .     A
C559   C561    1.409   .     A
C560   C568    1.415   .     A
C560   C562    1.409   .     A
C560   O695    1.388   .     S
C561   O601    1.385   .     S
C562   O671    1.384   .     S
C563   H576    1.079   .     S
C563   C565    1.404   .     A
C564   H575    1.076   .     S
C564   C566    1.402   .     A
C565   C567    1.416   .     A
C565   C569    1.427   .     A
C566   C570    1.430   .     A
C566   C568    1.419   .     A
C567   C1253   1.398   .     S
C568   C1254   1.395   1_554 S
C569   C1272   1.421   .     S
C570   C1271   1.421   1_554 S
Cu571  O589    1.935   .     S
Cu571  Cu572   2.681   .     S
Cu571  N584    2.014   .     S
Cu571  O588    1.951   .     S
Cu571  O585    1.954   .     S
Cu571  O592    1.913   .     S
Cu572  O590    1.935   .     S
Cu572  O591    1.913   .     S
Cu572  N583    2.014   .     S
Cu572  O586    1.954   .     S
Cu572  O587    1.951   .     S
H580   C86     1.087   1_565 S
H582   N662    1.029   .     S
N583   H659    1.029   .     S
N583   N662    1.280   .     S
C594   H596    1.113   .     S
C594   H595    1.110   .     S
C594   O671    1.417   .     S
C594   C675    1.520   .     S
C597   H598    1.111   .     S
C597   H600    1.110   .     S
C597   H599    1.111   .     S
C602   H603    1.112   .     S
C602   C605    1.520   .     S
C602   H604    1.112   .     S
C602   O679    1.409   .     S
C605   H606    1.109   .     S
C605   H607    1.110   .     S
C605   H608    1.110   .     S
O609   C610    1.418   .     S
O609   C637    1.387   .     S
C610   H690    1.113   .     S
H611   C142    1.110   1_565 S
C613   H615    1.109   .     S
C613   C64     1.527   1_565 S
C613   H146    1.109   1_565 S
H616   C691    1.111   .     S
O617   C618    1.413   .     S
C618   H620    1.115   .     S
C618   H619    1.108   .     S
C618   C1323   1.523   1_554 S
C621   H622    1.110   .     S
C621   H623    1.110   .     S
C621   H624    1.111   .     S
C621   C1320   1.523   .     S
C625   O665    1.284   .     A
C625   C631    1.427   .     S
C625   O663    1.289   .     A
C626   C632    1.427   .     S
C626   O666    1.284   .     A
C626   O664    1.289   .     A
C627   C648    1.415   .     A
C627   H655    1.077   .     S
C627   C629    1.390   .     A
C628   C630    1.387   .     A
C628   C647    1.412   .     A
C628   H656    1.074   .     S
C629   H651    1.083   .     S
C629   C1347   1.398   1_554 S
C630   C1348   1.395   .     S
C630   H496    1.082   1_655 S
C631   C164    1.328   1_565 S
C631   H189    1.087   1_565 S
C633   O669    1.294   .     A
C633   O667    1.299   .     A
C633   C635    1.470   .     S
C634   O670    1.296   .     A
C634   O668    1.301   .     A
C634   C636    1.478   .     S
C635   C639    1.406   .     A
C635   C641    1.397   .     A
C636   C640    1.414   .     A
C636   C642    1.400   .     A
C637   C645    1.418   .     A
C637   C639    1.409   .     A
C638   C646    1.415   .     A
C638   C640    1.409   .     A
C638   O539    1.388   1_655 S
C639   O679    1.385   .     S
C640   O515    1.384   1_655 S
C641   H654    1.079   .     S
C641   C643    1.404   .     A
C642   H653    1.076   .     S
C642   C644    1.402   .     A
C643   C645    1.416   .     A
C643   C647    1.427   .     A
C644   C648    1.430   .     A
C644   C646    1.419   .     A
C645   C1331   1.398   .     S
C646   C1332   1.395   1_554 S
C647   C1350   1.421   .     S
C648   C1349   1.421   1_554 S
Cu649  O667    1.935   .     S
Cu649  Cu650   2.681   .     S
Cu649  N662    2.014   .     S
Cu649  O666    1.951   .     S
Cu649  O663    1.954   .     S
Cu649  O670    1.913   .     S
Cu650  O668    1.935   .     S
Cu650  O669    1.913   .     S
Cu650  N661    2.014   .     S
Cu650  O664    1.954   .     S
Cu650  O665    1.951   .     S
H658   C164    1.087   1_565 S
H660   N506    1.029   1_655 S
N661   H503    1.029   1_655 S
N661   N506    1.280   1_655 S
C672   H674    1.113   .     S
C672   H673    1.110   .     S
C672   O515    1.417   1_655 S
C672   C519    1.520   1_655 S
C675   H676    1.111   .     S
C675   H678    1.110   .     S
C675   H677    1.111   .     S
C680   H681    1.112   .     S
C680   C683    1.520   .     S
C680   H682    1.112   .     S
C680   O523    1.409   1_655 S
C683   H684    1.109   .     S
C683   H685    1.110   .     S
C683   H686    1.110   .     S
O687   C688    1.418   .     S
O687   C481    1.387   1_655 S
C688   H534    1.113   1_655 S
C688   C301    1.527   1_655 S
H689   C220    1.110   1_565 S
C691   H693    1.109   .     S
C691   C142    1.527   1_565 S
C691   H224    1.109   1_565 S
H694   C535    1.111   1_655 S
O695   C696    1.413   .     S
C696   H698    1.115   .     S
C696   H697    1.108   .     S
C696   C1401   1.523   1_554 S
C699   H700    1.110   .     S
C699   H701    1.110   .     S
C699   H702    1.111   .     S
C699   C1398   1.523   .     S
C703   O743    1.284   .     A
C703   C709    1.427   .     S
C703   O741    1.289   .     A
C704   C710    1.427   .     S
C704   O744    1.284   .     A
C704   O742    1.289   .     A
C705   C726    1.415   .     A
C705   H733    1.077   .     S
C705   C707    1.390   .     A
C706   C708    1.387   .     A
C706   C725    1.412   .     A
C706   H734    1.074   .     S
C707   H729    1.083   .     S
C708   C22     1.395   1_556 S
C708   H808    1.082   .     S
C709   C944    1.328   .     S
C709   H969    1.087   .     S
C710   C1177   1.328   1_545 S
C710   H1204   1.087   1_545 S
C711   O747    1.294   .     A
C711   O745    1.299   .     A
C711   C713    1.470   .     S
C712   O748    1.296   .     A
C712   O746    1.301   .     A
C712   C714    1.478   .     S
C713   C717    1.406   .     A
C713   C719    1.397   .     A
C714   C718    1.414   .     A
C714   C720    1.400   .     A
C715   C723    1.418   .     A
C715   C717    1.409   .     A
C715   O921    1.387   1_455 S
C716   C724    1.415   .     A
C716   C718    1.409   .     A
C716   O851    1.388   .     S
C717   O757    1.385   .     S
C718   O827    1.384   .     S
C719   H732    1.079   .     S
C719   C721    1.404   .     A
C720   H731    1.076   .     S
C720   C722    1.402   .     A
C721   C723    1.416   .     A
C721   C725    1.427   .     A
C722   C726    1.430   .     A
C722   C724    1.419   .     A
C723   C5      1.398   1_556 S
C725   C24     1.421   1_556 S
Cu727  O745    1.935   .     S
Cu727  Cu728   2.681   .     S
Cu727  N740    2.014   .     S
Cu727  O744    1.951   .     S
Cu727  O741    1.954   .     S
Cu727  O748    1.913   .     S
Cu728  O746    1.935   .     S
Cu728  O747    1.913   .     S
Cu728  N739    2.014   .     S
Cu728  O742    1.954   .     S
Cu728  O743    1.951   .     S
H730   C864    1.082   1_455 S
H735   C1177   1.087   1_545 S
H736   C944    1.087   .     S
H737   N895    1.029   1_455 S
H738   N818    1.029   .     S
N739   H815    1.029   .     S
N739   N818    1.280   .     S
N740   H894    1.029   1_455 S
N740   N895    1.280   1_455 S
O749   C874    1.384   1_455 S
O749   C906    1.417   1_455 S
C750   H752    1.113   .     S
C750   H751    1.110   .     S
C750   O827    1.417   .     S
C750   C831    1.520   .     S
C753   H754    1.111   .     S
C753   H756    1.110   .     S
C753   H755    1.111   .     S
C753   C906    1.520   1_455 S
O757   C914    1.409   1_455 S
C758   H759    1.112   .     S
C758   C761    1.520   .     S
C758   H760    1.112   .     S
C758   O835    1.409   .     S
C761   H762    1.109   .     S
C761   H763    1.110   .     S
C761   H764    1.110   .     S
O765   C766    1.418   .     S
O765   C793    1.387   .     S
C766   H1235   1.110   1_545 S
C766   H846    1.113   .     S
C766   C1315   1.527   1_545 S
H767   C1000   1.110   .     S
H768   C922    1.113   1_455 S
C769   H771    1.109   .     S
C769   C1156   1.527   1_455 S
C769   H1004   1.109   .     S
C769   H928    1.111   1_455 S
H770   C1237   1.109   1_545 S
H772   C847    1.111   .     S
O773   C774    1.413   .     S
O773   C872    1.388   1_455 S
C774   H776    1.115   .     S
C774   H775    1.108   .     S
C777   H778    1.110   .     S
C777   H779    1.110   .     S
C777   H780    1.111   .     S
C777   C72     1.523   1_556 S
C781   O821    1.284   .     A
C781   C787    1.427   .     S
C781   O819    1.289   .     A
C782   C788    1.427   .     S
C782   O822    1.284   .     A
C782   O820    1.289   .     A
C783   C804    1.415   .     A
C783   H811    1.077   .     S
C783   C785    1.390   .     A
C784   C786    1.387   .     A
C784   C803    1.412   .     A
C784   H812    1.074   .     S
C785   H807    1.083   .     S
C786   C100    1.395   1_556 S
C786   H886    1.082   .     S
C787   C1022   1.328   .     S
C787   H1047   1.087   .     S
C788   C1255   1.328   1_545 S
C788   H1282   1.087   1_545 S
C789   O825    1.294   .     A
C789   O823    1.299   .     A
C789   C791    1.470   .     S
C790   O826    1.296   .     A
C790   O824    1.301   .     A
C790   C792    1.478   .     S
C791   C795    1.406   .     A
C791   C797    1.397   .     A
C792   C796    1.414   .     A
C792   C798    1.400   .     A
C793   C801    1.418   .     A
C793   C795    1.409   .     A
C794   C802    1.415   .     A
C794   C796    1.409   .     A
C794   O929    1.388   .     S
C795   O835    1.385   .     S
C796   O905    1.384   .     S
C797   H810    1.079   .     S
C797   C799    1.404   .     A
C798   H809    1.076   .     S
C798   C800    1.402   .     A
C799   C801    1.416   .     A
C799   C803    1.427   .     A
C800   C804    1.430   .     A
C800   C802    1.419   .     A
C801   C83     1.398   1_556 S
C803   C102    1.421   1_556 S
Cu805  O823    1.935   .     S
Cu805  Cu806   2.681   .     S
Cu805  N818    2.014   .     S
Cu805  O822    1.951   .     S
Cu805  O819    1.954   .     S
Cu805  O826    1.913   .     S
Cu806  O824    1.935   .     S
Cu806  O825    1.913   .     S
Cu806  N817    2.014   .     S
Cu806  O820    1.954   .     S
Cu806  O821    1.951   .     S
H813   C1255   1.087   1_545 S
H814   C1022   1.087   .     S
H816   N896    1.029   .     S
N817   H893    1.029   .     S
N817   N896    1.280   .     S
C828   H830    1.113   .     S
C828   H829    1.110   .     S
C828   O905    1.417   .     S
C828   C909    1.520   .     S
C831   H832    1.111   .     S
C831   H834    1.110   .     S
C831   H833    1.111   .     S
C836   H837    1.112   .     S
C836   C839    1.520   .     S
C836   H838    1.112   .     S
C836   O913    1.409   .     S
C839   H840    1.109   .     S
C839   H841    1.110   .     S
C839   H842    1.110   .     S
O843   C844    1.418   .     S
O843   C871    1.387   .     S
C844   H1313   1.110   1_545 S
C844   H924    1.113   .     S
C844   C1393   1.527   1_545 S
H845   C1078   1.110   .     S
C847   H849    1.109   .     S
C847   C1000   1.527   .     S
C847   H1082   1.109   .     S
H848   C1315   1.109   1_545 S
H850   C925    1.111   .     S
O851   C852    1.413   .     S
C852   H854    1.115   .     S
C852   H853    1.108   .     S
C855   H856    1.110   .     S
C855   H857    1.110   .     S
C855   H858    1.111   .     S
C855   C150    1.523   1_556 S
C859   O899    1.284   .     A
C859   C865    1.427   .     S
C859   O897    1.289   .     A
C860   C866    1.427   .     S
C860   O900    1.284   .     A
C860   O898    1.289   .     A
C861   C882    1.415   .     A
C861   H889    1.077   .     S
C861   C863    1.390   .     A
C862   C864    1.387   .     A
C862   C881    1.412   .     A
C862   H890    1.074   .     S
C863   H885    1.083   .     S
C864   C178    1.395   1_556 S
C864   H730    1.082   1_655 S
C865   C1100   1.328   .     S
C865   H1125   1.087   .     S
C866   C1333   1.328   1_545 S
C866   H1360   1.087   1_545 S
C867   O903    1.294   .     A
C867   O901    1.299   .     A
C867   C869    1.470   .     S
C868   O904    1.296   .     A
C868   O902    1.301   .     A
C868   C870    1.478   .     S
C869   C873    1.406   .     A
C869   C875    1.397   .     A
C870   C874    1.414   .     A
C870   C876    1.400   .     A
C871   C879    1.418   .     A
C871   C873    1.409   .     A
C872   C880    1.415   .     A
C872   C874    1.409   .     A
C872   O773    1.388   1_655 S
C873   O913    1.385   .     S
C874   O749    1.384   1_655 S
C875   H888    1.079   .     S
C875   C877    1.404   .     A
C876   H887    1.076   .     S
C876   C878    1.402   .     A
C877   C879    1.416   .     A
C877   C881    1.427   .     A
C878   C882    1.430   .     A
C878   C880    1.419   .     A
C879   C161    1.398   1_556 S
C881   C180    1.421   1_556 S
Cu883  O901    1.935   .     S
Cu883  Cu884   2.681   .     S
Cu883  N896    2.014   .     S
Cu883  O900    1.951   .     S
Cu883  O897    1.954   .     S
Cu883  O904    1.913   .     S
Cu884  O902    1.935   .     S
Cu884  O903    1.913   .     S
Cu884  N895    2.014   .     S
Cu884  O898    1.954   .     S
Cu884  O899    1.951   .     S
H891   C1333   1.087   1_545 S
H892   C1100   1.087   .     S
H894   N740    1.029   1_655 S
N895   H737    1.029   1_655 S
N895   N740    1.280   1_655 S
C906   H908    1.113   .     S
C906   H907    1.110   .     S
C906   O749    1.417   1_655 S
C906   C753    1.520   1_655 S
C909   H910    1.111   .     S
C909   H912    1.110   .     S
C909   H911    1.111   .     S
C914   H915    1.112   .     S
C914   C917    1.520   .     S
C914   H916    1.112   .     S
C914   O757    1.409   1_655 S
C917   H918    1.109   .     S
C917   H919    1.110   .     S
C917   H920    1.110   .     S
O921   C922    1.418   .     S
O921   C715    1.387   1_655 S
C922   H1391   1.110   1_545 S
C922   H768    1.113   1_655 S
C922   C1237   1.527   1_645 S
H923   C1156   1.110   .     S
C925   H927    1.109   .     S
C925   C1078   1.527   .     S
C925   H1160   1.109   .     S
H926   C1393   1.109   1_545 S
H928   C769    1.111   1_655 S
O929   C930    1.413   .     S
C930   H932    1.115   .     S
C930   H931    1.108   .     S
C933   H934    1.110   .     S
C933   H935    1.110   .     S
C933   H936    1.111   .     S
C933   C228    1.523   1_556 S
C937   O977    1.284   .     A
C937   C943    1.427   .     S
C937   O975    1.289   .     A
C938   C944    1.427   .     S
C938   O978    1.284   .     A
C938   O976    1.289   .     A
C939   C960    1.415   .     A
C939   H967    1.077   .     S
C939   C941    1.390   .     A
C940   C942    1.387   .     A
C940   C959    1.412   .     A
C940   H968    1.074   .     S
C941   H963    1.083   .     S
C942   C256    1.395   1_556 S
C942   H1042   1.082   .     S
C943   C1178   1.328   .     S
C943   H1203   1.087   .     S
C945   O981    1.294   .     A
C945   O979    1.299   .     A
C945   C947    1.470   .     S
C946   O982    1.296   .     A
C946   O980    1.301   .     A
C946   C948    1.478   .     S
C947   C951    1.406   .     A
C947   C953    1.397   .     A
C948   C952    1.414   .     A
C948   C954    1.400   .     A
C949   C957    1.418   .     A
C949   C951    1.409   .     A
C949   O1155   1.387   1_455 S
C950   C958    1.415   .     A
C950   C952    1.409   .     A
C950   O1085   1.388   .     S
C951   O991    1.385   .     S
C952   O1061   1.384   .     S
C953   H966    1.079   .     S
C953   C955    1.404   .     A
C954   H965    1.076   .     S
C954   C956    1.402   .     A
C955   C957    1.416   .     A
C955   C959    1.427   .     A
C956   C960    1.430   .     A
C956   C958    1.419   .     A
C957   C239    1.398   1_556 S
C959   C258    1.421   1_556 S
Cu961  O979    1.935   .     S
Cu961  Cu962   2.681   .     S
Cu961  N974    2.014   .     S
Cu961  O978    1.951   .     S
Cu961  O975    1.954   .     S
Cu961  O982    1.913   .     S
Cu962  O980    1.935   .     S
Cu962  O981    1.913   .     S
Cu962  N973    2.014   .     S
Cu962  O976    1.954   .     S
Cu962  O977    1.951   .     S
H964   C1098   1.082   1_455 S
H970   C1178   1.087   .     S
H971   N1129   1.029   1_455 S
H972   N1052   1.029   .     S
N973   H1049   1.029   .     S
N973   N1052   1.280   .     S
N974   H1128   1.029   1_455 S
N974   N1129   1.280   1_455 S
O983   C1108   1.384   1_455 S
O983   C1140   1.417   1_455 S
C984   H986    1.113   .     S
C984   H985    1.110   .     S
C984   O1061   1.417   .     S
C984   C1065   1.520   .     S
C987   H988    1.111   .     S
C987   H990    1.110   .     S
C987   H989    1.111   .     S
C987   C1140   1.520   1_455 S
O991   C1148   1.409   1_455 S
C992   H993    1.112   .     S
C992   C995    1.520   .     S
C992   H994    1.112   .     S
C992   O1069   1.409   .     S
C995   H996    1.109   .     S
C995   H997    1.110   .     S
C995   H998    1.110   .     S
O999   C1000   1.418   .     S
O999   C1027   1.387   .     S
C1000  H1080   1.113   .     S
H1001  C1234   1.110   .     S
H1002  C1156   1.113   1_455 S
C1003  H1005   1.109   .     S
C1003  C1390   1.527   1_455 S
C1003  H1238   1.109   .     S
C1003  H1162   1.111   1_455 S
H1006  C1081   1.111   .     S
O1007  C1008   1.413   .     S
O1007  C1106   1.388   1_455 S
C1008  H1010   1.115   .     S
C1008  H1009   1.108   .     S
C1011  H1012   1.110   .     S
C1011  H1013   1.110   .     S
C1011  H1014   1.111   .     S
C1011  C306    1.523   1_556 S
C1015  O1055   1.284   .     A
C1015  C1021   1.427   .     S
C1015  O1053   1.289   .     A
C1016  C1022   1.427   .     S
C1016  O1056   1.284   .     A
C1016  O1054   1.289   .     A
C1017  C1038   1.415   .     A
C1017  H1045   1.077   .     S
C1017  C1019   1.390   .     A
C1018  C1020   1.387   .     A
C1018  C1037   1.412   .     A
C1018  H1046   1.074   .     S
C1019  H1041   1.083   .     S
C1020  C334    1.395   1_556 S
C1020  H1120   1.082   .     S
C1021  C1256   1.328   .     S
C1021  H1281   1.087   .     S
C1023  O1059   1.294   .     A
C1023  O1057   1.299   .     A
C1023  C1025   1.470   .     S
C1024  O1060   1.296   .     A
C1024  O1058   1.301   .     A
C1024  C1026   1.478   .     S
C1025  C1029   1.406   .     A
C1025  C1031   1.397   .     A
C1026  C1030   1.414   .     A
C1026  C1032   1.400   .     A
C1027  C1035   1.418   .     A
C1027  C1029   1.409   .     A
C1028  C1036   1.415   .     A
C1028  C1030   1.409   .     A
C1028  O1163   1.388   .     S
C1029  O1069   1.385   .     S
C1030  O1139   1.384   .     S
C1031  H1044   1.079   .     S
C1031  C1033   1.404   .     A
C1032  H1043   1.076   .     S
C1032  C1034   1.402   .     A
C1033  C1035   1.416   .     A
C1033  C1037   1.427   .     A
C1034  C1038   1.430   .     A
C1034  C1036   1.419   .     A
C1035  C317    1.398   1_556 S
C1037  C336    1.421   1_556 S
Cu1039 O1057   1.935   .     S
Cu1039 Cu1040  2.681   .     S
Cu1039 N1052   2.014   .     S
Cu1039 O1056   1.951   .     S
Cu1039 O1053   1.954   .     S
Cu1039 O1060   1.913   .     S
Cu1040 O1058   1.935   .     S
Cu1040 O1059   1.913   .     S
Cu1040 N1051   2.014   .     S
Cu1040 O1054   1.954   .     S
Cu1040 O1055   1.951   .     S
H1048  C1256   1.087   .     S
H1050  N1130   1.029   .     S
N1051  H1127   1.029   .     S
N1051  N1130   1.280   .     S
C1062  H1064   1.113   .     S
C1062  H1063   1.110   .     S
C1062  O1139   1.417   .     S
C1062  C1143   1.520   .     S
C1065  H1066   1.111   .     S
C1065  H1068   1.110   .     S
C1065  H1067   1.111   .     S
C1070  H1071   1.112   .     S
C1070  C1073   1.520   .     S
C1070  H1072   1.112   .     S
C1070  O1147   1.409   .     S
C1073  H1074   1.109   .     S
C1073  H1075   1.110   .     S
C1073  H1076   1.110   .     S
O1077  C1078   1.418   .     S
O1077  C1105   1.387   .     S
C1078  H1158   1.113   .     S
H1079  C1312   1.110   .     S
C1081  H1083   1.109   .     S
C1081  C1234   1.527   .     S
C1081  H1316   1.109   .     S
H1084  C1159   1.111   .     S
O1085  C1086   1.413   .     S
C1086  H1088   1.115   .     S
C1086  H1087   1.108   .     S
C1089  H1090   1.110   .     S
C1089  H1091   1.110   .     S
C1089  H1092   1.111   .     S
C1089  C384    1.523   1_556 S
C1093  O1133   1.284   .     A
C1093  C1099   1.427   .     S
C1093  O1131   1.289   .     A
C1094  C1100   1.427   .     S
C1094  O1134   1.284   .     A
C1094  O1132   1.289   .     A
C1095  C1116   1.415   .     A
C1095  H1123   1.077   .     S
C1095  C1097   1.390   .     A
C1096  C1098   1.387   .     A
C1096  C1115   1.412   .     A
C1096  H1124   1.074   .     S
C1097  H1119   1.083   .     S
C1098  C412    1.395   1_556 S
C1098  H964    1.082   1_655 S
C1099  C1334   1.328   .     S
C1099  H1359   1.087   .     S
C1101  O1137   1.294   .     A
C1101  O1135   1.299   .     A
C1101  C1103   1.470   .     S
C1102  O1138   1.296   .     A
C1102  O1136   1.301   .     A
C1102  C1104   1.478   .     S
C1103  C1107   1.406   .     A
C1103  C1109   1.397   .     A
C1104  C1108   1.414   .     A
C1104  C1110   1.400   .     A
C1105  C1113   1.418   .     A
C1105  C1107   1.409   .     A
C1106  C1114   1.415   .     A
C1106  C1108   1.409   .     A
C1106  O1007   1.388   1_655 S
C1107  O1147   1.385   .     S
C1108  O983    1.384   1_655 S
C1109  H1122   1.079   .     S
C1109  C1111   1.404   .     A
C1110  H1121   1.076   .     S
C1110  C1112   1.402   .     A
C1111  C1113   1.416   .     A
C1111  C1115   1.427   .     A
C1112  C1116   1.430   .     A
C1112  C1114   1.419   .     A
C1113  C395    1.398   1_556 S
C1115  C414    1.421   1_556 S
Cu1117 O1135   1.935   .     S
Cu1117 Cu1118  2.681   .     S
Cu1117 N1130   2.014   .     S
Cu1117 O1134   1.951   .     S
Cu1117 O1131   1.954   .     S
Cu1117 O1138   1.913   .     S
Cu1118 O1136   1.935   .     S
Cu1118 O1137   1.913   .     S
Cu1118 N1129   2.014   .     S
Cu1118 O1132   1.954   .     S
Cu1118 O1133   1.951   .     S
H1126  C1334   1.087   .     S
H1128  N974    1.029   1_655 S
N1129  H971    1.029   1_655 S
N1129  N974    1.280   1_655 S
C1140  H1142   1.113   .     S
C1140  H1141   1.110   .     S
C1140  O983    1.417   1_655 S
C1140  C987    1.520   1_655 S
C1143  H1144   1.111   .     S
C1143  H1146   1.110   .     S
C1143  H1145   1.111   .     S
C1148  H1149   1.112   .     S
C1148  C1151   1.520   .     S
C1148  H1150   1.112   .     S
C1148  O991    1.409   1_655 S
C1151  H1152   1.109   .     S
C1151  H1153   1.110   .     S
C1151  H1154   1.110   .     S
O1155  C1156   1.418   .     S
O1155  C949    1.387   1_655 S
C1156  H1002   1.113   1_655 S
C1156  C769    1.527   1_655 S
H1157  C1390   1.110   .     S
C1159  H1161   1.109   .     S
C1159  C1312   1.527   .     S
C1159  H1394   1.109   .     S
H1162  C1003   1.111   1_655 S
O1163  C1164   1.413   .     S
C1164  H1166   1.115   .     S
C1164  H1165   1.108   .     S
C1167  H1168   1.110   .     S
C1167  H1169   1.110   .     S
C1167  H1170   1.111   .     S
C1167  C462    1.523   1_556 S
C1171  O1211   1.284   .     A
C1171  C1177   1.427   .     S
C1171  O1209   1.289   .     A
C1172  C1178   1.427   .     S
C1172  O1212   1.284   .     A
C1172  O1210   1.289   .     A
C1173  C1194   1.415   .     A
C1173  H1201   1.077   .     S
C1173  C1175   1.390   .     A
C1174  C1176   1.387   .     A
C1174  C1193   1.412   .     A
C1174  H1202   1.074   .     S
C1175  H1197   1.083   .     S
C1176  C490    1.395   1_556 S
C1176  H1276   1.082   .     S
C1177  C710    1.328   1_565 S
C1177  H735    1.087   1_565 S
C1179  O1215   1.294   .     A
C1179  O1213   1.299   .     A
C1179  C1181   1.470   .     S
C1180  O1216   1.296   .     A
C1180  O1214   1.301   .     A
C1180  C1182   1.478   .     S
C1181  C1185   1.406   .     A
C1181  C1187   1.397   .     A
C1182  C1186   1.414   .     A
C1182  C1188   1.400   .     A
C1183  C1191   1.418   .     A
C1183  C1185   1.409   .     A
C1183  O1389   1.387   1_455 S
C1184  C1192   1.415   .     A
C1184  C1186   1.409   .     A
C1184  O1319   1.388   .     S
C1185  O1225   1.385   .     S
C1186  O1295   1.384   .     S
C1187  H1200   1.079   .     S
C1187  C1189   1.404   .     A
C1188  H1199   1.076   .     S
C1188  C1190   1.402   .     A
C1189  C1191   1.416   .     A
C1189  C1193   1.427   .     A
C1190  C1194   1.430   .     A
C1190  C1192   1.419   .     A
C1191  C473    1.398   1_556 S
C1193  C492    1.421   1_556 S
Cu1195 O1213   1.935   .     S
Cu1195 Cu1196  2.681   .     S
Cu1195 N1208   2.014   .     S
Cu1195 O1212   1.951   .     S
Cu1195 O1209   1.954   .     S
Cu1195 O1216   1.913   .     S
Cu1196 O1214   1.935   .     S
Cu1196 O1215   1.913   .     S
Cu1196 N1207   2.014   .     S
Cu1196 O1210   1.954   .     S
Cu1196 O1211   1.951   .     S
H1198  C1332   1.082   1_455 S
H1204  C710    1.087   1_565 S
H1205  N1363   1.029   1_455 S
H1206  N1286   1.029   .     S
N1207  H1283   1.029   .     S
N1207  N1286   1.280   .     S
N1208  H1362   1.029   1_455 S
N1208  N1363   1.280   1_455 S
O1217  C1342   1.384   1_455 S
O1217  C1374   1.417   1_455 S
C1218  H1220   1.113   .     S
C1218  H1219   1.110   .     S
C1218  O1295   1.417   .     S
C1218  C1299   1.520   .     S
C1221  H1222   1.111   .     S
C1221  H1224   1.110   .     S
C1221  H1223   1.111   .     S
C1221  C1374   1.520   1_455 S
O1225  C1382   1.409   1_455 S
C1226  H1227   1.112   .     S
C1226  C1229   1.520   .     S
C1226  H1228   1.112   .     S
C1226  O1303   1.409   .     S
C1229  H1230   1.109   .     S
C1229  H1231   1.110   .     S
C1229  H1232   1.110   .     S
O1233  C1234   1.418   .     S
O1233  C1261   1.387   .     S
C1234  H1314   1.113   .     S
H1235  C766    1.110   1_565 S
H1236  C1390   1.113   1_455 S
C1237  H1239   1.109   .     S
C1237  C922    1.527   1_465 S
C1237  H770    1.109   1_565 S
C1237  H1396   1.111   1_455 S
H1240  C1315   1.111   .     S
O1241  C1242   1.413   .     S
O1241  C1340   1.388   1_455 S
C1242  H1244   1.115   .     S
C1242  H1243   1.108   .     S
C1245  H1246   1.110   .     S
C1245  H1247   1.110   .     S
C1245  H1248   1.111   .     S
C1245  C540    1.523   1_556 S
C1249  O1289   1.284   .     A
C1249  C1255   1.427   .     S
C1249  O1287   1.289   .     A
C1250  C1256   1.427   .     S
C1250  O1290   1.284   .     A
C1250  O1288   1.289   .     A
C1251  C1272   1.415   .     A
C1251  H1279   1.077   .     S
C1251  C1253   1.390   .     A
C1252  C1254   1.387   .     A
C1252  C1271   1.412   .     A
C1252  H1280   1.074   .     S
C1253  H1275   1.083   .     S
C1254  C568    1.395   1_556 S
C1254  H1354   1.082   .     S
C1255  C788    1.328   1_565 S
C1255  H813    1.087   1_565 S
C1257  O1293   1.294   .     A
C1257  O1291   1.299   .     A
C1257  C1259   1.470   .     S
C1258  O1294   1.296   .     A
C1258  O1292   1.301   .     A
C1258  C1260   1.478   .     S
C1259  C1263   1.406   .     A
C1259  C1265   1.397   .     A
C1260  C1264   1.414   .     A
C1260  C1266   1.400   .     A
C1261  C1269   1.418   .     A
C1261  C1263   1.409   .     A
C1262  C1270   1.415   .     A
C1262  C1264   1.409   .     A
C1262  O1397   1.388   .     S
C1263  O1303   1.385   .     S
C1264  O1373   1.384   .     S
C1265  H1278   1.079   .     S
C1265  C1267   1.404   .     A
C1266  H1277   1.076   .     S
C1266  C1268   1.402   .     A
C1267  C1269   1.416   .     A
C1267  C1271   1.427   .     A
C1268  C1272   1.430   .     A
C1268  C1270   1.419   .     A
C1269  C551    1.398   1_556 S
C1271  C570    1.421   1_556 S
Cu1273 O1291   1.935   .     S
Cu1273 Cu1274  2.681   .     S
Cu1273 N1286   2.014   .     S
Cu1273 O1290   1.951   .     S
Cu1273 O1287   1.954   .     S
Cu1273 O1294   1.913   .     S
Cu1274 O1292   1.935   .     S
Cu1274 O1293   1.913   .     S
Cu1274 N1285   2.014   .     S
Cu1274 O1288   1.954   .     S
Cu1274 O1289   1.951   .     S
H1282  C788    1.087   1_565 S
H1284  N1364   1.029   .     S
N1285  H1361   1.029   .     S
N1285  N1364   1.280   .     S
C1296  H1298   1.113   .     S
C1296  H1297   1.110   .     S
C1296  O1373   1.417   .     S
C1296  C1377   1.520   .     S
C1299  H1300   1.111   .     S
C1299  H1302   1.110   .     S
C1299  H1301   1.111   .     S
C1304  H1305   1.112   .     S
C1304  C1307   1.520   .     S
C1304  H1306   1.112   .     S
C1304  O1381   1.409   .     S
C1307  H1308   1.109   .     S
C1307  H1309   1.110   .     S
C1307  H1310   1.110   .     S
O1311  C1312   1.418   .     S
O1311  C1339   1.387   .     S
C1312  H1392   1.113   .     S
H1313  C844    1.110   1_565 S
C1315  H1317   1.109   .     S
C1315  C766    1.527   1_565 S
C1315  H848    1.109   1_565 S
H1318  C1393   1.111   .     S
O1319  C1320   1.413   .     S
C1320  H1322   1.115   .     S
C1320  H1321   1.108   .     S
C1323  H1324   1.110   .     S
C1323  H1325   1.110   .     S
C1323  H1326   1.111   .     S
C1323  C618    1.523   1_556 S
C1327  O1367   1.284   .     A
C1327  C1333   1.427   .     S
C1327  O1365   1.289   .     A
C1328  C1334   1.427   .     S
C1328  O1368   1.284   .     A
C1328  O1366   1.289   .     A
C1329  C1350   1.415   .     A
C1329  H1357   1.077   .     S
C1329  C1331   1.390   .     A
C1330  C1332   1.387   .     A
C1330  C1349   1.412   .     A
C1330  H1358   1.074   .     S
C1331  H1353   1.083   .     S
C1332  C646    1.395   1_556 S
C1332  H1198   1.082   1_655 S
C1333  C866    1.328   1_565 S
C1333  H891    1.087   1_565 S
C1335  O1371   1.294   .     A
C1335  O1369   1.299   .     A
C1335  C1337   1.470   .     S
C1336  O1372   1.296   .     A
C1336  O1370   1.301   .     A
C1336  C1338   1.478   .     S
C1337  C1341   1.406   .     A
C1337  C1343   1.397   .     A
C1338  C1342   1.414   .     A
C1338  C1344   1.400   .     A
C1339  C1347   1.418   .     A
C1339  C1341   1.409   .     A
C1340  C1348   1.415   .     A
C1340  C1342   1.409   .     A
C1340  O1241   1.388   1_655 S
C1341  O1381   1.385   .     S
C1342  O1217   1.384   1_655 S
C1343  H1356   1.079   .     S
C1343  C1345   1.404   .     A
C1344  H1355   1.076   .     S
C1344  C1346   1.402   .     A
C1345  C1347   1.416   .     A
C1345  C1349   1.427   .     A
C1346  C1350   1.430   .     A
C1346  C1348   1.419   .     A
C1347  C629    1.398   1_556 S
C1349  C648    1.421   1_556 S
Cu1351 O1369   1.935   .     S
Cu1351 Cu1352  2.681   .     S
Cu1351 N1364   2.014   .     S
Cu1351 O1368   1.951   .     S
Cu1351 O1365   1.954   .     S
Cu1351 O1372   1.913   .     S
Cu1352 O1370   1.935   .     S
Cu1352 O1371   1.913   .     S
Cu1352 N1363   2.014   .     S
Cu1352 O1366   1.954   .     S
Cu1352 O1367   1.951   .     S
H1360  C866    1.087   1_565 S
H1362  N1208   1.029   1_655 S
N1363  H1205   1.029   1_655 S
N1363  N1208   1.280   1_655 S
C1374  H1376   1.113   .     S
C1374  H1375   1.110   .     S
C1374  O1217   1.417   1_655 S
C1374  C1221   1.520   1_655 S
C1377  H1378   1.111   .     S
C1377  H1380   1.110   .     S
C1377  H1379   1.111   .     S
C1382  H1383   1.112   .     S
C1382  C1385   1.520   .     S
C1382  H1384   1.112   .     S
C1382  O1225   1.409   1_655 S
C1385  H1386   1.109   .     S
C1385  H1387   1.110   .     S
C1385  H1388   1.110   .     S
O1389  C1390   1.418   .     S
O1389  C1183   1.387   1_655 S
C1390  H1236   1.113   1_655 S
C1390  C1003   1.527   1_655 S
H1391  C922    1.110   1_565 S
C1393  H1395   1.109   .     S
C1393  C844    1.527   1_565 S
C1393  H926    1.109   1_565 S
H1396  C1237   1.111   1_655 S
O1397  C1398   1.413   .     S
C1398  H1400   1.115   .     S
C1398  H1399   1.108   .     S
C1401  H1402   1.110   .     S
C1401  H1403   1.110   .     S
C1401  H1404   1.111   .     S
C1401  C696    1.523   1_556 S
