data_str_m2_o2_o10_pcu_sym.41
_audit_creation_date              2020-01-03
_audit_creation_method            'Materials Studio'
_symmetry_space_group_name_H-M    'P1'
_symmetry_Int_Tables_number       1
_symmetry_cell_setting            triclinic
loop_
_symmetry_equiv_pos_as_xyz
  x,y,z
_cell_length_a                    26.1808
_cell_length_b                    30.2600
_cell_length_c                    27.8685
_cell_angle_alpha                 90.9991
_cell_angle_beta                  98.3701
_cell_angle_gamma                 90.9909
loop_
_atom_site_label
_atom_site_type_symbol
_atom_site_fract_x
_atom_site_fract_y
_atom_site_fract_z
_atom_site_U_iso_or_equiv
_atom_site_adp_type
_atom_site_occupancy
Br1    Br    0.21098   0.11749   0.15597   0.00000  Uiso   1.00
Br2    Br    0.07067   0.37626   0.29389   0.00000  Uiso   1.00
Br3    Br    0.08251   0.18525   0.12141   0.00000  Uiso   1.00
Br4    Br    0.24246   0.32186   0.37748   0.00000  Uiso   1.00
C5     C     0.16774   0.16489   0.24967   0.00000  Uiso   1.00
C6     C     0.19593   0.28067   0.45086   0.00000  Uiso   1.00
C7     C     0.16763   0.24952   0.02747   0.00000  Uiso   1.00
C8     C     0.16719   0.24920   0.47271   0.00000  Uiso   1.00
C9     C     0.06790   0.25001   0.23749   0.00000  Uiso   1.00
C10    C     0.26543   0.25012   0.26251   0.00000  Uiso   1.00
C11    C     0.01250   0.25007   0.23070   0.00000  Uiso   1.00
C12    C     0.32084   0.25023   0.26931   0.00000  Uiso   1.00
C13    C     0.15383   0.04808   0.28968   0.00000  Uiso   1.00
C14    C     0.20687   0.45138   0.23354   0.00000  Uiso   1.00
C15    C     0.15379   0.09394   0.28861   0.00000  Uiso   1.00
C16    C     0.16613   0.33478   0.25032   0.00000  Uiso   1.00
C17    C     0.20557   0.40549   0.23281   0.00000  Uiso   1.00
C18    C     0.16881   0.11636   0.24904   0.00000  Uiso   1.00
C19    C     0.16606   0.38267   0.25123   0.00000  Uiso   1.00
C20    C     0.18460   0.09171   0.21030   0.00000  Uiso   1.00
C21    C     0.12717   0.40589   0.27012   0.00000  Uiso   1.00
C22    C     0.18349   0.04573   0.21138   0.00000  Uiso   1.00
C23    C     0.12807   0.45192   0.26989   0.00000  Uiso   1.00
C24    C     0.16835   0.02360   0.25093   0.00000  Uiso   1.00
C25    C     0.16789   0.47500   0.25169   0.00000  Uiso   1.00
C26    C     0.20461   0.27405   0.06009   0.00000  Uiso   1.00
C27    C     0.13824   0.21774   0.44105   0.00000  Uiso   1.00
C28    C     0.20288   0.27438   0.11040   0.00000  Uiso   1.00
C29    C     0.13788   0.21921   0.39050   0.00000  Uiso   1.00
C30    C     0.13147   0.22464   0.09871   0.00000  Uiso   1.00
C31    C     0.19642   0.28003   0.40062   0.00000  Uiso   1.00
C32    C     0.13072   0.22508   0.04833   0.00000  Uiso   1.00
Cu33   Cu    0.16667   0.25000   0.29822   0.00000  Uiso   1.00
Cu34   Cu    0.16667   0.25001   0.20179   0.00000  Uiso   1.00
H35    H     0.32556   0.24993   0.19376   0.00000  Uiso   1.00
H36    H     0.11614   0.19147   0.45444   0.00000  Uiso   1.00
H37    H     0.23125   0.29379   0.13439   0.00000  Uiso   1.00
H38    H     0.11497   0.19508   0.36716   0.00000  Uiso   1.00
H39    H     0.10076   0.20591   0.02621   0.00000  Uiso   1.00
H40    H     0.21848   0.30623   0.47210   0.00000  Uiso   1.00
H41    H     0.00778   0.25040   0.30624   0.00000  Uiso   1.00
H42    H     0.14290   0.03182   0.32107   0.00000  Uiso   1.00
H43    H     0.23857   0.46835   0.22019   0.00000  Uiso   1.00
H44    H     0.14178   0.11185   0.31892   0.00000  Uiso   1.00
H45    H     0.23586   0.38772   0.21854   0.00000  Uiso   1.00
H46    H     0.19447   0.02725   0.18098   0.00000  Uiso   1.00
H47    H     0.09707   0.46954   0.28305   0.00000  Uiso   1.00
H48    H     0.23546   0.29276   0.04774   0.00000  Uiso   1.00
N49    N     0.16667   0.25001   0.12935   0.00000  Uiso   1.00
N50    N     0.16667   0.24999   0.37066   0.00000  Uiso   1.00
O51    O     0.16667   0.18573   0.29072   0.00000  Uiso   1.00
O52    O     0.16666   0.31428   0.20929   0.00000  Uiso   1.00
O53    O     0.16667   0.18573   0.20928   0.00000  Uiso   1.00
O54    O     0.16666   0.31427   0.29072   0.00000  Uiso   1.00
O55    O     0.09161   0.25000   0.28132   0.00000  Uiso   1.00
O56    O     0.24172   0.25001   0.21868   0.00000  Uiso   1.00
O57    O     0.09161   0.25000   0.19989   0.00000  Uiso   1.00
O58    O     0.24172   0.25000   0.30012   0.00000  Uiso   1.00
Br59   Br    0.54431   0.11749   0.15597   0.00000  Uiso   1.00
Br60   Br    0.40400   0.37626   0.29389   0.00000  Uiso   1.00
Br61   Br    0.41585   0.18525   0.12141   0.00000  Uiso   1.00
Br62   Br    0.57580   0.32186   0.37748   0.00000  Uiso   1.00
C63    C     0.50107   0.16489   0.24967   0.00000  Uiso   1.00
C64    C     0.52927   0.28067   0.45086   0.00000  Uiso   1.00
C65    C     0.50096   0.24952   0.02747   0.00000  Uiso   1.00
C66    C     0.50053   0.24920   0.47271   0.00000  Uiso   1.00
C67    C     0.40124   0.25001   0.23749   0.00000  Uiso   1.00
C68    C     0.59877   0.25012   0.26251   0.00000  Uiso   1.00
C69    C     0.34583   0.25007   0.23070   0.00000  Uiso   1.00
C70    C     0.65417   0.25023   0.26931   0.00000  Uiso   1.00
C71    C     0.48717   0.04808   0.28968   0.00000  Uiso   1.00
C72    C     0.54021   0.45138   0.23354   0.00000  Uiso   1.00
C73    C     0.48712   0.09394   0.28861   0.00000  Uiso   1.00
C74    C     0.49946   0.33478   0.25032   0.00000  Uiso   1.00
C75    C     0.53891   0.40549   0.23281   0.00000  Uiso   1.00
C76    C     0.50215   0.11636   0.24904   0.00000  Uiso   1.00
C77    C     0.49939   0.38267   0.25123   0.00000  Uiso   1.00
C78    C     0.51793   0.09171   0.21030   0.00000  Uiso   1.00
C79    C     0.46050   0.40589   0.27012   0.00000  Uiso   1.00
C80    C     0.51682   0.04573   0.21138   0.00000  Uiso   1.00
C81    C     0.46140   0.45192   0.26989   0.00000  Uiso   1.00
C82    C     0.50168   0.02360   0.25093   0.00000  Uiso   1.00
C83    C     0.50123   0.47500   0.25169   0.00000  Uiso   1.00
C84    C     0.53794   0.27405   0.06009   0.00000  Uiso   1.00
C85    C     0.47157   0.21774   0.44105   0.00000  Uiso   1.00
C86    C     0.53622   0.27438   0.11040   0.00000  Uiso   1.00
C87    C     0.47121   0.21921   0.39050   0.00000  Uiso   1.00
C88    C     0.46481   0.22464   0.09871   0.00000  Uiso   1.00
C89    C     0.52975   0.28003   0.40062   0.00000  Uiso   1.00
C90    C     0.46406   0.22508   0.04833   0.00000  Uiso   1.00
Cu91   Cu    0.50000   0.25000   0.29822   0.00000  Uiso   1.00
Cu92   Cu    0.50000   0.25001   0.20179   0.00000  Uiso   1.00
H93    H     0.65889   0.24993   0.19376   0.00000  Uiso   1.00
H94    H     0.44947   0.19147   0.45444   0.00000  Uiso   1.00
H95    H     0.56458   0.29379   0.13439   0.00000  Uiso   1.00
H96    H     0.44830   0.19508   0.36716   0.00000  Uiso   1.00
H97    H     0.43409   0.20591   0.02621   0.00000  Uiso   1.00
H98    H     0.55181   0.30623   0.47210   0.00000  Uiso   1.00
H99    H     0.34112   0.25040   0.30624   0.00000  Uiso   1.00
H100   H     0.47623   0.03182   0.32107   0.00000  Uiso   1.00
H101   H     0.57190   0.46835   0.22019   0.00000  Uiso   1.00
H102   H     0.47511   0.11185   0.31892   0.00000  Uiso   1.00
H103   H     0.56919   0.38772   0.21854   0.00000  Uiso   1.00
H104   H     0.52780   0.02725   0.18098   0.00000  Uiso   1.00
H105   H     0.43041   0.46954   0.28305   0.00000  Uiso   1.00
H106   H     0.56879   0.29276   0.04774   0.00000  Uiso   1.00
N107   N     0.50000   0.25001   0.12935   0.00000  Uiso   1.00
N108   N     0.50000   0.24999   0.37066   0.00000  Uiso   1.00
O109   O     0.50000   0.18573   0.29072   0.00000  Uiso   1.00
O110   O     0.50000   0.31428   0.20929   0.00000  Uiso   1.00
O111   O     0.50000   0.18573   0.20928   0.00000  Uiso   1.00
O112   O     0.50000   0.31427   0.29072   0.00000  Uiso   1.00
O113   O     0.42495   0.25000   0.28132   0.00000  Uiso   1.00
O114   O     0.57505   0.25001   0.21868   0.00000  Uiso   1.00
O115   O     0.42495   0.25000   0.19989   0.00000  Uiso   1.00
O116   O     0.57505   0.25000   0.30012   0.00000  Uiso   1.00
Br117  Br    0.87764   0.11749   0.15597   0.00000  Uiso   1.00
Br118  Br    0.73733   0.37626   0.29389   0.00000  Uiso   1.00
Br119  Br    0.74918   0.18525   0.12141   0.00000  Uiso   1.00
Br120  Br    0.90913   0.32186   0.37748   0.00000  Uiso   1.00
C121   C     0.83440   0.16489   0.24967   0.00000  Uiso   1.00
C122   C     0.86260   0.28067   0.45086   0.00000  Uiso   1.00
C123   C     0.83430   0.24952   0.02747   0.00000  Uiso   1.00
C124   C     0.83386   0.24920   0.47271   0.00000  Uiso   1.00
C125   C     0.73457   0.25001   0.23749   0.00000  Uiso   1.00
C126   C     0.93210   0.25012   0.26251   0.00000  Uiso   1.00
C127   C     0.67917   0.25007   0.23070   0.00000  Uiso   1.00
C128   C     0.98751   0.25023   0.26931   0.00000  Uiso   1.00
C129   C     0.82050   0.04808   0.28968   0.00000  Uiso   1.00
C130   C     0.87354   0.45138   0.23354   0.00000  Uiso   1.00
C131   C     0.82046   0.09394   0.28861   0.00000  Uiso   1.00
C132   C     0.83280   0.33478   0.25032   0.00000  Uiso   1.00
C133   C     0.87224   0.40549   0.23281   0.00000  Uiso   1.00
C134   C     0.83548   0.11636   0.24904   0.00000  Uiso   1.00
C135   C     0.83272   0.38267   0.25123   0.00000  Uiso   1.00
C136   C     0.85127   0.09171   0.21030   0.00000  Uiso   1.00
C137   C     0.79384   0.40589   0.27012   0.00000  Uiso   1.00
C138   C     0.85016   0.04573   0.21138   0.00000  Uiso   1.00
C139   C     0.79474   0.45192   0.26989   0.00000  Uiso   1.00
C140   C     0.83502   0.02360   0.25093   0.00000  Uiso   1.00
C141   C     0.83456   0.47500   0.25169   0.00000  Uiso   1.00
C142   C     0.87127   0.27405   0.06009   0.00000  Uiso   1.00
C143   C     0.80490   0.21774   0.44105   0.00000  Uiso   1.00
C144   C     0.86955   0.27438   0.11040   0.00000  Uiso   1.00
C145   C     0.80455   0.21921   0.39050   0.00000  Uiso   1.00
C146   C     0.79814   0.22464   0.09871   0.00000  Uiso   1.00
C147   C     0.86309   0.28003   0.40062   0.00000  Uiso   1.00
C148   C     0.79739   0.22508   0.04833   0.00000  Uiso   1.00
Cu149  Cu    0.83333   0.25000   0.29822   0.00000  Uiso   1.00
Cu150  Cu    0.83333   0.25001   0.20179   0.00000  Uiso   1.00
H151   H     0.99223   0.24993   0.19376   0.00000  Uiso   1.00
H152   H     0.78280   0.19147   0.45444   0.00000  Uiso   1.00
H153   H     0.89791   0.29379   0.13439   0.00000  Uiso   1.00
H154   H     0.78164   0.19508   0.36716   0.00000  Uiso   1.00
H155   H     0.76743   0.20591   0.02621   0.00000  Uiso   1.00
H156   H     0.88515   0.30623   0.47210   0.00000  Uiso   1.00
H157   H     0.67445   0.25040   0.30624   0.00000  Uiso   1.00
H158   H     0.80956   0.03182   0.32107   0.00000  Uiso   1.00
H159   H     0.90524   0.46835   0.22019   0.00000  Uiso   1.00
H160   H     0.80845   0.11185   0.31892   0.00000  Uiso   1.00
H161   H     0.90252   0.38772   0.21854   0.00000  Uiso   1.00
H162   H     0.86114   0.02725   0.18098   0.00000  Uiso   1.00
H163   H     0.76374   0.46954   0.28305   0.00000  Uiso   1.00
H164   H     0.90213   0.29276   0.04774   0.00000  Uiso   1.00
N165   N     0.83333   0.25001   0.12935   0.00000  Uiso   1.00
N166   N     0.83333   0.24999   0.37066   0.00000  Uiso   1.00
O167   O     0.83334   0.18573   0.29072   0.00000  Uiso   1.00
O168   O     0.83333   0.31428   0.20929   0.00000  Uiso   1.00
O169   O     0.83334   0.18573   0.20928   0.00000  Uiso   1.00
O170   O     0.83333   0.31427   0.29072   0.00000  Uiso   1.00
O171   O     0.75828   0.25000   0.28132   0.00000  Uiso   1.00
O172   O     0.90839   0.25001   0.21868   0.00000  Uiso   1.00
O173   O     0.75828   0.25000   0.19989   0.00000  Uiso   1.00
O174   O     0.90839   0.25000   0.30012   0.00000  Uiso   1.00
Br175  Br    0.21098   0.61749   0.15597   0.00000  Uiso   1.00
Br176  Br    0.07067   0.87626   0.29389   0.00000  Uiso   1.00
Br177  Br    0.08251   0.68525   0.12141   0.00000  Uiso   1.00
Br178  Br    0.24246   0.82186   0.37748   0.00000  Uiso   1.00
C179   C     0.16774   0.66489   0.24967   0.00000  Uiso   1.00
C180   C     0.19593   0.78067   0.45086   0.00000  Uiso   1.00
C181   C     0.16763   0.74952   0.02747   0.00000  Uiso   1.00
C182   C     0.16719   0.74920   0.47271   0.00000  Uiso   1.00
C183   C     0.06790   0.75001   0.23749   0.00000  Uiso   1.00
C184   C     0.26543   0.75012   0.26251   0.00000  Uiso   1.00
C185   C     0.01250   0.75007   0.23070   0.00000  Uiso   1.00
C186   C     0.32084   0.75023   0.26931   0.00000  Uiso   1.00
C187   C     0.15383   0.54808   0.28968   0.00000  Uiso   1.00
C188   C     0.20687   0.95138   0.23354   0.00000  Uiso   1.00
C189   C     0.15379   0.59394   0.28861   0.00000  Uiso   1.00
C190   C     0.16613   0.83478   0.25032   0.00000  Uiso   1.00
C191   C     0.20557   0.90549   0.23281   0.00000  Uiso   1.00
C192   C     0.16881   0.61636   0.24904   0.00000  Uiso   1.00
C193   C     0.16606   0.88267   0.25123   0.00000  Uiso   1.00
C194   C     0.18460   0.59171   0.21030   0.00000  Uiso   1.00
C195   C     0.12717   0.90589   0.27012   0.00000  Uiso   1.00
C196   C     0.18349   0.54573   0.21138   0.00000  Uiso   1.00
C197   C     0.12807   0.95192   0.26989   0.00000  Uiso   1.00
C198   C     0.16835   0.52360   0.25093   0.00000  Uiso   1.00
C199   C     0.16789   0.97500   0.25169   0.00000  Uiso   1.00
C200   C     0.20461   0.77405   0.06009   0.00000  Uiso   1.00
C201   C     0.13824   0.71774   0.44105   0.00000  Uiso   1.00
C202   C     0.20288   0.77438   0.11040   0.00000  Uiso   1.00
C203   C     0.13788   0.71921   0.39050   0.00000  Uiso   1.00
C204   C     0.13147   0.72464   0.09871   0.00000  Uiso   1.00
C205   C     0.19642   0.78003   0.40062   0.00000  Uiso   1.00
C206   C     0.13072   0.72508   0.04833   0.00000  Uiso   1.00
Cu207  Cu    0.16667   0.75000   0.29822   0.00000  Uiso   1.00
Cu208  Cu    0.16667   0.75001   0.20179   0.00000  Uiso   1.00
H209   H     0.32556   0.74993   0.19376   0.00000  Uiso   1.00
H210   H     0.11614   0.69147   0.45444   0.00000  Uiso   1.00
H211   H     0.23125   0.79379   0.13439   0.00000  Uiso   1.00
H212   H     0.11497   0.69508   0.36716   0.00000  Uiso   1.00
H213   H     0.10076   0.70591   0.02621   0.00000  Uiso   1.00
H214   H     0.21848   0.80623   0.47210   0.00000  Uiso   1.00
H215   H     0.00778   0.75040   0.30624   0.00000  Uiso   1.00
H216   H     0.14290   0.53182   0.32107   0.00000  Uiso   1.00
H217   H     0.23857   0.96835   0.22019   0.00000  Uiso   1.00
H218   H     0.14178   0.61185   0.31892   0.00000  Uiso   1.00
H219   H     0.23586   0.88772   0.21854   0.00000  Uiso   1.00
H220   H     0.19447   0.52725   0.18098   0.00000  Uiso   1.00
H221   H     0.09707   0.96954   0.28305   0.00000  Uiso   1.00
H222   H     0.23546   0.79276   0.04774   0.00000  Uiso   1.00
N223   N     0.16667   0.75001   0.12935   0.00000  Uiso   1.00
N224   N     0.16667   0.74999   0.37066   0.00000  Uiso   1.00
O225   O     0.16667   0.68573   0.29072   0.00000  Uiso   1.00
O226   O     0.16666   0.81428   0.20929   0.00000  Uiso   1.00
O227   O     0.16667   0.68573   0.20928   0.00000  Uiso   1.00
O228   O     0.16666   0.81427   0.29072   0.00000  Uiso   1.00
O229   O     0.09161   0.75000   0.28132   0.00000  Uiso   1.00
O230   O     0.24172   0.75001   0.21868   0.00000  Uiso   1.00
O231   O     0.09161   0.75000   0.19989   0.00000  Uiso   1.00
O232   O     0.24172   0.75000   0.30012   0.00000  Uiso   1.00
Br233  Br    0.54431   0.61749   0.15597   0.00000  Uiso   1.00
Br234  Br    0.40400   0.87626   0.29389   0.00000  Uiso   1.00
Br235  Br    0.41585   0.68525   0.12141   0.00000  Uiso   1.00
Br236  Br    0.57580   0.82186   0.37748   0.00000  Uiso   1.00
C237   C     0.50107   0.66489   0.24967   0.00000  Uiso   1.00
C238   C     0.52927   0.78067   0.45086   0.00000  Uiso   1.00
C239   C     0.50096   0.74952   0.02747   0.00000  Uiso   1.00
C240   C     0.50053   0.74920   0.47271   0.00000  Uiso   1.00
C241   C     0.40124   0.75001   0.23749   0.00000  Uiso   1.00
C242   C     0.59877   0.75012   0.26251   0.00000  Uiso   1.00
C243   C     0.34583   0.75007   0.23070   0.00000  Uiso   1.00
C244   C     0.65417   0.75023   0.26931   0.00000  Uiso   1.00
C245   C     0.48717   0.54808   0.28968   0.00000  Uiso   1.00
C246   C     0.54021   0.95138   0.23354   0.00000  Uiso   1.00
C247   C     0.48712   0.59394   0.28861   0.00000  Uiso   1.00
C248   C     0.49946   0.83478   0.25032   0.00000  Uiso   1.00
C249   C     0.53891   0.90549   0.23281   0.00000  Uiso   1.00
C250   C     0.50215   0.61636   0.24904   0.00000  Uiso   1.00
C251   C     0.49939   0.88267   0.25123   0.00000  Uiso   1.00
C252   C     0.51793   0.59171   0.21030   0.00000  Uiso   1.00
C253   C     0.46050   0.90589   0.27012   0.00000  Uiso   1.00
C254   C     0.51682   0.54573   0.21138   0.00000  Uiso   1.00
C255   C     0.46140   0.95192   0.26989   0.00000  Uiso   1.00
C256   C     0.50168   0.52360   0.25093   0.00000  Uiso   1.00
C257   C     0.50123   0.97500   0.25169   0.00000  Uiso   1.00
C258   C     0.53794   0.77405   0.06009   0.00000  Uiso   1.00
C259   C     0.47157   0.71774   0.44105   0.00000  Uiso   1.00
C260   C     0.53622   0.77438   0.11040   0.00000  Uiso   1.00
C261   C     0.47121   0.71921   0.39050   0.00000  Uiso   1.00
C262   C     0.46481   0.72464   0.09871   0.00000  Uiso   1.00
C263   C     0.52975   0.78003   0.40062   0.00000  Uiso   1.00
C264   C     0.46406   0.72508   0.04833   0.00000  Uiso   1.00
Cu265  Cu    0.50000   0.75000   0.29822   0.00000  Uiso   1.00
Cu266  Cu    0.50000   0.75001   0.20179   0.00000  Uiso   1.00
H267   H     0.65889   0.74993   0.19376   0.00000  Uiso   1.00
H268   H     0.44947   0.69147   0.45444   0.00000  Uiso   1.00
H269   H     0.56458   0.79379   0.13439   0.00000  Uiso   1.00
H270   H     0.44830   0.69508   0.36716   0.00000  Uiso   1.00
H271   H     0.43409   0.70591   0.02621   0.00000  Uiso   1.00
H272   H     0.55181   0.80623   0.47210   0.00000  Uiso   1.00
H273   H     0.34112   0.75040   0.30624   0.00000  Uiso   1.00
H274   H     0.47623   0.53182   0.32107   0.00000  Uiso   1.00
H275   H     0.57190   0.96835   0.22019   0.00000  Uiso   1.00
H276   H     0.47511   0.61185   0.31892   0.00000  Uiso   1.00
H277   H     0.56919   0.88772   0.21854   0.00000  Uiso   1.00
H278   H     0.52780   0.52725   0.18098   0.00000  Uiso   1.00
H279   H     0.43041   0.96954   0.28305   0.00000  Uiso   1.00
H280   H     0.56879   0.79276   0.04774   0.00000  Uiso   1.00
N281   N     0.50000   0.75001   0.12935   0.00000  Uiso   1.00
N282   N     0.50000   0.74999   0.37066   0.00000  Uiso   1.00
O283   O     0.50000   0.68573   0.29072   0.00000  Uiso   1.00
O284   O     0.50000   0.81428   0.20929   0.00000  Uiso   1.00
O285   O     0.50000   0.68573   0.20928   0.00000  Uiso   1.00
O286   O     0.50000   0.81427   0.29072   0.00000  Uiso   1.00
O287   O     0.42495   0.75000   0.28132   0.00000  Uiso   1.00
O288   O     0.57505   0.75001   0.21868   0.00000  Uiso   1.00
O289   O     0.42495   0.75000   0.19989   0.00000  Uiso   1.00
O290   O     0.57505   0.75000   0.30012   0.00000  Uiso   1.00
Br291  Br    0.87764   0.61749   0.15597   0.00000  Uiso   1.00
Br292  Br    0.73733   0.87626   0.29389   0.00000  Uiso   1.00
Br293  Br    0.74918   0.68525   0.12141   0.00000  Uiso   1.00
Br294  Br    0.90913   0.82186   0.37748   0.00000  Uiso   1.00
C295   C     0.83440   0.66489   0.24967   0.00000  Uiso   1.00
C296   C     0.86260   0.78067   0.45086   0.00000  Uiso   1.00
C297   C     0.83430   0.74952   0.02747   0.00000  Uiso   1.00
C298   C     0.83386   0.74920   0.47271   0.00000  Uiso   1.00
C299   C     0.73457   0.75001   0.23749   0.00000  Uiso   1.00
C300   C     0.93210   0.75012   0.26251   0.00000  Uiso   1.00
C301   C     0.67917   0.75007   0.23070   0.00000  Uiso   1.00
C302   C     0.98751   0.75023   0.26931   0.00000  Uiso   1.00
C303   C     0.82050   0.54808   0.28968   0.00000  Uiso   1.00
C304   C     0.87354   0.95138   0.23354   0.00000  Uiso   1.00
C305   C     0.82046   0.59394   0.28861   0.00000  Uiso   1.00
C306   C     0.83280   0.83478   0.25032   0.00000  Uiso   1.00
C307   C     0.87224   0.90549   0.23281   0.00000  Uiso   1.00
C308   C     0.83548   0.61636   0.24904   0.00000  Uiso   1.00
C309   C     0.83272   0.88267   0.25123   0.00000  Uiso   1.00
C310   C     0.85127   0.59171   0.21030   0.00000  Uiso   1.00
C311   C     0.79384   0.90589   0.27012   0.00000  Uiso   1.00
C312   C     0.85016   0.54573   0.21138   0.00000  Uiso   1.00
C313   C     0.79474   0.95192   0.26989   0.00000  Uiso   1.00
C314   C     0.83502   0.52360   0.25093   0.00000  Uiso   1.00
C315   C     0.83456   0.97500   0.25169   0.00000  Uiso   1.00
C316   C     0.87127   0.77405   0.06009   0.00000  Uiso   1.00
C317   C     0.80490   0.71774   0.44105   0.00000  Uiso   1.00
C318   C     0.86955   0.77438   0.11040   0.00000  Uiso   1.00
C319   C     0.80455   0.71921   0.39050   0.00000  Uiso   1.00
C320   C     0.79814   0.72464   0.09871   0.00000  Uiso   1.00
C321   C     0.86309   0.78003   0.40062   0.00000  Uiso   1.00
C322   C     0.79739   0.72508   0.04833   0.00000  Uiso   1.00
Cu323  Cu    0.83333   0.75000   0.29822   0.00000  Uiso   1.00
Cu324  Cu    0.83333   0.75001   0.20179   0.00000  Uiso   1.00
H325   H     0.99223   0.74993   0.19376   0.00000  Uiso   1.00
H326   H     0.78280   0.69147   0.45444   0.00000  Uiso   1.00
H327   H     0.89791   0.79379   0.13439   0.00000  Uiso   1.00
H328   H     0.78164   0.69508   0.36716   0.00000  Uiso   1.00
H329   H     0.76743   0.70591   0.02621   0.00000  Uiso   1.00
H330   H     0.88515   0.80623   0.47210   0.00000  Uiso   1.00
H331   H     0.67445   0.75040   0.30624   0.00000  Uiso   1.00
H332   H     0.80956   0.53182   0.32107   0.00000  Uiso   1.00
H333   H     0.90524   0.96835   0.22019   0.00000  Uiso   1.00
H334   H     0.80845   0.61185   0.31892   0.00000  Uiso   1.00
H335   H     0.90252   0.88772   0.21854   0.00000  Uiso   1.00
H336   H     0.86114   0.52725   0.18098   0.00000  Uiso   1.00
H337   H     0.76374   0.96954   0.28305   0.00000  Uiso   1.00
H338   H     0.90213   0.79276   0.04774   0.00000  Uiso   1.00
N339   N     0.83333   0.75001   0.12935   0.00000  Uiso   1.00
N340   N     0.83333   0.74999   0.37066   0.00000  Uiso   1.00
O341   O     0.83334   0.68573   0.29072   0.00000  Uiso   1.00
O342   O     0.83333   0.81428   0.20929   0.00000  Uiso   1.00
O343   O     0.83334   0.68573   0.20928   0.00000  Uiso   1.00
O344   O     0.83333   0.81427   0.29072   0.00000  Uiso   1.00
O345   O     0.75828   0.75000   0.28132   0.00000  Uiso   1.00
O346   O     0.90839   0.75001   0.21868   0.00000  Uiso   1.00
O347   O     0.75828   0.75000   0.19989   0.00000  Uiso   1.00
O348   O     0.90839   0.75000   0.30012   0.00000  Uiso   1.00
Br349  Br    0.21098   0.11749   0.65597   0.00000  Uiso   1.00
Br350  Br    0.07067   0.37626   0.79389   0.00000  Uiso   1.00
Br351  Br    0.08251   0.18525   0.62141   0.00000  Uiso   1.00
Br352  Br    0.24246   0.32186   0.87748   0.00000  Uiso   1.00
C353   C     0.16774   0.16489   0.74967   0.00000  Uiso   1.00
C354   C     0.19593   0.28067   0.95086   0.00000  Uiso   1.00
C355   C     0.16763   0.24952   0.52747   0.00000  Uiso   1.00
C356   C     0.16719   0.24920   0.97271   0.00000  Uiso   1.00
C357   C     0.06790   0.25001   0.73749   0.00000  Uiso   1.00
C358   C     0.26543   0.25012   0.76251   0.00000  Uiso   1.00
C359   C     0.01250   0.25007   0.73070   0.00000  Uiso   1.00
C360   C     0.32084   0.25023   0.76931   0.00000  Uiso   1.00
C361   C     0.15383   0.04808   0.78968   0.00000  Uiso   1.00
C362   C     0.20687   0.45138   0.73354   0.00000  Uiso   1.00
C363   C     0.15379   0.09394   0.78861   0.00000  Uiso   1.00
C364   C     0.16613   0.33478   0.75032   0.00000  Uiso   1.00
C365   C     0.20557   0.40549   0.73281   0.00000  Uiso   1.00
C366   C     0.16881   0.11636   0.74904   0.00000  Uiso   1.00
C367   C     0.16606   0.38267   0.75123   0.00000  Uiso   1.00
C368   C     0.18460   0.09171   0.71030   0.00000  Uiso   1.00
C369   C     0.12717   0.40589   0.77012   0.00000  Uiso   1.00
C370   C     0.18349   0.04573   0.71138   0.00000  Uiso   1.00
C371   C     0.12807   0.45192   0.76989   0.00000  Uiso   1.00
C372   C     0.16835   0.02360   0.75093   0.00000  Uiso   1.00
C373   C     0.16789   0.47500   0.75169   0.00000  Uiso   1.00
C374   C     0.20461   0.27405   0.56009   0.00000  Uiso   1.00
C375   C     0.13824   0.21774   0.94105   0.00000  Uiso   1.00
C376   C     0.20288   0.27438   0.61040   0.00000  Uiso   1.00
C377   C     0.13788   0.21921   0.89050   0.00000  Uiso   1.00
C378   C     0.13147   0.22464   0.59871   0.00000  Uiso   1.00
C379   C     0.19642   0.28003   0.90062   0.00000  Uiso   1.00
C380   C     0.13072   0.22508   0.54833   0.00000  Uiso   1.00
Cu381  Cu    0.16667   0.25000   0.79822   0.00000  Uiso   1.00
Cu382  Cu    0.16667   0.25001   0.70179   0.00000  Uiso   1.00
H383   H     0.32556   0.24993   0.69376   0.00000  Uiso   1.00
H384   H     0.11614   0.19147   0.95444   0.00000  Uiso   1.00
H385   H     0.23125   0.29379   0.63439   0.00000  Uiso   1.00
H386   H     0.11497   0.19508   0.86716   0.00000  Uiso   1.00
H387   H     0.10076   0.20591   0.52621   0.00000  Uiso   1.00
H388   H     0.21848   0.30623   0.97210   0.00000  Uiso   1.00
H389   H     0.00778   0.25040   0.80624   0.00000  Uiso   1.00
H390   H     0.14290   0.03182   0.82107   0.00000  Uiso   1.00
H391   H     0.23857   0.46835   0.72019   0.00000  Uiso   1.00
H392   H     0.14178   0.11185   0.81892   0.00000  Uiso   1.00
H393   H     0.23586   0.38772   0.71854   0.00000  Uiso   1.00
H394   H     0.19447   0.02725   0.68098   0.00000  Uiso   1.00
H395   H     0.09707   0.46954   0.78305   0.00000  Uiso   1.00
H396   H     0.23546   0.29276   0.54774   0.00000  Uiso   1.00
N397   N     0.16667   0.25001   0.62935   0.00000  Uiso   1.00
N398   N     0.16667   0.24999   0.87066   0.00000  Uiso   1.00
O399   O     0.16667   0.18573   0.79072   0.00000  Uiso   1.00
O400   O     0.16666   0.31428   0.70929   0.00000  Uiso   1.00
O401   O     0.16667   0.18573   0.70928   0.00000  Uiso   1.00
O402   O     0.16666   0.31427   0.79072   0.00000  Uiso   1.00
O403   O     0.09161   0.25000   0.78132   0.00000  Uiso   1.00
O404   O     0.24172   0.25001   0.71868   0.00000  Uiso   1.00
O405   O     0.09161   0.25000   0.69989   0.00000  Uiso   1.00
O406   O     0.24172   0.25000   0.80012   0.00000  Uiso   1.00
Br407  Br    0.54431   0.11749   0.65597   0.00000  Uiso   1.00
Br408  Br    0.40400   0.37626   0.79389   0.00000  Uiso   1.00
Br409  Br    0.41585   0.18525   0.62141   0.00000  Uiso   1.00
Br410  Br    0.57580   0.32186   0.87748   0.00000  Uiso   1.00
C411   C     0.50107   0.16489   0.74967   0.00000  Uiso   1.00
C412   C     0.52927   0.28067   0.95086   0.00000  Uiso   1.00
C413   C     0.50096   0.24952   0.52747   0.00000  Uiso   1.00
C414   C     0.50053   0.24920   0.97271   0.00000  Uiso   1.00
C415   C     0.40124   0.25001   0.73749   0.00000  Uiso   1.00
C416   C     0.59877   0.25012   0.76251   0.00000  Uiso   1.00
C417   C     0.34583   0.25007   0.73070   0.00000  Uiso   1.00
C418   C     0.65417   0.25023   0.76931   0.00000  Uiso   1.00
C419   C     0.48717   0.04808   0.78968   0.00000  Uiso   1.00
C420   C     0.54021   0.45138   0.73354   0.00000  Uiso   1.00
C421   C     0.48712   0.09394   0.78861   0.00000  Uiso   1.00
C422   C     0.49946   0.33478   0.75032   0.00000  Uiso   1.00
C423   C     0.53891   0.40549   0.73281   0.00000  Uiso   1.00
C424   C     0.50215   0.11636   0.74904   0.00000  Uiso   1.00
C425   C     0.49939   0.38267   0.75123   0.00000  Uiso   1.00
C426   C     0.51793   0.09171   0.71030   0.00000  Uiso   1.00
C427   C     0.46050   0.40589   0.77012   0.00000  Uiso   1.00
C428   C     0.51682   0.04573   0.71138   0.00000  Uiso   1.00
C429   C     0.46140   0.45192   0.76989   0.00000  Uiso   1.00
C430   C     0.50168   0.02360   0.75093   0.00000  Uiso   1.00
C431   C     0.50123   0.47500   0.75169   0.00000  Uiso   1.00
C432   C     0.53794   0.27405   0.56009   0.00000  Uiso   1.00
C433   C     0.47157   0.21774   0.94105   0.00000  Uiso   1.00
C434   C     0.53622   0.27438   0.61040   0.00000  Uiso   1.00
C435   C     0.47121   0.21921   0.89050   0.00000  Uiso   1.00
C436   C     0.46481   0.22464   0.59871   0.00000  Uiso   1.00
C437   C     0.52975   0.28003   0.90062   0.00000  Uiso   1.00
C438   C     0.46406   0.22508   0.54833   0.00000  Uiso   1.00
Cu439  Cu    0.50000   0.25000   0.79822   0.00000  Uiso   1.00
Cu440  Cu    0.50000   0.25001   0.70179   0.00000  Uiso   1.00
H441   H     0.65889   0.24993   0.69376   0.00000  Uiso   1.00
H442   H     0.44947   0.19147   0.95444   0.00000  Uiso   1.00
H443   H     0.56458   0.29379   0.63439   0.00000  Uiso   1.00
H444   H     0.44830   0.19508   0.86716   0.00000  Uiso   1.00
H445   H     0.43409   0.20591   0.52621   0.00000  Uiso   1.00
H446   H     0.55181   0.30623   0.97210   0.00000  Uiso   1.00
H447   H     0.34112   0.25040   0.80624   0.00000  Uiso   1.00
H448   H     0.47623   0.03182   0.82107   0.00000  Uiso   1.00
H449   H     0.57190   0.46835   0.72019   0.00000  Uiso   1.00
H450   H     0.47511   0.11185   0.81892   0.00000  Uiso   1.00
H451   H     0.56919   0.38772   0.71854   0.00000  Uiso   1.00
H452   H     0.52780   0.02725   0.68098   0.00000  Uiso   1.00
H453   H     0.43041   0.46954   0.78305   0.00000  Uiso   1.00
H454   H     0.56879   0.29276   0.54774   0.00000  Uiso   1.00
N455   N     0.50000   0.25001   0.62935   0.00000  Uiso   1.00
N456   N     0.50000   0.24999   0.87066   0.00000  Uiso   1.00
O457   O     0.50000   0.18573   0.79072   0.00000  Uiso   1.00
O458   O     0.50000   0.31428   0.70929   0.00000  Uiso   1.00
O459   O     0.50000   0.18573   0.70928   0.00000  Uiso   1.00
O460   O     0.50000   0.31427   0.79072   0.00000  Uiso   1.00
O461   O     0.42495   0.25000   0.78132   0.00000  Uiso   1.00
O462   O     0.57505   0.25001   0.71868   0.00000  Uiso   1.00
O463   O     0.42495   0.25000   0.69989   0.00000  Uiso   1.00
O464   O     0.57505   0.25000   0.80012   0.00000  Uiso   1.00
Br465  Br    0.87764   0.11749   0.65597   0.00000  Uiso   1.00
Br466  Br    0.73733   0.37626   0.79389   0.00000  Uiso   1.00
Br467  Br    0.74918   0.18525   0.62141   0.00000  Uiso   1.00
Br468  Br    0.90913   0.32186   0.87748   0.00000  Uiso   1.00
C469   C     0.83440   0.16489   0.74967   0.00000  Uiso   1.00
C470   C     0.86260   0.28067   0.95086   0.00000  Uiso   1.00
C471   C     0.83430   0.24952   0.52747   0.00000  Uiso   1.00
C472   C     0.83386   0.24920   0.97271   0.00000  Uiso   1.00
C473   C     0.73457   0.25001   0.73749   0.00000  Uiso   1.00
C474   C     0.93210   0.25012   0.76251   0.00000  Uiso   1.00
C475   C     0.67917   0.25007   0.73070   0.00000  Uiso   1.00
C476   C     0.98751   0.25023   0.76931   0.00000  Uiso   1.00
C477   C     0.82050   0.04808   0.78968   0.00000  Uiso   1.00
C478   C     0.87354   0.45138   0.73354   0.00000  Uiso   1.00
C479   C     0.82046   0.09394   0.78861   0.00000  Uiso   1.00
C480   C     0.83280   0.33478   0.75032   0.00000  Uiso   1.00
C481   C     0.87224   0.40549   0.73281   0.00000  Uiso   1.00
C482   C     0.83548   0.11636   0.74904   0.00000  Uiso   1.00
C483   C     0.83272   0.38267   0.75123   0.00000  Uiso   1.00
C484   C     0.85127   0.09171   0.71030   0.00000  Uiso   1.00
C485   C     0.79384   0.40589   0.77012   0.00000  Uiso   1.00
C486   C     0.85016   0.04573   0.71138   0.00000  Uiso   1.00
C487   C     0.79474   0.45192   0.76989   0.00000  Uiso   1.00
C488   C     0.83502   0.02360   0.75093   0.00000  Uiso   1.00
C489   C     0.83456   0.47500   0.75169   0.00000  Uiso   1.00
C490   C     0.87127   0.27405   0.56009   0.00000  Uiso   1.00
C491   C     0.80490   0.21774   0.94105   0.00000  Uiso   1.00
C492   C     0.86955   0.27438   0.61040   0.00000  Uiso   1.00
C493   C     0.80455   0.21921   0.89050   0.00000  Uiso   1.00
C494   C     0.79814   0.22464   0.59871   0.00000  Uiso   1.00
C495   C     0.86309   0.28003   0.90062   0.00000  Uiso   1.00
C496   C     0.79739   0.22508   0.54833   0.00000  Uiso   1.00
Cu497  Cu    0.83333   0.25000   0.79822   0.00000  Uiso   1.00
Cu498  Cu    0.83333   0.25001   0.70179   0.00000  Uiso   1.00
H499   H     0.99223   0.24993   0.69376   0.00000  Uiso   1.00
H500   H     0.78280   0.19147   0.95444   0.00000  Uiso   1.00
H501   H     0.89791   0.29379   0.63439   0.00000  Uiso   1.00
H502   H     0.78164   0.19508   0.86716   0.00000  Uiso   1.00
H503   H     0.76743   0.20591   0.52621   0.00000  Uiso   1.00
H504   H     0.88515   0.30623   0.97210   0.00000  Uiso   1.00
H505   H     0.67445   0.25040   0.80624   0.00000  Uiso   1.00
H506   H     0.80956   0.03182   0.82107   0.00000  Uiso   1.00
H507   H     0.90524   0.46835   0.72019   0.00000  Uiso   1.00
H508   H     0.80845   0.11185   0.81892   0.00000  Uiso   1.00
H509   H     0.90252   0.38772   0.71854   0.00000  Uiso   1.00
H510   H     0.86114   0.02725   0.68098   0.00000  Uiso   1.00
H511   H     0.76374   0.46954   0.78305   0.00000  Uiso   1.00
H512   H     0.90213   0.29276   0.54774   0.00000  Uiso   1.00
N513   N     0.83333   0.25001   0.62935   0.00000  Uiso   1.00
N514   N     0.83333   0.24999   0.87066   0.00000  Uiso   1.00
O515   O     0.83334   0.18573   0.79072   0.00000  Uiso   1.00
O516   O     0.83333   0.31428   0.70929   0.00000  Uiso   1.00
O517   O     0.83334   0.18573   0.70928   0.00000  Uiso   1.00
O518   O     0.83333   0.31427   0.79072   0.00000  Uiso   1.00
O519   O     0.75828   0.25000   0.78132   0.00000  Uiso   1.00
O520   O     0.90839   0.25001   0.71868   0.00000  Uiso   1.00
O521   O     0.75828   0.25000   0.69989   0.00000  Uiso   1.00
O522   O     0.90839   0.25000   0.80012   0.00000  Uiso   1.00
Br523  Br    0.21098   0.61749   0.65597   0.00000  Uiso   1.00
Br524  Br    0.07067   0.87626   0.79389   0.00000  Uiso   1.00
Br525  Br    0.08251   0.68525   0.62141   0.00000  Uiso   1.00
Br526  Br    0.24246   0.82186   0.87748   0.00000  Uiso   1.00
C527   C     0.16774   0.66489   0.74967   0.00000  Uiso   1.00
C528   C     0.19593   0.78067   0.95086   0.00000  Uiso   1.00
C529   C     0.16763   0.74952   0.52747   0.00000  Uiso   1.00
C530   C     0.16719   0.74920   0.97271   0.00000  Uiso   1.00
C531   C     0.06790   0.75001   0.73749   0.00000  Uiso   1.00
C532   C     0.26543   0.75012   0.76251   0.00000  Uiso   1.00
C533   C     0.01250   0.75007   0.73070   0.00000  Uiso   1.00
C534   C     0.32084   0.75023   0.76931   0.00000  Uiso   1.00
C535   C     0.15383   0.54808   0.78968   0.00000  Uiso   1.00
C536   C     0.20687   0.95138   0.73354   0.00000  Uiso   1.00
C537   C     0.15379   0.59394   0.78861   0.00000  Uiso   1.00
C538   C     0.16613   0.83478   0.75032   0.00000  Uiso   1.00
C539   C     0.20557   0.90549   0.73281   0.00000  Uiso   1.00
C540   C     0.16881   0.61636   0.74904   0.00000  Uiso   1.00
C541   C     0.16606   0.88267   0.75123   0.00000  Uiso   1.00
C542   C     0.18460   0.59171   0.71030   0.00000  Uiso   1.00
C543   C     0.12717   0.90589   0.77012   0.00000  Uiso   1.00
C544   C     0.18349   0.54573   0.71138   0.00000  Uiso   1.00
C545   C     0.12807   0.95192   0.76989   0.00000  Uiso   1.00
C546   C     0.16835   0.52360   0.75093   0.00000  Uiso   1.00
C547   C     0.16789   0.97500   0.75169   0.00000  Uiso   1.00
C548   C     0.20461   0.77405   0.56009   0.00000  Uiso   1.00
C549   C     0.13824   0.71774   0.94105   0.00000  Uiso   1.00
C550   C     0.20288   0.77438   0.61040   0.00000  Uiso   1.00
C551   C     0.13788   0.71921   0.89050   0.00000  Uiso   1.00
C552   C     0.13147   0.72464   0.59871   0.00000  Uiso   1.00
C553   C     0.19642   0.78003   0.90062   0.00000  Uiso   1.00
C554   C     0.13072   0.72508   0.54833   0.00000  Uiso   1.00
Cu555  Cu    0.16667   0.75000   0.79822   0.00000  Uiso   1.00
Cu556  Cu    0.16667   0.75001   0.70179   0.00000  Uiso   1.00
H557   H     0.32556   0.74993   0.69376   0.00000  Uiso   1.00
H558   H     0.11614   0.69147   0.95444   0.00000  Uiso   1.00
H559   H     0.23125   0.79379   0.63439   0.00000  Uiso   1.00
H560   H     0.11497   0.69508   0.86716   0.00000  Uiso   1.00
H561   H     0.10076   0.70591   0.52621   0.00000  Uiso   1.00
H562   H     0.21848   0.80623   0.97210   0.00000  Uiso   1.00
H563   H     0.00778   0.75040   0.80624   0.00000  Uiso   1.00
H564   H     0.14290   0.53182   0.82107   0.00000  Uiso   1.00
H565   H     0.23857   0.96835   0.72019   0.00000  Uiso   1.00
H566   H     0.14178   0.61185   0.81892   0.00000  Uiso   1.00
H567   H     0.23586   0.88772   0.71854   0.00000  Uiso   1.00
H568   H     0.19447   0.52725   0.68098   0.00000  Uiso   1.00
H569   H     0.09707   0.96954   0.78305   0.00000  Uiso   1.00
H570   H     0.23546   0.79276   0.54774   0.00000  Uiso   1.00
N571   N     0.16667   0.75001   0.62935   0.00000  Uiso   1.00
N572   N     0.16667   0.74999   0.87066   0.00000  Uiso   1.00
O573   O     0.16667   0.68573   0.79072   0.00000  Uiso   1.00
O574   O     0.16666   0.81428   0.70929   0.00000  Uiso   1.00
O575   O     0.16667   0.68573   0.70928   0.00000  Uiso   1.00
O576   O     0.16666   0.81427   0.79072   0.00000  Uiso   1.00
O577   O     0.09161   0.75000   0.78132   0.00000  Uiso   1.00
O578   O     0.24172   0.75001   0.71868   0.00000  Uiso   1.00
O579   O     0.09161   0.75000   0.69989   0.00000  Uiso   1.00
O580   O     0.24172   0.75000   0.80012   0.00000  Uiso   1.00
Br581  Br    0.54431   0.61749   0.65597   0.00000  Uiso   1.00
Br582  Br    0.40400   0.87626   0.79389   0.00000  Uiso   1.00
Br583  Br    0.41585   0.68525   0.62141   0.00000  Uiso   1.00
Br584  Br    0.57580   0.82186   0.87748   0.00000  Uiso   1.00
C585   C     0.50107   0.66489   0.74967   0.00000  Uiso   1.00
C586   C     0.52927   0.78067   0.95086   0.00000  Uiso   1.00
C587   C     0.50096   0.74952   0.52747   0.00000  Uiso   1.00
C588   C     0.50053   0.74920   0.97271   0.00000  Uiso   1.00
C589   C     0.40124   0.75001   0.73749   0.00000  Uiso   1.00
C590   C     0.59877   0.75012   0.76251   0.00000  Uiso   1.00
C591   C     0.34583   0.75007   0.73070   0.00000  Uiso   1.00
C592   C     0.65417   0.75023   0.76931   0.00000  Uiso   1.00
C593   C     0.48717   0.54808   0.78968   0.00000  Uiso   1.00
C594   C     0.54021   0.95138   0.73354   0.00000  Uiso   1.00
C595   C     0.48712   0.59394   0.78861   0.00000  Uiso   1.00
C596   C     0.49946   0.83478   0.75032   0.00000  Uiso   1.00
C597   C     0.53891   0.90549   0.73281   0.00000  Uiso   1.00
C598   C     0.50215   0.61636   0.74904   0.00000  Uiso   1.00
C599   C     0.49939   0.88267   0.75123   0.00000  Uiso   1.00
C600   C     0.51793   0.59171   0.71030   0.00000  Uiso   1.00
C601   C     0.46050   0.90589   0.77012   0.00000  Uiso   1.00
C602   C     0.51682   0.54573   0.71138   0.00000  Uiso   1.00
C603   C     0.46140   0.95192   0.76989   0.00000  Uiso   1.00
C604   C     0.50168   0.52360   0.75093   0.00000  Uiso   1.00
C605   C     0.50123   0.97500   0.75169   0.00000  Uiso   1.00
C606   C     0.53794   0.77405   0.56009   0.00000  Uiso   1.00
C607   C     0.47157   0.71774   0.94105   0.00000  Uiso   1.00
C608   C     0.53622   0.77438   0.61040   0.00000  Uiso   1.00
C609   C     0.47121   0.71921   0.89050   0.00000  Uiso   1.00
C610   C     0.46481   0.72464   0.59871   0.00000  Uiso   1.00
C611   C     0.52975   0.78003   0.90062   0.00000  Uiso   1.00
C612   C     0.46406   0.72508   0.54833   0.00000  Uiso   1.00
Cu613  Cu    0.50000   0.75000   0.79822   0.00000  Uiso   1.00
Cu614  Cu    0.50000   0.75001   0.70179   0.00000  Uiso   1.00
H615   H     0.65889   0.74993   0.69376   0.00000  Uiso   1.00
H616   H     0.44947   0.69147   0.95444   0.00000  Uiso   1.00
H617   H     0.56458   0.79379   0.63439   0.00000  Uiso   1.00
H618   H     0.44830   0.69508   0.86716   0.00000  Uiso   1.00
H619   H     0.43409   0.70591   0.52621   0.00000  Uiso   1.00
H620   H     0.55181   0.80623   0.97210   0.00000  Uiso   1.00
H621   H     0.34112   0.75040   0.80624   0.00000  Uiso   1.00
H622   H     0.47623   0.53182   0.82107   0.00000  Uiso   1.00
H623   H     0.57190   0.96835   0.72019   0.00000  Uiso   1.00
H624   H     0.47511   0.61185   0.81892   0.00000  Uiso   1.00
H625   H     0.56919   0.88772   0.71854   0.00000  Uiso   1.00
H626   H     0.52780   0.52725   0.68098   0.00000  Uiso   1.00
H627   H     0.43041   0.96954   0.78305   0.00000  Uiso   1.00
H628   H     0.56879   0.79276   0.54774   0.00000  Uiso   1.00
N629   N     0.50000   0.75001   0.62935   0.00000  Uiso   1.00
N630   N     0.50000   0.74999   0.87066   0.00000  Uiso   1.00
O631   O     0.50000   0.68573   0.79072   0.00000  Uiso   1.00
O632   O     0.50000   0.81428   0.70929   0.00000  Uiso   1.00
O633   O     0.50000   0.68573   0.70928   0.00000  Uiso   1.00
O634   O     0.50000   0.81427   0.79072   0.00000  Uiso   1.00
O635   O     0.42495   0.75000   0.78132   0.00000  Uiso   1.00
O636   O     0.57505   0.75001   0.71868   0.00000  Uiso   1.00
O637   O     0.42495   0.75000   0.69989   0.00000  Uiso   1.00
O638   O     0.57505   0.75000   0.80012   0.00000  Uiso   1.00
Br639  Br    0.87764   0.61749   0.65597   0.00000  Uiso   1.00
Br640  Br    0.73733   0.87626   0.79389   0.00000  Uiso   1.00
Br641  Br    0.74918   0.68525   0.62141   0.00000  Uiso   1.00
Br642  Br    0.90913   0.82186   0.87748   0.00000  Uiso   1.00
C643   C     0.83440   0.66489   0.74967   0.00000  Uiso   1.00
C644   C     0.86260   0.78067   0.95086   0.00000  Uiso   1.00
C645   C     0.83430   0.74952   0.52747   0.00000  Uiso   1.00
C646   C     0.83386   0.74920   0.97271   0.00000  Uiso   1.00
C647   C     0.73457   0.75001   0.73749   0.00000  Uiso   1.00
C648   C     0.93210   0.75012   0.76251   0.00000  Uiso   1.00
C649   C     0.67917   0.75007   0.73070   0.00000  Uiso   1.00
C650   C     0.98751   0.75023   0.76931   0.00000  Uiso   1.00
C651   C     0.82050   0.54808   0.78968   0.00000  Uiso   1.00
C652   C     0.87354   0.95138   0.73354   0.00000  Uiso   1.00
C653   C     0.82046   0.59394   0.78861   0.00000  Uiso   1.00
C654   C     0.83280   0.83478   0.75032   0.00000  Uiso   1.00
C655   C     0.87224   0.90549   0.73281   0.00000  Uiso   1.00
C656   C     0.83548   0.61636   0.74904   0.00000  Uiso   1.00
C657   C     0.83272   0.88267   0.75123   0.00000  Uiso   1.00
C658   C     0.85127   0.59171   0.71030   0.00000  Uiso   1.00
C659   C     0.79384   0.90589   0.77012   0.00000  Uiso   1.00
C660   C     0.85016   0.54573   0.71138   0.00000  Uiso   1.00
C661   C     0.79474   0.95192   0.76989   0.00000  Uiso   1.00
C662   C     0.83502   0.52360   0.75093   0.00000  Uiso   1.00
C663   C     0.83456   0.97500   0.75169   0.00000  Uiso   1.00
C664   C     0.87127   0.77405   0.56009   0.00000  Uiso   1.00
C665   C     0.80490   0.71774   0.94105   0.00000  Uiso   1.00
C666   C     0.86955   0.77438   0.61040   0.00000  Uiso   1.00
C667   C     0.80455   0.71921   0.89050   0.00000  Uiso   1.00
C668   C     0.79814   0.72464   0.59871   0.00000  Uiso   1.00
C669   C     0.86309   0.78003   0.90062   0.00000  Uiso   1.00
C670   C     0.79739   0.72508   0.54833   0.00000  Uiso   1.00
Cu671  Cu    0.83333   0.75000   0.79822   0.00000  Uiso   1.00
Cu672  Cu    0.83333   0.75001   0.70179   0.00000  Uiso   1.00
H673   H     0.99223   0.74993   0.69376   0.00000  Uiso   1.00
H674   H     0.78280   0.69147   0.95444   0.00000  Uiso   1.00
H675   H     0.89791   0.79379   0.63439   0.00000  Uiso   1.00
H676   H     0.78164   0.69508   0.86716   0.00000  Uiso   1.00
H677   H     0.76743   0.70591   0.52621   0.00000  Uiso   1.00
H678   H     0.88515   0.80623   0.97210   0.00000  Uiso   1.00
H679   H     0.67445   0.75040   0.80624   0.00000  Uiso   1.00
H680   H     0.80956   0.53182   0.82107   0.00000  Uiso   1.00
H681   H     0.90524   0.96835   0.72019   0.00000  Uiso   1.00
H682   H     0.80845   0.61185   0.81892   0.00000  Uiso   1.00
H683   H     0.90252   0.88772   0.71854   0.00000  Uiso   1.00
H684   H     0.86114   0.52725   0.68098   0.00000  Uiso   1.00
H685   H     0.76374   0.96954   0.78305   0.00000  Uiso   1.00
H686   H     0.90213   0.79276   0.54774   0.00000  Uiso   1.00
N687   N     0.83333   0.75001   0.62935   0.00000  Uiso   1.00
N688   N     0.83333   0.74999   0.87066   0.00000  Uiso   1.00
O689   O     0.83334   0.68573   0.79072   0.00000  Uiso   1.00
O690   O     0.83333   0.81428   0.70929   0.00000  Uiso   1.00
O691   O     0.83334   0.68573   0.70928   0.00000  Uiso   1.00
O692   O     0.83333   0.81427   0.79072   0.00000  Uiso   1.00
O693   O     0.75828   0.75000   0.78132   0.00000  Uiso   1.00
O694   O     0.90839   0.75001   0.71868   0.00000  Uiso   1.00
O695   O     0.75828   0.75000   0.69989   0.00000  Uiso   1.00
O696   O     0.90839   0.75000   0.80012   0.00000  Uiso   1.00
loop_
_geom_bond_atom_site_label_1
_geom_bond_atom_site_label_2
_geom_bond_distance
_geom_bond_site_symmetry_2
_ccdc_geom_bond_type
Br1    C20     1.925   .     S
Br2    C21     1.921   .     S
Br3    C30     1.917   .     S
Br4    C31     1.916   .     S
C5     C18     1.469   .     S
C5     O53     1.297   .     A
C5     O51     1.301   .     A
C6     C31     1.402   .     A
C6     H40     1.079   .     S
C6     C8      1.405   .     A
C7     C26     1.418   .     A
C7     C32     1.405   .     A
C7     C356    1.524   1_554 S
C8     C27     1.418   .     A
C8     C355    1.524   .     S
C9     O55     1.287   .     A
C9     C11     1.435   .     S
C9     O57     1.294   .     A
C10    O56     1.287   .     A
C10    C12     1.435   .     S
C10    O58     1.294   .     A
C11    C128    1.338   1_455 S
C11    H151    1.087   1_455 S
C12    C69     1.338   .     S
C12    H99     1.087   .     S
C13    H42     1.083   .     S
C13    C15     1.388   .     A
C13    C24     1.400   .     A
C14    C25     1.404   .     A
C14    C17     1.388   .     A
C14    H43     1.083   .     S
C15    C18     1.405   .     A
C15    H44     1.083   .     S
C16    C19     1.449   .     S
C16    O54     1.293   .     A
C16    O52     1.293   .     A
C17    H45     1.084   .     S
C17    C19     1.398   .     A
C18    C20     1.416   .     A
C19    C21     1.405   .     A
C20    C22     1.392   .     A
C21    C23     1.393   .     A
C22    C24     1.402   .     A
C22    H46     1.083   .     S
C23    C25     1.405   .     A
C23    H47     1.083   .     S
C24    C199    1.471   1_545 S
C25    C198    1.471   .     S
C26    C28     1.409   .     A
C26    H48     1.079   .     S
C27    H36     1.079   .     S
C27    C29     1.409   .     A
C28    N49     1.363   .     A
C28    H37     1.082   .     S
C29    H38     1.082   .     S
C29    N50     1.363   .     A
C30    C32     1.402   .     A
C30    N49     1.375   .     A
C31    N50     1.375   .     A
C32    H39     1.078   .     S
Cu33   O55     1.953   .     S
Cu33   O58     1.958   .     S
Cu33   Cu34    2.687   .     S
Cu33   O51     1.952   .     S
Cu33   O54     1.960   .     S
Cu33   N50     2.019   .     S
Cu34   N49     2.019   .     S
Cu34   O56     1.953   .     S
Cu34   O57     1.958   .     S
Cu34   O53     1.960   .     S
Cu34   O52     1.952   .     S
H35    C69     1.087   .     S
H41    C128    1.087   1_455 S
Br59   C78     1.925   .     S
Br60   C79     1.921   .     S
Br61   C88     1.917   .     S
Br62   C89     1.916   .     S
C63    C76     1.469   .     S
C63    O111    1.297   .     A
C63    O109    1.301   .     A
C64    C89     1.402   .     A
C64    H98     1.079   .     S
C64    C66     1.405   .     A
C65    C84     1.418   .     A
C65    C90     1.405   .     A
C65    C414    1.524   1_554 S
C66    C85     1.418   .     A
C66    C413    1.524   .     S
C67    O113    1.287   .     A
C67    C69     1.435   .     S
C67    O115    1.294   .     A
C68    O114    1.287   .     A
C68    C70     1.435   .     S
C68    O116    1.294   .     A
C70    C127    1.338   .     S
C70    H157    1.087   .     S
C71    H100    1.083   .     S
C71    C73     1.388   .     A
C71    C82     1.400   .     A
C72    C83     1.404   .     A
C72    C75     1.388   .     A
C72    H101    1.083   .     S
C73    C76     1.405   .     A
C73    H102    1.083   .     S
C74    C77     1.449   .     S
C74    O112    1.293   .     A
C74    O110    1.293   .     A
C75    H103    1.084   .     S
C75    C77     1.398   .     A
C76    C78     1.416   .     A
C77    C79     1.405   .     A
C78    C80     1.392   .     A
C79    C81     1.393   .     A
C80    C82     1.402   .     A
C80    H104    1.083   .     S
C81    C83     1.405   .     A
C81    H105    1.083   .     S
C82    C257    1.471   1_545 S
C83    C256    1.471   .     S
C84    C86     1.409   .     A
C84    H106    1.079   .     S
C85    H94     1.079   .     S
C85    C87     1.409   .     A
C86    N107    1.363   .     A
C86    H95     1.082   .     S
C87    H96     1.082   .     S
C87    N108    1.363   .     A
C88    C90     1.402   .     A
C88    N107    1.375   .     A
C89    N108    1.375   .     A
C90    H97     1.078   .     S
Cu91   O113    1.953   .     S
Cu91   O116    1.958   .     S
Cu91   Cu92    2.687   .     S
Cu91   O109    1.952   .     S
Cu91   O112    1.960   .     S
Cu91   N108    2.019   .     S
Cu92   N107    2.019   .     S
Cu92   O114    1.953   .     S
Cu92   O115    1.958   .     S
Cu92   O111    1.960   .     S
Cu92   O110    1.952   .     S
H93    C127    1.087   .     S
Br117  C136    1.925   .     S
Br118  C137    1.921   .     S
Br119  C146    1.917   .     S
Br120  C147    1.916   .     S
C121   C134    1.469   .     S
C121   O169    1.297   .     A
C121   O167    1.301   .     A
C122   C147    1.402   .     A
C122   H156    1.079   .     S
C122   C124    1.405   .     A
C123   C142    1.418   .     A
C123   C148    1.405   .     A
C123   C472    1.524   1_554 S
C124   C143    1.418   .     A
C124   C471    1.524   .     S
C125   O171    1.287   .     A
C125   C127    1.435   .     S
C125   O173    1.294   .     A
C126   O172    1.287   .     A
C126   C128    1.435   .     S
C126   O174    1.294   .     A
C128   C11     1.338   1_655 S
C128   H41     1.087   1_655 S
C129   H158    1.083   .     S
C129   C131    1.388   .     A
C129   C140    1.400   .     A
C130   C141    1.404   .     A
C130   C133    1.388   .     A
C130   H159    1.083   .     S
C131   C134    1.405   .     A
C131   H160    1.083   .     S
C132   C135    1.449   .     S
C132   O170    1.293   .     A
C132   O168    1.293   .     A
C133   H161    1.084   .     S
C133   C135    1.398   .     A
C134   C136    1.416   .     A
C135   C137    1.405   .     A
C136   C138    1.392   .     A
C137   C139    1.393   .     A
C138   C140    1.402   .     A
C138   H162    1.083   .     S
C139   C141    1.405   .     A
C139   H163    1.083   .     S
C140   C315    1.471   1_545 S
C141   C314    1.471   .     S
C142   C144    1.409   .     A
C142   H164    1.079   .     S
C143   H152    1.079   .     S
C143   C145    1.409   .     A
C144   N165    1.363   .     A
C144   H153    1.082   .     S
C145   H154    1.082   .     S
C145   N166    1.363   .     A
C146   C148    1.402   .     A
C146   N165    1.375   .     A
C147   N166    1.375   .     A
C148   H155    1.078   .     S
Cu149  O171    1.953   .     S
Cu149  O174    1.958   .     S
Cu149  Cu150   2.687   .     S
Cu149  O167    1.952   .     S
Cu149  O170    1.960   .     S
Cu149  N166    2.019   .     S
Cu150  N165    2.019   .     S
Cu150  O172    1.953   .     S
Cu150  O173    1.958   .     S
Cu150  O169    1.960   .     S
Cu150  O168    1.952   .     S
H151   C11     1.087   1_655 S
Br175  C194    1.925   .     S
Br176  C195    1.921   .     S
Br177  C204    1.917   .     S
Br178  C205    1.916   .     S
C179   C192    1.469   .     S
C179   O227    1.297   .     A
C179   O225    1.301   .     A
C180   C205    1.402   .     A
C180   H214    1.079   .     S
C180   C182    1.405   .     A
C181   C200    1.418   .     A
C181   C206    1.405   .     A
C181   C530    1.524   1_554 S
C182   C201    1.418   .     A
C182   C529    1.524   .     S
C183   O229    1.287   .     A
C183   C185    1.435   .     S
C183   O231    1.294   .     A
C184   O230    1.287   .     A
C184   C186    1.435   .     S
C184   O232    1.294   .     A
C185   C302    1.338   1_455 S
C185   H325    1.087   1_455 S
C186   C243    1.338   .     S
C186   H273    1.087   .     S
C187   H216    1.083   .     S
C187   C189    1.388   .     A
C187   C198    1.400   .     A
C188   C199    1.404   .     A
C188   C191    1.388   .     A
C188   H217    1.083   .     S
C189   C192    1.405   .     A
C189   H218    1.083   .     S
C190   C193    1.449   .     S
C190   O228    1.293   .     A
C190   O226    1.293   .     A
C191   H219    1.084   .     S
C191   C193    1.398   .     A
C192   C194    1.416   .     A
C193   C195    1.405   .     A
C194   C196    1.392   .     A
C195   C197    1.393   .     A
C196   C198    1.402   .     A
C196   H220    1.083   .     S
C197   C199    1.405   .     A
C197   H221    1.083   .     S
C199   C24     1.471   1_565 S
C200   C202    1.409   .     A
C200   H222    1.079   .     S
C201   H210    1.079   .     S
C201   C203    1.409   .     A
C202   N223    1.363   .     A
C202   H211    1.082   .     S
C203   H212    1.082   .     S
C203   N224    1.363   .     A
C204   C206    1.402   .     A
C204   N223    1.375   .     A
C205   N224    1.375   .     A
C206   H213    1.078   .     S
Cu207  O229    1.953   .     S
Cu207  O232    1.958   .     S
Cu207  Cu208   2.687   .     S
Cu207  O225    1.952   .     S
Cu207  O228    1.960   .     S
Cu207  N224    2.019   .     S
Cu208  N223    2.019   .     S
Cu208  O230    1.953   .     S
Cu208  O231    1.958   .     S
Cu208  O227    1.960   .     S
Cu208  O226    1.952   .     S
H209   C243    1.087   .     S
H215   C302    1.087   1_455 S
Br233  C252    1.925   .     S
Br234  C253    1.921   .     S
Br235  C262    1.917   .     S
Br236  C263    1.916   .     S
C237   C250    1.469   .     S
C237   O285    1.297   .     A
C237   O283    1.301   .     A
C238   C263    1.402   .     A
C238   H272    1.079   .     S
C238   C240    1.405   .     A
C239   C258    1.418   .     A
C239   C264    1.405   .     A
C239   C588    1.524   1_554 S
C240   C259    1.418   .     A
C240   C587    1.524   .     S
C241   O287    1.287   .     A
C241   C243    1.435   .     S
C241   O289    1.294   .     A
C242   O288    1.287   .     A
C242   C244    1.435   .     S
C242   O290    1.294   .     A
C244   C301    1.338   .     S
C244   H331    1.087   .     S
C245   H274    1.083   .     S
C245   C247    1.388   .     A
C245   C256    1.400   .     A
C246   C257    1.404   .     A
C246   C249    1.388   .     A
C246   H275    1.083   .     S
C247   C250    1.405   .     A
C247   H276    1.083   .     S
C248   C251    1.449   .     S
C248   O286    1.293   .     A
C248   O284    1.293   .     A
C249   H277    1.084   .     S
C249   C251    1.398   .     A
C250   C252    1.416   .     A
C251   C253    1.405   .     A
C252   C254    1.392   .     A
C253   C255    1.393   .     A
C254   C256    1.402   .     A
C254   H278    1.083   .     S
C255   C257    1.405   .     A
C255   H279    1.083   .     S
C257   C82     1.471   1_565 S
C258   C260    1.409   .     A
C258   H280    1.079   .     S
C259   H268    1.079   .     S
C259   C261    1.409   .     A
C260   N281    1.363   .     A
C260   H269    1.082   .     S
C261   H270    1.082   .     S
C261   N282    1.363   .     A
C262   C264    1.402   .     A
C262   N281    1.375   .     A
C263   N282    1.375   .     A
C264   H271    1.078   .     S
Cu265  O287    1.953   .     S
Cu265  O290    1.958   .     S
Cu265  Cu266   2.687   .     S
Cu265  O283    1.952   .     S
Cu265  O286    1.960   .     S
Cu265  N282    2.019   .     S
Cu266  N281    2.019   .     S
Cu266  O288    1.953   .     S
Cu266  O289    1.958   .     S
Cu266  O285    1.960   .     S
Cu266  O284    1.952   .     S
H267   C301    1.087   .     S
Br291  C310    1.925   .     S
Br292  C311    1.921   .     S
Br293  C320    1.917   .     S
Br294  C321    1.916   .     S
C295   C308    1.469   .     S
C295   O343    1.297   .     A
C295   O341    1.301   .     A
C296   C321    1.402   .     A
C296   H330    1.079   .     S
C296   C298    1.405   .     A
C297   C316    1.418   .     A
C297   C322    1.405   .     A
C297   C646    1.524   1_554 S
C298   C317    1.418   .     A
C298   C645    1.524   .     S
C299   O345    1.287   .     A
C299   C301    1.435   .     S
C299   O347    1.294   .     A
C300   O346    1.287   .     A
C300   C302    1.435   .     S
C300   O348    1.294   .     A
C302   C185    1.338   1_655 S
C302   H215    1.087   1_655 S
C303   H332    1.083   .     S
C303   C305    1.388   .     A
C303   C314    1.400   .     A
C304   C315    1.404   .     A
C304   C307    1.388   .     A
C304   H333    1.083   .     S
C305   C308    1.405   .     A
C305   H334    1.083   .     S
C306   C309    1.449   .     S
C306   O344    1.293   .     A
C306   O342    1.293   .     A
C307   H335    1.084   .     S
C307   C309    1.398   .     A
C308   C310    1.416   .     A
C309   C311    1.405   .     A
C310   C312    1.392   .     A
C311   C313    1.393   .     A
C312   C314    1.402   .     A
C312   H336    1.083   .     S
C313   C315    1.405   .     A
C313   H337    1.083   .     S
C315   C140    1.471   1_565 S
C316   C318    1.409   .     A
C316   H338    1.079   .     S
C317   H326    1.079   .     S
C317   C319    1.409   .     A
C318   N339    1.363   .     A
C318   H327    1.082   .     S
C319   H328    1.082   .     S
C319   N340    1.363   .     A
C320   C322    1.402   .     A
C320   N339    1.375   .     A
C321   N340    1.375   .     A
C322   H329    1.078   .     S
Cu323  O345    1.953   .     S
Cu323  O348    1.958   .     S
Cu323  Cu324   2.687   .     S
Cu323  O341    1.952   .     S
Cu323  O344    1.960   .     S
Cu323  N340    2.019   .     S
Cu324  N339    2.019   .     S
Cu324  O346    1.953   .     S
Cu324  O347    1.958   .     S
Cu324  O343    1.960   .     S
Cu324  O342    1.952   .     S
H325   C185    1.087   1_655 S
Br349  C368    1.925   .     S
Br350  C369    1.921   .     S
Br351  C378    1.917   .     S
Br352  C379    1.916   .     S
C353   C366    1.469   .     S
C353   O401    1.297   .     A
C353   O399    1.301   .     A
C354   C379    1.402   .     A
C354   H388    1.079   .     S
C354   C356    1.405   .     A
C355   C374    1.418   .     A
C355   C380    1.405   .     A
C356   C375    1.418   .     A
C356   C7      1.524   1_556 S
C357   O403    1.287   .     A
C357   C359    1.435   .     S
C357   O405    1.294   .     A
C358   O404    1.287   .     A
C358   C360    1.435   .     S
C358   O406    1.294   .     A
C359   C476    1.338   1_455 S
C359   H499    1.087   1_455 S
C360   C417    1.338   .     S
C360   H447    1.087   .     S
C361   H390    1.083   .     S
C361   C363    1.388   .     A
C361   C372    1.400   .     A
C362   C373    1.404   .     A
C362   C365    1.388   .     A
C362   H391    1.083   .     S
C363   C366    1.405   .     A
C363   H392    1.083   .     S
C364   C367    1.449   .     S
C364   O402    1.293   .     A
C364   O400    1.293   .     A
C365   H393    1.084   .     S
C365   C367    1.398   .     A
C366   C368    1.416   .     A
C367   C369    1.405   .     A
C368   C370    1.392   .     A
C369   C371    1.393   .     A
C370   C372    1.402   .     A
C370   H394    1.083   .     S
C371   C373    1.405   .     A
C371   H395    1.083   .     S
C372   C547    1.471   1_545 S
C373   C546    1.471   .     S
C374   C376    1.409   .     A
C374   H396    1.079   .     S
C375   H384    1.079   .     S
C375   C377    1.409   .     A
C376   N397    1.363   .     A
C376   H385    1.082   .     S
C377   H386    1.082   .     S
C377   N398    1.363   .     A
C378   C380    1.402   .     A
C378   N397    1.375   .     A
C379   N398    1.375   .     A
C380   H387    1.078   .     S
Cu381  O403    1.953   .     S
Cu381  O406    1.958   .     S
Cu381  Cu382   2.687   .     S
Cu381  O399    1.952   .     S
Cu381  O402    1.960   .     S
Cu381  N398    2.019   .     S
Cu382  N397    2.019   .     S
Cu382  O404    1.953   .     S
Cu382  O405    1.958   .     S
Cu382  O401    1.960   .     S
Cu382  O400    1.952   .     S
H383   C417    1.087   .     S
H389   C476    1.087   1_455 S
Br407  C426    1.925   .     S
Br408  C427    1.921   .     S
Br409  C436    1.917   .     S
Br410  C437    1.916   .     S
C411   C424    1.469   .     S
C411   O459    1.297   .     A
C411   O457    1.301   .     A
C412   C437    1.402   .     A
C412   H446    1.079   .     S
C412   C414    1.405   .     A
C413   C432    1.418   .     A
C413   C438    1.405   .     A
C414   C433    1.418   .     A
C414   C65     1.524   1_556 S
C415   O461    1.287   .     A
C415   C417    1.435   .     S
C415   O463    1.294   .     A
C416   O462    1.287   .     A
C416   C418    1.435   .     S
C416   O464    1.294   .     A
C418   C475    1.338   .     S
C418   H505    1.087   .     S
C419   H448    1.083   .     S
C419   C421    1.388   .     A
C419   C430    1.400   .     A
C420   C431    1.404   .     A
C420   C423    1.388   .     A
C420   H449    1.083   .     S
C421   C424    1.405   .     A
C421   H450    1.083   .     S
C422   C425    1.449   .     S
C422   O460    1.293   .     A
C422   O458    1.293   .     A
C423   H451    1.084   .     S
C423   C425    1.398   .     A
C424   C426    1.416   .     A
C425   C427    1.405   .     A
C426   C428    1.392   .     A
C427   C429    1.393   .     A
C428   C430    1.402   .     A
C428   H452    1.083   .     S
C429   C431    1.405   .     A
C429   H453    1.083   .     S
C430   C605    1.471   1_545 S
C431   C604    1.471   .     S
C432   C434    1.409   .     A
C432   H454    1.079   .     S
C433   H442    1.079   .     S
C433   C435    1.409   .     A
C434   N455    1.363   .     A
C434   H443    1.082   .     S
C435   H444    1.082   .     S
C435   N456    1.363   .     A
C436   C438    1.402   .     A
C436   N455    1.375   .     A
C437   N456    1.375   .     A
C438   H445    1.078   .     S
Cu439  O461    1.953   .     S
Cu439  O464    1.958   .     S
Cu439  Cu440   2.687   .     S
Cu439  O457    1.952   .     S
Cu439  O460    1.960   .     S
Cu439  N456    2.019   .     S
Cu440  N455    2.019   .     S
Cu440  O462    1.953   .     S
Cu440  O463    1.958   .     S
Cu440  O459    1.960   .     S
Cu440  O458    1.952   .     S
H441   C475    1.087   .     S
Br465  C484    1.925   .     S
Br466  C485    1.921   .     S
Br467  C494    1.917   .     S
Br468  C495    1.916   .     S
C469   C482    1.469   .     S
C469   O517    1.297   .     A
C469   O515    1.301   .     A
C470   C495    1.402   .     A
C470   H504    1.079   .     S
C470   C472    1.405   .     A
C471   C490    1.418   .     A
C471   C496    1.405   .     A
C472   C491    1.418   .     A
C472   C123    1.524   1_556 S
C473   O519    1.287   .     A
C473   C475    1.435   .     S
C473   O521    1.294   .     A
C474   O520    1.287   .     A
C474   C476    1.435   .     S
C474   O522    1.294   .     A
C476   C359    1.338   1_655 S
C476   H389    1.087   1_655 S
C477   H506    1.083   .     S
C477   C479    1.388   .     A
C477   C488    1.400   .     A
C478   C489    1.404   .     A
C478   C481    1.388   .     A
C478   H507    1.083   .     S
C479   C482    1.405   .     A
C479   H508    1.083   .     S
C480   C483    1.449   .     S
C480   O518    1.293   .     A
C480   O516    1.293   .     A
C481   H509    1.084   .     S
C481   C483    1.398   .     A
C482   C484    1.416   .     A
C483   C485    1.405   .     A
C484   C486    1.392   .     A
C485   C487    1.393   .     A
C486   C488    1.402   .     A
C486   H510    1.083   .     S
C487   C489    1.405   .     A
C487   H511    1.083   .     S
C488   C663    1.471   1_545 S
C489   C662    1.471   .     S
C490   C492    1.409   .     A
C490   H512    1.079   .     S
C491   H500    1.079   .     S
C491   C493    1.409   .     A
C492   N513    1.363   .     A
C492   H501    1.082   .     S
C493   H502    1.082   .     S
C493   N514    1.363   .     A
C494   C496    1.402   .     A
C494   N513    1.375   .     A
C495   N514    1.375   .     A
C496   H503    1.078   .     S
Cu497  O519    1.953   .     S
Cu497  O522    1.958   .     S
Cu497  Cu498   2.687   .     S
Cu497  O515    1.952   .     S
Cu497  O518    1.960   .     S
Cu497  N514    2.019   .     S
Cu498  N513    2.019   .     S
Cu498  O520    1.953   .     S
Cu498  O521    1.958   .     S
Cu498  O517    1.960   .     S
Cu498  O516    1.952   .     S
H499   C359    1.087   1_655 S
Br523  C542    1.925   .     S
Br524  C543    1.921   .     S
Br525  C552    1.917   .     S
Br526  C553    1.916   .     S
C527   C540    1.469   .     S
C527   O575    1.297   .     A
C527   O573    1.301   .     A
C528   C553    1.402   .     A
C528   H562    1.079   .     S
C528   C530    1.405   .     A
C529   C548    1.418   .     A
C529   C554    1.405   .     A
C530   C549    1.418   .     A
C530   C181    1.524   1_556 S
C531   O577    1.287   .     A
C531   C533    1.435   .     S
C531   O579    1.294   .     A
C532   O578    1.287   .     A
C532   C534    1.435   .     S
C532   O580    1.294   .     A
C533   C650    1.338   1_455 S
C533   H673    1.087   1_455 S
C534   C591    1.338   .     S
C534   H621    1.087   .     S
C535   H564    1.083   .     S
C535   C537    1.388   .     A
C535   C546    1.400   .     A
C536   C547    1.404   .     A
C536   C539    1.388   .     A
C536   H565    1.083   .     S
C537   C540    1.405   .     A
C537   H566    1.083   .     S
C538   C541    1.449   .     S
C538   O576    1.293   .     A
C538   O574    1.293   .     A
C539   H567    1.084   .     S
C539   C541    1.398   .     A
C540   C542    1.416   .     A
C541   C543    1.405   .     A
C542   C544    1.392   .     A
C543   C545    1.393   .     A
C544   C546    1.402   .     A
C544   H568    1.083   .     S
C545   C547    1.405   .     A
C545   H569    1.083   .     S
C547   C372    1.471   1_565 S
C548   C550    1.409   .     A
C548   H570    1.079   .     S
C549   H558    1.079   .     S
C549   C551    1.409   .     A
C550   N571    1.363   .     A
C550   H559    1.082   .     S
C551   H560    1.082   .     S
C551   N572    1.363   .     A
C552   C554    1.402   .     A
C552   N571    1.375   .     A
C553   N572    1.375   .     A
C554   H561    1.078   .     S
Cu555  O577    1.953   .     S
Cu555  O580    1.958   .     S
Cu555  Cu556   2.687   .     S
Cu555  O573    1.952   .     S
Cu555  O576    1.960   .     S
Cu555  N572    2.019   .     S
Cu556  N571    2.019   .     S
Cu556  O578    1.953   .     S
Cu556  O579    1.958   .     S
Cu556  O575    1.960   .     S
Cu556  O574    1.952   .     S
H557   C591    1.087   .     S
H563   C650    1.087   1_455 S
Br581  C600    1.925   .     S
Br582  C601    1.921   .     S
Br583  C610    1.917   .     S
Br584  C611    1.916   .     S
C585   C598    1.469   .     S
C585   O633    1.297   .     A
C585   O631    1.301   .     A
C586   C611    1.402   .     A
C586   H620    1.079   .     S
C586   C588    1.405   .     A
C587   C606    1.418   .     A
C587   C612    1.405   .     A
C588   C607    1.418   .     A
C588   C239    1.524   1_556 S
C589   O635    1.287   .     A
C589   C591    1.435   .     S
C589   O637    1.294   .     A
C590   O636    1.287   .     A
C590   C592    1.435   .     S
C590   O638    1.294   .     A
C592   C649    1.338   .     S
C592   H679    1.087   .     S
C593   H622    1.083   .     S
C593   C595    1.388   .     A
C593   C604    1.400   .     A
C594   C605    1.404   .     A
C594   C597    1.388   .     A
C594   H623    1.083   .     S
C595   C598    1.405   .     A
C595   H624    1.083   .     S
C596   C599    1.449   .     S
C596   O634    1.293   .     A
C596   O632    1.293   .     A
C597   H625    1.084   .     S
C597   C599    1.398   .     A
C598   C600    1.416   .     A
C599   C601    1.405   .     A
C600   C602    1.392   .     A
C601   C603    1.393   .     A
C602   C604    1.402   .     A
C602   H626    1.083   .     S
C603   C605    1.405   .     A
C603   H627    1.083   .     S
C605   C430    1.471   1_565 S
C606   C608    1.409   .     A
C606   H628    1.079   .     S
C607   H616    1.079   .     S
C607   C609    1.409   .     A
C608   N629    1.363   .     A
C608   H617    1.082   .     S
C609   H618    1.082   .     S
C609   N630    1.363   .     A
C610   C612    1.402   .     A
C610   N629    1.375   .     A
C611   N630    1.375   .     A
C612   H619    1.078   .     S
Cu613  O635    1.953   .     S
Cu613  O638    1.958   .     S
Cu613  Cu614   2.687   .     S
Cu613  O631    1.952   .     S
Cu613  O634    1.960   .     S
Cu613  N630    2.019   .     S
Cu614  N629    2.019   .     S
Cu614  O636    1.953   .     S
Cu614  O637    1.958   .     S
Cu614  O633    1.960   .     S
Cu614  O632    1.952   .     S
H615   C649    1.087   .     S
Br639  C658    1.925   .     S
Br640  C659    1.921   .     S
Br641  C668    1.917   .     S
Br642  C669    1.916   .     S
C643   C656    1.469   .     S
C643   O691    1.297   .     A
C643   O689    1.301   .     A
C644   C669    1.402   .     A
C644   H678    1.079   .     S
C644   C646    1.405   .     A
C645   C664    1.418   .     A
C645   C670    1.405   .     A
C646   C665    1.418   .     A
C646   C297    1.524   1_556 S
C647   O693    1.287   .     A
C647   C649    1.435   .     S
C647   O695    1.294   .     A
C648   O694    1.287   .     A
C648   C650    1.435   .     S
C648   O696    1.294   .     A
C650   C533    1.338   1_655 S
C650   H563    1.087   1_655 S
C651   H680    1.083   .     S
C651   C653    1.388   .     A
C651   C662    1.400   .     A
C652   C663    1.404   .     A
C652   C655    1.388   .     A
C652   H681    1.083   .     S
C653   C656    1.405   .     A
C653   H682    1.083   .     S
C654   C657    1.449   .     S
C654   O692    1.293   .     A
C654   O690    1.293   .     A
C655   H683    1.084   .     S
C655   C657    1.398   .     A
C656   C658    1.416   .     A
C657   C659    1.405   .     A
C658   C660    1.392   .     A
C659   C661    1.393   .     A
C660   C662    1.402   .     A
C660   H684    1.083   .     S
C661   C663    1.405   .     A
C661   H685    1.083   .     S
C663   C488    1.471   1_565 S
C664   C666    1.409   .     A
C664   H686    1.079   .     S
C665   H674    1.079   .     S
C665   C667    1.409   .     A
C666   N687    1.363   .     A
C666   H675    1.082   .     S
C667   H676    1.082   .     S
C667   N688    1.363   .     A
C668   C670    1.402   .     A
C668   N687    1.375   .     A
C669   N688    1.375   .     A
C670   H677    1.078   .     S
Cu671  O693    1.953   .     S
Cu671  O696    1.958   .     S
Cu671  Cu672   2.687   .     S
Cu671  O689    1.952   .     S
Cu671  O692    1.960   .     S
Cu671  N688    2.019   .     S
Cu672  N687    2.019   .     S
Cu672  O694    1.953   .     S
Cu672  O695    1.958   .     S
Cu672  O691    1.960   .     S
Cu672  O690    1.952   .     S
H673   C533    1.087   1_655 S
