data_str_m2_o1_o18_pcu_sym.87
_audit_creation_date              2020-01-03
_audit_creation_method            'Materials Studio'
_symmetry_space_group_name_H-M    'P1'
_symmetry_Int_Tables_number       1
_symmetry_cell_setting            triclinic
loop_
_symmetry_equiv_pos_as_xyz
  x,y,z
_cell_length_a                    28.5149
_cell_length_b                    32.4758
_cell_length_c                    30.6412
_cell_angle_alpha                 89.5376
_cell_angle_beta                  75.0200
_cell_angle_gamma                 90.0637
loop_
_atom_site_label
_atom_site_type_symbol
_atom_site_fract_x
_atom_site_fract_y
_atom_site_fract_z
_atom_site_U_iso_or_equiv
_atom_site_adp_type
_atom_site_occupancy
C1     C     0.33331   0.08735   0.24999   0.00000  Uiso   1.00
C2     C     0.04371   0.02139   0.24489   0.00000  Uiso   1.00
C3     C     0.00002   0.29059   0.25003   0.00000  Uiso   1.00
C4     C     0.33332   0.04274   0.24997   0.00000  Uiso   1.00
C5     C     0.18444   0.13848   0.27516   0.00000  Uiso   1.00
C6     C     0.14889   0.19485   0.22484   0.00000  Uiso   1.00
C7     C     0.13484   0.13846   0.27508   0.00000  Uiso   1.00
C8     C     0.19849   0.19488   0.22492   0.00000  Uiso   1.00
C9     C     0.30637   0.16524   0.33649   0.00000  Uiso   1.00
C10    C     0.02696   0.16810   0.16352   0.00000  Uiso   1.00
C11    C     0.29200   0.16172   0.38646   0.00000  Uiso   1.00
C12    C     0.00002   0.24599   0.25001   0.00000  Uiso   1.00
C13    C     0.04133   0.17163   0.11354   0.00000  Uiso   1.00
C14    C     0.30623   0.14466   0.45930   0.00000  Uiso   1.00
C15    C     0.02710   0.18869   0.04070   0.00000  Uiso   1.00
C16    C     0.32485   0.15224   0.41294   0.00000  Uiso   1.00
C17    C     0.00848   0.18111   0.08706   0.00000  Uiso   1.00
C18    C     0.24252   0.16570   0.40810   0.00000  Uiso   1.00
C19    C     0.09081   0.16764   0.09191   0.00000  Uiso   1.00
C20    C     0.22521   0.16468   0.45512   0.00000  Uiso   1.00
C21    C     0.10812   0.16867   0.04489   0.00000  Uiso   1.00
C22    C     0.25667   0.14942   0.47998   0.00000  Uiso   1.00
C23    C     0.18743   0.13382   0.04272   0.00000  Uiso   1.00
C24    C     0.07667   0.18394   0.02002   0.00000  Uiso   1.00
C25    C     0.17631   0.17442   0.47748   0.00000  Uiso   1.00
C26    C     0.15703   0.15894   0.02253   0.00000  Uiso   1.00
C27    C     0.28811   0.18683   0.10713   0.00000  Uiso   1.00
C28    C     0.04523   0.14652   0.39287   0.00000  Uiso   1.00
C29    C     0.16904   0.10093   0.07930   0.00000  Uiso   1.00
C30    C     0.13311   0.07086   0.06665   0.00000  Uiso   1.00
C31    C     0.11550   0.03839   0.10362   0.00000  Uiso   1.00
C32    C     0.16431   0.23244   0.42071   0.00000  Uiso   1.00
C33    C     0.20027   0.26249   0.43335   0.00000  Uiso   1.00
C34    C     0.14591   0.19954   0.45729   0.00000  Uiso   1.00
C35    C     0.21792   0.29493   0.39636   0.00000  Uiso   1.00
C36    C     0.23760   0.13444   0.02357   0.00000  Uiso   1.00
C37    C     0.09574   0.19892   0.47644   0.00000  Uiso   1.00
C38    C     0.28961   0.02120   0.25508   0.00000  Uiso   1.00
C39    C     0.04372   0.31213   0.24492   0.00000  Uiso   1.00
C40    C     0.28963   0.31195   0.25511   0.00000  Uiso   1.00
Cu41   Cu    0.04689   0.16667   0.25000   0.00000  Uiso   1.00
Cu42   Cu    0.28645   0.16666   0.25000   0.00000  Uiso   1.00
H43    H     0.26158   0.11883   0.04058   0.00000  Uiso   1.00
H44    H     0.07789   0.03750   0.24071   0.00000  Uiso   1.00
H45    H     0.19751   0.11593   0.29534   0.00000  Uiso   1.00
H46    H     0.13582   0.21741   0.20466   0.00000  Uiso   1.00
H47    H     0.11058   0.11575   0.29499   0.00000  Uiso   1.00
H48    H     0.22276   0.21758   0.20501   0.00000  Uiso   1.00
H49    H     0.28202   0.21221   0.13195   0.00000  Uiso   1.00
H50    H     0.26893   0.19516   0.08105   0.00000  Uiso   1.00
H51    H     0.27162   0.15779   0.12353   0.00000  Uiso   1.00
H52    H     0.05132   0.12113   0.36805   0.00000  Uiso   1.00
H53    H     0.06171   0.17556   0.37647   0.00000  Uiso   1.00
H54    H     0.07176   0.21454   0.45942   0.00000  Uiso   1.00
H55    H     0.06441   0.13819   0.41895   0.00000  Uiso   1.00
H56    H     0.14662   0.02036   0.10905   0.00000  Uiso   1.00
H57    H     0.09629   0.05330   0.13579   0.00000  Uiso   1.00
H58    H     0.08993   0.01696   0.09344   0.00000  Uiso   1.00
H59    H     0.10093   0.08734   0.06147   0.00000  Uiso   1.00
H60    H     0.15118   0.05521   0.03458   0.00000  Uiso   1.00
H61    H     0.20001   0.08201   0.08377   0.00000  Uiso   1.00
H62    H     0.15417   0.11380   0.11325   0.00000  Uiso   1.00
H63    H     0.23710   0.27999   0.36419   0.00000  Uiso   1.00
H64    H     0.18682   0.31300   0.39093   0.00000  Uiso   1.00
H65    H     0.11649   0.16719   0.11209   0.00000  Uiso   1.00
H66    H     0.24353   0.31632   0.40652   0.00000  Uiso   1.00
H67    H     0.18220   0.27816   0.46540   0.00000  Uiso   1.00
H68    H     0.23243   0.24599   0.43855   0.00000  Uiso   1.00
H69    H     0.17916   0.21957   0.38677   0.00000  Uiso   1.00
H70    H     0.13334   0.25138   0.41626   0.00000  Uiso   1.00
H71    H     0.21684   0.16617   0.38791   0.00000  Uiso   1.00
H72    H     0.33017   0.13349   0.47908   0.00000  Uiso   1.00
H73    H     0.00317   0.19986   0.02092   0.00000  Uiso   1.00
H74    H     0.25543   0.03718   0.25922   0.00000  Uiso   1.00
H75    H     0.07791   0.29616   0.24078   0.00000  Uiso   1.00
H76    H     0.25545   0.29583   0.25929   0.00000  Uiso   1.00
N77    N     0.11736   0.16668   0.24999   0.00000  Uiso   1.00
N78    N     0.21597   0.16666   0.25001   0.00000  Uiso   1.00
O79    O     0.03958   0.10655   0.25000   0.00000  Uiso   1.00
O80    O     0.29375   0.22678   0.25000   0.00000  Uiso   1.00
O81    O     0.29372   0.10654   0.25000   0.00000  Uiso   1.00
O82    O     0.03961   0.22679   0.24999   0.00000  Uiso   1.00
O83    O     0.01852   0.16668   0.31491   0.00000  Uiso   1.00
O84    O     0.31481   0.16666   0.18508   0.00000  Uiso   1.00
O85    O     0.27267   0.16667   0.31492   0.00000  Uiso   1.00
O86    O     0.06067   0.16667   0.18508   0.00000  Uiso   1.00
C87    C     0.66664   0.08735   0.24999   0.00000  Uiso   1.00
C88    C     0.37704   0.02139   0.24489   0.00000  Uiso   1.00
C89    C     0.33335   0.29059   0.25003   0.00000  Uiso   1.00
C90    C     0.66665   0.04274   0.24997   0.00000  Uiso   1.00
C91    C     0.51778   0.13848   0.27516   0.00000  Uiso   1.00
C92    C     0.48222   0.19485   0.22484   0.00000  Uiso   1.00
C93    C     0.46817   0.13846   0.27508   0.00000  Uiso   1.00
C94    C     0.53183   0.19488   0.22492   0.00000  Uiso   1.00
C95    C     0.63970   0.16524   0.33649   0.00000  Uiso   1.00
C96    C     0.36030   0.16810   0.16352   0.00000  Uiso   1.00
C97    C     0.62533   0.16172   0.38646   0.00000  Uiso   1.00
C98    C     0.33336   0.24599   0.25001   0.00000  Uiso   1.00
C99    C     0.37466   0.17163   0.11354   0.00000  Uiso   1.00
C100   C     0.63957   0.14466   0.45930   0.00000  Uiso   1.00
C101   C     0.36044   0.18869   0.04070   0.00000  Uiso   1.00
C102   C     0.65819   0.15224   0.41294   0.00000  Uiso   1.00
C103   C     0.34181   0.18111   0.08706   0.00000  Uiso   1.00
C104   C     0.57585   0.16570   0.40810   0.00000  Uiso   1.00
C105   C     0.42415   0.16764   0.09191   0.00000  Uiso   1.00
C106   C     0.55855   0.16468   0.45512   0.00000  Uiso   1.00
C107   C     0.44146   0.16867   0.04489   0.00000  Uiso   1.00
C108   C     0.59000   0.14942   0.47998   0.00000  Uiso   1.00
C109   C     0.52077   0.13382   0.04272   0.00000  Uiso   1.00
C110   C     0.41000   0.18394   0.02002   0.00000  Uiso   1.00
C111   C     0.50964   0.17442   0.47748   0.00000  Uiso   1.00
C112   C     0.49037   0.15894   0.02253   0.00000  Uiso   1.00
C113   C     0.62144   0.18683   0.10713   0.00000  Uiso   1.00
C114   C     0.37856   0.14652   0.39287   0.00000  Uiso   1.00
C115   C     0.50237   0.10093   0.07930   0.00000  Uiso   1.00
C116   C     0.46644   0.07086   0.06665   0.00000  Uiso   1.00
C117   C     0.44883   0.03839   0.10362   0.00000  Uiso   1.00
C118   C     0.49764   0.23244   0.42071   0.00000  Uiso   1.00
C119   C     0.53360   0.26249   0.43335   0.00000  Uiso   1.00
C120   C     0.47924   0.19954   0.45729   0.00000  Uiso   1.00
C121   C     0.55125   0.29493   0.39636   0.00000  Uiso   1.00
C122   C     0.57093   0.13444   0.02357   0.00000  Uiso   1.00
C123   C     0.42908   0.19892   0.47644   0.00000  Uiso   1.00
C124   C     0.62295   0.02120   0.25508   0.00000  Uiso   1.00
C125   C     0.37705   0.31213   0.24492   0.00000  Uiso   1.00
C126   C     0.62296   0.31195   0.25511   0.00000  Uiso   1.00
Cu127  Cu    0.38022   0.16667   0.25000   0.00000  Uiso   1.00
Cu128  Cu    0.61978   0.16666   0.25000   0.00000  Uiso   1.00
H129   H     0.59492   0.11883   0.04058   0.00000  Uiso   1.00
H130   H     0.41122   0.03750   0.24071   0.00000  Uiso   1.00
H131   H     0.53084   0.11593   0.29534   0.00000  Uiso   1.00
H132   H     0.46916   0.21741   0.20466   0.00000  Uiso   1.00
H133   H     0.44391   0.11575   0.29499   0.00000  Uiso   1.00
H134   H     0.55609   0.21758   0.20501   0.00000  Uiso   1.00
H135   H     0.61535   0.21221   0.13195   0.00000  Uiso   1.00
H136   H     0.60226   0.19516   0.08105   0.00000  Uiso   1.00
H137   H     0.60495   0.15779   0.12353   0.00000  Uiso   1.00
H138   H     0.38465   0.12113   0.36805   0.00000  Uiso   1.00
H139   H     0.39505   0.17556   0.37647   0.00000  Uiso   1.00
H140   H     0.40509   0.21454   0.45942   0.00000  Uiso   1.00
H141   H     0.39774   0.13819   0.41895   0.00000  Uiso   1.00
H142   H     0.47995   0.02036   0.10905   0.00000  Uiso   1.00
H143   H     0.42962   0.05330   0.13579   0.00000  Uiso   1.00
H144   H     0.42326   0.01696   0.09344   0.00000  Uiso   1.00
H145   H     0.43426   0.08734   0.06147   0.00000  Uiso   1.00
H146   H     0.48452   0.05521   0.03458   0.00000  Uiso   1.00
H147   H     0.53335   0.08201   0.08377   0.00000  Uiso   1.00
H148   H     0.48750   0.11380   0.11325   0.00000  Uiso   1.00
H149   H     0.57043   0.27999   0.36419   0.00000  Uiso   1.00
H150   H     0.52015   0.31300   0.39093   0.00000  Uiso   1.00
H151   H     0.44982   0.16719   0.11209   0.00000  Uiso   1.00
H152   H     0.57686   0.31632   0.40652   0.00000  Uiso   1.00
H153   H     0.51553   0.27816   0.46540   0.00000  Uiso   1.00
H154   H     0.56576   0.24599   0.43855   0.00000  Uiso   1.00
H155   H     0.51249   0.21957   0.38677   0.00000  Uiso   1.00
H156   H     0.46668   0.25138   0.41626   0.00000  Uiso   1.00
H157   H     0.55018   0.16617   0.38791   0.00000  Uiso   1.00
H158   H     0.66350   0.13349   0.47908   0.00000  Uiso   1.00
H159   H     0.33650   0.19986   0.02092   0.00000  Uiso   1.00
H160   H     0.58876   0.03718   0.25922   0.00000  Uiso   1.00
H161   H     0.41124   0.29616   0.24078   0.00000  Uiso   1.00
H162   H     0.58878   0.29583   0.25929   0.00000  Uiso   1.00
N163   N     0.45069   0.16668   0.24999   0.00000  Uiso   1.00
N164   N     0.54931   0.16666   0.25001   0.00000  Uiso   1.00
O165   O     0.37291   0.10655   0.25000   0.00000  Uiso   1.00
O166   O     0.62709   0.22678   0.25000   0.00000  Uiso   1.00
O167   O     0.62706   0.10654   0.25000   0.00000  Uiso   1.00
O168   O     0.37294   0.22679   0.24999   0.00000  Uiso   1.00
O169   O     0.35186   0.16668   0.31491   0.00000  Uiso   1.00
O170   O     0.64814   0.16666   0.18508   0.00000  Uiso   1.00
O171   O     0.60600   0.16667   0.31492   0.00000  Uiso   1.00
O172   O     0.39400   0.16667   0.18508   0.00000  Uiso   1.00
C173   C     0.99998   0.08735   0.24999   0.00000  Uiso   1.00
C174   C     0.71037   0.02139   0.24489   0.00000  Uiso   1.00
C175   C     0.66668   0.29059   0.25003   0.00000  Uiso   1.00
C176   C     0.99998   0.04274   0.24997   0.00000  Uiso   1.00
C177   C     0.85111   0.13848   0.27516   0.00000  Uiso   1.00
C178   C     0.81556   0.19485   0.22484   0.00000  Uiso   1.00
C179   C     0.80151   0.13846   0.27508   0.00000  Uiso   1.00
C180   C     0.86516   0.19488   0.22492   0.00000  Uiso   1.00
C181   C     0.97304   0.16524   0.33649   0.00000  Uiso   1.00
C182   C     0.69363   0.16810   0.16352   0.00000  Uiso   1.00
C183   C     0.95867   0.16172   0.38646   0.00000  Uiso   1.00
C184   C     0.66669   0.24599   0.25001   0.00000  Uiso   1.00
C185   C     0.70800   0.17163   0.11354   0.00000  Uiso   1.00
C186   C     0.97290   0.14466   0.45930   0.00000  Uiso   1.00
C187   C     0.69377   0.18869   0.04070   0.00000  Uiso   1.00
C188   C     0.99152   0.15224   0.41294   0.00000  Uiso   1.00
C189   C     0.67515   0.18111   0.08706   0.00000  Uiso   1.00
C190   C     0.90919   0.16570   0.40810   0.00000  Uiso   1.00
C191   C     0.75748   0.16764   0.09191   0.00000  Uiso   1.00
C192   C     0.89188   0.16468   0.45512   0.00000  Uiso   1.00
C193   C     0.77479   0.16867   0.04489   0.00000  Uiso   1.00
C194   C     0.92334   0.14942   0.47998   0.00000  Uiso   1.00
C195   C     0.85410   0.13382   0.04272   0.00000  Uiso   1.00
C196   C     0.74334   0.18394   0.02002   0.00000  Uiso   1.00
C197   C     0.84297   0.17442   0.47748   0.00000  Uiso   1.00
C198   C     0.82370   0.15894   0.02253   0.00000  Uiso   1.00
C199   C     0.95477   0.18683   0.10713   0.00000  Uiso   1.00
C200   C     0.71189   0.14652   0.39287   0.00000  Uiso   1.00
C201   C     0.83571   0.10093   0.07930   0.00000  Uiso   1.00
C202   C     0.79977   0.07086   0.06665   0.00000  Uiso   1.00
C203   C     0.78216   0.03839   0.10362   0.00000  Uiso   1.00
C204   C     0.83097   0.23244   0.42071   0.00000  Uiso   1.00
C205   C     0.86693   0.26249   0.43335   0.00000  Uiso   1.00
C206   C     0.81258   0.19954   0.45729   0.00000  Uiso   1.00
C207   C     0.88459   0.29493   0.39636   0.00000  Uiso   1.00
C208   C     0.90427   0.13444   0.02357   0.00000  Uiso   1.00
C209   C     0.76241   0.19892   0.47644   0.00000  Uiso   1.00
C210   C     0.95628   0.02120   0.25508   0.00000  Uiso   1.00
C211   C     0.71039   0.31213   0.24492   0.00000  Uiso   1.00
C212   C     0.95630   0.31195   0.25511   0.00000  Uiso   1.00
Cu213  Cu    0.71355   0.16667   0.25000   0.00000  Uiso   1.00
Cu214  Cu    0.95311   0.16666   0.25000   0.00000  Uiso   1.00
H215   H     0.92825   0.11883   0.04058   0.00000  Uiso   1.00
H216   H     0.74455   0.03750   0.24071   0.00000  Uiso   1.00
H217   H     0.86418   0.11593   0.29534   0.00000  Uiso   1.00
H218   H     0.80249   0.21741   0.20466   0.00000  Uiso   1.00
H219   H     0.77724   0.11575   0.29499   0.00000  Uiso   1.00
H220   H     0.88942   0.21758   0.20501   0.00000  Uiso   1.00
H221   H     0.94869   0.21221   0.13195   0.00000  Uiso   1.00
H222   H     0.93559   0.19516   0.08105   0.00000  Uiso   1.00
H223   H     0.93828   0.15779   0.12353   0.00000  Uiso   1.00
H224   H     0.71798   0.12113   0.36805   0.00000  Uiso   1.00
H225   H     0.72838   0.17556   0.37647   0.00000  Uiso   1.00
H226   H     0.73843   0.21454   0.45942   0.00000  Uiso   1.00
H227   H     0.73108   0.13819   0.41895   0.00000  Uiso   1.00
H228   H     0.81329   0.02036   0.10905   0.00000  Uiso   1.00
H229   H     0.76295   0.05330   0.13579   0.00000  Uiso   1.00
H230   H     0.75660   0.01696   0.09344   0.00000  Uiso   1.00
H231   H     0.76759   0.08734   0.06147   0.00000  Uiso   1.00
H232   H     0.81785   0.05521   0.03458   0.00000  Uiso   1.00
H233   H     0.86668   0.08201   0.08377   0.00000  Uiso   1.00
H234   H     0.82084   0.11380   0.11325   0.00000  Uiso   1.00
H235   H     0.90376   0.27999   0.36419   0.00000  Uiso   1.00
H236   H     0.85349   0.31300   0.39093   0.00000  Uiso   1.00
H237   H     0.78315   0.16719   0.11209   0.00000  Uiso   1.00
H238   H     0.91020   0.31632   0.40652   0.00000  Uiso   1.00
H239   H     0.84887   0.27816   0.46540   0.00000  Uiso   1.00
H240   H     0.89910   0.24599   0.43855   0.00000  Uiso   1.00
H241   H     0.84582   0.21957   0.38677   0.00000  Uiso   1.00
H242   H     0.80001   0.25138   0.41626   0.00000  Uiso   1.00
H243   H     0.88351   0.16617   0.38791   0.00000  Uiso   1.00
H244   H     0.99684   0.13349   0.47908   0.00000  Uiso   1.00
H245   H     0.66984   0.19986   0.02092   0.00000  Uiso   1.00
H246   H     0.92209   0.03718   0.25922   0.00000  Uiso   1.00
H247   H     0.74457   0.29616   0.24078   0.00000  Uiso   1.00
H248   H     0.92211   0.29583   0.25929   0.00000  Uiso   1.00
N249   N     0.78403   0.16668   0.24999   0.00000  Uiso   1.00
N250   N     0.88264   0.16666   0.25001   0.00000  Uiso   1.00
O251   O     0.70625   0.10655   0.25000   0.00000  Uiso   1.00
O252   O     0.96042   0.22678   0.25000   0.00000  Uiso   1.00
O253   O     0.96039   0.10654   0.25000   0.00000  Uiso   1.00
O254   O     0.70628   0.22679   0.24999   0.00000  Uiso   1.00
O255   O     0.68519   0.16668   0.31491   0.00000  Uiso   1.00
O256   O     0.98148   0.16666   0.18508   0.00000  Uiso   1.00
O257   O     0.93933   0.16667   0.31492   0.00000  Uiso   1.00
O258   O     0.72733   0.16667   0.18508   0.00000  Uiso   1.00
C259   C     0.33331   0.42068   0.24999   0.00000  Uiso   1.00
C260   C     0.04371   0.35472   0.24489   0.00000  Uiso   1.00
C261   C     0.00002   0.62393   0.25003   0.00000  Uiso   1.00
C262   C     0.33332   0.37607   0.24997   0.00000  Uiso   1.00
C263   C     0.18444   0.47181   0.27516   0.00000  Uiso   1.00
C264   C     0.14889   0.52818   0.22484   0.00000  Uiso   1.00
C265   C     0.13484   0.47179   0.27508   0.00000  Uiso   1.00
C266   C     0.19849   0.52821   0.22492   0.00000  Uiso   1.00
C267   C     0.30637   0.49857   0.33649   0.00000  Uiso   1.00
C268   C     0.02696   0.50143   0.16352   0.00000  Uiso   1.00
C269   C     0.29200   0.49505   0.38646   0.00000  Uiso   1.00
C270   C     0.00002   0.57932   0.25001   0.00000  Uiso   1.00
C271   C     0.04133   0.50496   0.11354   0.00000  Uiso   1.00
C272   C     0.30623   0.47799   0.45930   0.00000  Uiso   1.00
C273   C     0.02710   0.52203   0.04070   0.00000  Uiso   1.00
C274   C     0.32485   0.48557   0.41294   0.00000  Uiso   1.00
C275   C     0.00848   0.51444   0.08706   0.00000  Uiso   1.00
C276   C     0.24252   0.49904   0.40810   0.00000  Uiso   1.00
C277   C     0.09081   0.50098   0.09191   0.00000  Uiso   1.00
C278   C     0.22521   0.49801   0.45512   0.00000  Uiso   1.00
C279   C     0.10812   0.50201   0.04489   0.00000  Uiso   1.00
C280   C     0.25667   0.48275   0.47998   0.00000  Uiso   1.00
C281   C     0.18743   0.46715   0.04272   0.00000  Uiso   1.00
C282   C     0.07667   0.51727   0.02002   0.00000  Uiso   1.00
C283   C     0.17631   0.50775   0.47748   0.00000  Uiso   1.00
C284   C     0.15703   0.49227   0.02253   0.00000  Uiso   1.00
C285   C     0.28811   0.52016   0.10713   0.00000  Uiso   1.00
C286   C     0.04523   0.47985   0.39287   0.00000  Uiso   1.00
C287   C     0.16904   0.43426   0.07930   0.00000  Uiso   1.00
C288   C     0.13311   0.40419   0.06665   0.00000  Uiso   1.00
C289   C     0.11550   0.37172   0.10362   0.00000  Uiso   1.00
C290   C     0.16431   0.56577   0.42071   0.00000  Uiso   1.00
C291   C     0.20027   0.59582   0.43335   0.00000  Uiso   1.00
C292   C     0.14591   0.53287   0.45729   0.00000  Uiso   1.00
C293   C     0.21792   0.62826   0.39636   0.00000  Uiso   1.00
C294   C     0.23760   0.46777   0.02357   0.00000  Uiso   1.00
C295   C     0.09574   0.53225   0.47644   0.00000  Uiso   1.00
C296   C     0.28961   0.35454   0.25508   0.00000  Uiso   1.00
C297   C     0.04372   0.64546   0.24492   0.00000  Uiso   1.00
C298   C     0.28963   0.64528   0.25511   0.00000  Uiso   1.00
Cu299  Cu    0.04689   0.50001   0.25000   0.00000  Uiso   1.00
Cu300  Cu    0.28645   0.49999   0.25000   0.00000  Uiso   1.00
H301   H     0.26158   0.45216   0.04058   0.00000  Uiso   1.00
H302   H     0.07789   0.37084   0.24071   0.00000  Uiso   1.00
H303   H     0.19751   0.44926   0.29534   0.00000  Uiso   1.00
H304   H     0.13582   0.55074   0.20466   0.00000  Uiso   1.00
H305   H     0.11058   0.44908   0.29499   0.00000  Uiso   1.00
H306   H     0.22276   0.55092   0.20501   0.00000  Uiso   1.00
H307   H     0.28202   0.54555   0.13195   0.00000  Uiso   1.00
H308   H     0.26893   0.52850   0.08105   0.00000  Uiso   1.00
H309   H     0.27162   0.49112   0.12353   0.00000  Uiso   1.00
H310   H     0.05132   0.45447   0.36805   0.00000  Uiso   1.00
H311   H     0.06171   0.50889   0.37647   0.00000  Uiso   1.00
H312   H     0.07176   0.54787   0.45942   0.00000  Uiso   1.00
H313   H     0.06441   0.47152   0.41895   0.00000  Uiso   1.00
H314   H     0.14662   0.35369   0.10905   0.00000  Uiso   1.00
H315   H     0.09629   0.38663   0.13579   0.00000  Uiso   1.00
H316   H     0.08993   0.35029   0.09344   0.00000  Uiso   1.00
H317   H     0.10093   0.42068   0.06147   0.00000  Uiso   1.00
H318   H     0.15118   0.38854   0.03458   0.00000  Uiso   1.00
H319   H     0.20001   0.41534   0.08377   0.00000  Uiso   1.00
H320   H     0.15417   0.44713   0.11325   0.00000  Uiso   1.00
H321   H     0.23710   0.61332   0.36419   0.00000  Uiso   1.00
H322   H     0.18682   0.64633   0.39093   0.00000  Uiso   1.00
H323   H     0.11649   0.50052   0.11209   0.00000  Uiso   1.00
H324   H     0.24353   0.64966   0.40652   0.00000  Uiso   1.00
H325   H     0.18220   0.61149   0.46540   0.00000  Uiso   1.00
H326   H     0.23243   0.57933   0.43855   0.00000  Uiso   1.00
H327   H     0.17916   0.55290   0.38677   0.00000  Uiso   1.00
H328   H     0.13334   0.58471   0.41626   0.00000  Uiso   1.00
H329   H     0.21684   0.49950   0.38791   0.00000  Uiso   1.00
H330   H     0.33017   0.46682   0.47908   0.00000  Uiso   1.00
H331   H     0.00317   0.53319   0.02092   0.00000  Uiso   1.00
H332   H     0.25543   0.37051   0.25922   0.00000  Uiso   1.00
H333   H     0.07791   0.62949   0.24078   0.00000  Uiso   1.00
H334   H     0.25545   0.62916   0.25929   0.00000  Uiso   1.00
N335   N     0.11736   0.50001   0.24999   0.00000  Uiso   1.00
N336   N     0.21597   0.49999   0.25001   0.00000  Uiso   1.00
O337   O     0.03958   0.43989   0.25000   0.00000  Uiso   1.00
O338   O     0.29375   0.56011   0.25000   0.00000  Uiso   1.00
O339   O     0.29372   0.43988   0.25000   0.00000  Uiso   1.00
O340   O     0.03961   0.56012   0.24999   0.00000  Uiso   1.00
O341   O     0.01852   0.50001   0.31491   0.00000  Uiso   1.00
O342   O     0.31481   0.49999   0.18508   0.00000  Uiso   1.00
O343   O     0.27267   0.50000   0.31492   0.00000  Uiso   1.00
O344   O     0.06067   0.50000   0.18508   0.00000  Uiso   1.00
C345   C     0.66664   0.42068   0.24999   0.00000  Uiso   1.00
C346   C     0.37704   0.35472   0.24489   0.00000  Uiso   1.00
C347   C     0.33335   0.62393   0.25003   0.00000  Uiso   1.00
C348   C     0.66665   0.37607   0.24997   0.00000  Uiso   1.00
C349   C     0.51778   0.47181   0.27516   0.00000  Uiso   1.00
C350   C     0.48222   0.52818   0.22484   0.00000  Uiso   1.00
C351   C     0.46817   0.47179   0.27508   0.00000  Uiso   1.00
C352   C     0.53183   0.52821   0.22492   0.00000  Uiso   1.00
C353   C     0.63970   0.49857   0.33649   0.00000  Uiso   1.00
C354   C     0.36030   0.50143   0.16352   0.00000  Uiso   1.00
C355   C     0.62533   0.49505   0.38646   0.00000  Uiso   1.00
C356   C     0.33336   0.57932   0.25001   0.00000  Uiso   1.00
C357   C     0.37466   0.50496   0.11354   0.00000  Uiso   1.00
C358   C     0.63957   0.47799   0.45930   0.00000  Uiso   1.00
C359   C     0.36044   0.52203   0.04070   0.00000  Uiso   1.00
C360   C     0.65819   0.48557   0.41294   0.00000  Uiso   1.00
C361   C     0.34181   0.51444   0.08706   0.00000  Uiso   1.00
C362   C     0.57585   0.49904   0.40810   0.00000  Uiso   1.00
C363   C     0.42415   0.50098   0.09191   0.00000  Uiso   1.00
C364   C     0.55855   0.49801   0.45512   0.00000  Uiso   1.00
C365   C     0.44146   0.50201   0.04489   0.00000  Uiso   1.00
C366   C     0.59000   0.48275   0.47998   0.00000  Uiso   1.00
C367   C     0.52077   0.46715   0.04272   0.00000  Uiso   1.00
C368   C     0.41000   0.51727   0.02002   0.00000  Uiso   1.00
C369   C     0.50964   0.50775   0.47748   0.00000  Uiso   1.00
C370   C     0.49037   0.49227   0.02253   0.00000  Uiso   1.00
C371   C     0.62144   0.52016   0.10713   0.00000  Uiso   1.00
C372   C     0.37856   0.47985   0.39287   0.00000  Uiso   1.00
C373   C     0.50237   0.43426   0.07930   0.00000  Uiso   1.00
C374   C     0.46644   0.40419   0.06665   0.00000  Uiso   1.00
C375   C     0.44883   0.37172   0.10362   0.00000  Uiso   1.00
C376   C     0.49764   0.56577   0.42071   0.00000  Uiso   1.00
C377   C     0.53360   0.59582   0.43335   0.00000  Uiso   1.00
C378   C     0.47924   0.53287   0.45729   0.00000  Uiso   1.00
C379   C     0.55125   0.62826   0.39636   0.00000  Uiso   1.00
C380   C     0.57093   0.46777   0.02357   0.00000  Uiso   1.00
C381   C     0.42908   0.53225   0.47644   0.00000  Uiso   1.00
C382   C     0.62295   0.35454   0.25508   0.00000  Uiso   1.00
C383   C     0.37705   0.64546   0.24492   0.00000  Uiso   1.00
C384   C     0.62296   0.64528   0.25511   0.00000  Uiso   1.00
Cu385  Cu    0.38022   0.50001   0.25000   0.00000  Uiso   1.00
Cu386  Cu    0.61978   0.49999   0.25000   0.00000  Uiso   1.00
H387   H     0.59492   0.45216   0.04058   0.00000  Uiso   1.00
H388   H     0.41122   0.37084   0.24071   0.00000  Uiso   1.00
H389   H     0.53084   0.44926   0.29534   0.00000  Uiso   1.00
H390   H     0.46916   0.55074   0.20466   0.00000  Uiso   1.00
H391   H     0.44391   0.44908   0.29499   0.00000  Uiso   1.00
H392   H     0.55609   0.55092   0.20501   0.00000  Uiso   1.00
H393   H     0.61535   0.54555   0.13195   0.00000  Uiso   1.00
H394   H     0.60226   0.52850   0.08105   0.00000  Uiso   1.00
H395   H     0.60495   0.49112   0.12353   0.00000  Uiso   1.00
H396   H     0.38465   0.45447   0.36805   0.00000  Uiso   1.00
H397   H     0.39505   0.50889   0.37647   0.00000  Uiso   1.00
H398   H     0.40509   0.54787   0.45942   0.00000  Uiso   1.00
H399   H     0.39774   0.47152   0.41895   0.00000  Uiso   1.00
H400   H     0.47995   0.35369   0.10905   0.00000  Uiso   1.00
H401   H     0.42962   0.38663   0.13579   0.00000  Uiso   1.00
H402   H     0.42326   0.35029   0.09344   0.00000  Uiso   1.00
H403   H     0.43426   0.42068   0.06147   0.00000  Uiso   1.00
H404   H     0.48452   0.38854   0.03458   0.00000  Uiso   1.00
H405   H     0.53335   0.41534   0.08377   0.00000  Uiso   1.00
H406   H     0.48750   0.44713   0.11325   0.00000  Uiso   1.00
H407   H     0.57043   0.61332   0.36419   0.00000  Uiso   1.00
H408   H     0.52015   0.64633   0.39093   0.00000  Uiso   1.00
H409   H     0.44982   0.50052   0.11209   0.00000  Uiso   1.00
H410   H     0.57686   0.64966   0.40652   0.00000  Uiso   1.00
H411   H     0.51553   0.61149   0.46540   0.00000  Uiso   1.00
H412   H     0.56576   0.57933   0.43855   0.00000  Uiso   1.00
H413   H     0.51249   0.55290   0.38677   0.00000  Uiso   1.00
H414   H     0.46668   0.58471   0.41626   0.00000  Uiso   1.00
H415   H     0.55018   0.49950   0.38791   0.00000  Uiso   1.00
H416   H     0.66350   0.46682   0.47908   0.00000  Uiso   1.00
H417   H     0.33650   0.53319   0.02092   0.00000  Uiso   1.00
H418   H     0.58876   0.37051   0.25922   0.00000  Uiso   1.00
H419   H     0.41124   0.62949   0.24078   0.00000  Uiso   1.00
H420   H     0.58878   0.62916   0.25929   0.00000  Uiso   1.00
N421   N     0.45069   0.50001   0.24999   0.00000  Uiso   1.00
N422   N     0.54931   0.49999   0.25001   0.00000  Uiso   1.00
O423   O     0.37291   0.43989   0.25000   0.00000  Uiso   1.00
O424   O     0.62709   0.56011   0.25000   0.00000  Uiso   1.00
O425   O     0.62706   0.43988   0.25000   0.00000  Uiso   1.00
O426   O     0.37294   0.56012   0.24999   0.00000  Uiso   1.00
O427   O     0.35186   0.50001   0.31491   0.00000  Uiso   1.00
O428   O     0.64814   0.49999   0.18508   0.00000  Uiso   1.00
O429   O     0.60600   0.50000   0.31492   0.00000  Uiso   1.00
O430   O     0.39400   0.50000   0.18508   0.00000  Uiso   1.00
C431   C     0.99998   0.42068   0.24999   0.00000  Uiso   1.00
C432   C     0.71037   0.35472   0.24489   0.00000  Uiso   1.00
C433   C     0.66668   0.62393   0.25003   0.00000  Uiso   1.00
C434   C     0.99998   0.37607   0.24997   0.00000  Uiso   1.00
C435   C     0.85111   0.47181   0.27516   0.00000  Uiso   1.00
C436   C     0.81556   0.52818   0.22484   0.00000  Uiso   1.00
C437   C     0.80151   0.47179   0.27508   0.00000  Uiso   1.00
C438   C     0.86516   0.52821   0.22492   0.00000  Uiso   1.00
C439   C     0.97304   0.49857   0.33649   0.00000  Uiso   1.00
C440   C     0.69363   0.50143   0.16352   0.00000  Uiso   1.00
C441   C     0.95867   0.49505   0.38646   0.00000  Uiso   1.00
C442   C     0.66669   0.57932   0.25001   0.00000  Uiso   1.00
C443   C     0.70800   0.50496   0.11354   0.00000  Uiso   1.00
C444   C     0.97290   0.47799   0.45930   0.00000  Uiso   1.00
C445   C     0.69377   0.52203   0.04070   0.00000  Uiso   1.00
C446   C     0.99152   0.48557   0.41294   0.00000  Uiso   1.00
C447   C     0.67515   0.51444   0.08706   0.00000  Uiso   1.00
C448   C     0.90919   0.49904   0.40810   0.00000  Uiso   1.00
C449   C     0.75748   0.50098   0.09191   0.00000  Uiso   1.00
C450   C     0.89188   0.49801   0.45512   0.00000  Uiso   1.00
C451   C     0.77479   0.50201   0.04489   0.00000  Uiso   1.00
C452   C     0.92334   0.48275   0.47998   0.00000  Uiso   1.00
C453   C     0.85410   0.46715   0.04272   0.00000  Uiso   1.00
C454   C     0.74334   0.51727   0.02002   0.00000  Uiso   1.00
C455   C     0.84297   0.50775   0.47748   0.00000  Uiso   1.00
C456   C     0.82370   0.49227   0.02253   0.00000  Uiso   1.00
C457   C     0.95477   0.52016   0.10713   0.00000  Uiso   1.00
C458   C     0.71189   0.47985   0.39287   0.00000  Uiso   1.00
C459   C     0.83571   0.43426   0.07930   0.00000  Uiso   1.00
C460   C     0.79977   0.40419   0.06665   0.00000  Uiso   1.00
C461   C     0.78216   0.37172   0.10362   0.00000  Uiso   1.00
C462   C     0.83097   0.56577   0.42071   0.00000  Uiso   1.00
C463   C     0.86693   0.59582   0.43335   0.00000  Uiso   1.00
C464   C     0.81258   0.53287   0.45729   0.00000  Uiso   1.00
C465   C     0.88459   0.62826   0.39636   0.00000  Uiso   1.00
C466   C     0.90427   0.46777   0.02357   0.00000  Uiso   1.00
C467   C     0.76241   0.53225   0.47644   0.00000  Uiso   1.00
C468   C     0.95628   0.35454   0.25508   0.00000  Uiso   1.00
C469   C     0.71039   0.64546   0.24492   0.00000  Uiso   1.00
C470   C     0.95630   0.64528   0.25511   0.00000  Uiso   1.00
Cu471  Cu    0.71355   0.50001   0.25000   0.00000  Uiso   1.00
Cu472  Cu    0.95311   0.49999   0.25000   0.00000  Uiso   1.00
H473   H     0.92825   0.45216   0.04058   0.00000  Uiso   1.00
H474   H     0.74455   0.37084   0.24071   0.00000  Uiso   1.00
H475   H     0.86418   0.44926   0.29534   0.00000  Uiso   1.00
H476   H     0.80249   0.55074   0.20466   0.00000  Uiso   1.00
H477   H     0.77724   0.44908   0.29499   0.00000  Uiso   1.00
H478   H     0.88942   0.55092   0.20501   0.00000  Uiso   1.00
H479   H     0.94869   0.54555   0.13195   0.00000  Uiso   1.00
H480   H     0.93559   0.52850   0.08105   0.00000  Uiso   1.00
H481   H     0.93828   0.49112   0.12353   0.00000  Uiso   1.00
H482   H     0.71798   0.45447   0.36805   0.00000  Uiso   1.00
H483   H     0.72838   0.50889   0.37647   0.00000  Uiso   1.00
H484   H     0.73843   0.54787   0.45942   0.00000  Uiso   1.00
H485   H     0.73108   0.47152   0.41895   0.00000  Uiso   1.00
H486   H     0.81329   0.35369   0.10905   0.00000  Uiso   1.00
H487   H     0.76295   0.38663   0.13579   0.00000  Uiso   1.00
H488   H     0.75660   0.35029   0.09344   0.00000  Uiso   1.00
H489   H     0.76759   0.42068   0.06147   0.00000  Uiso   1.00
H490   H     0.81785   0.38854   0.03458   0.00000  Uiso   1.00
H491   H     0.86668   0.41534   0.08377   0.00000  Uiso   1.00
H492   H     0.82084   0.44713   0.11325   0.00000  Uiso   1.00
H493   H     0.90376   0.61332   0.36419   0.00000  Uiso   1.00
H494   H     0.85349   0.64633   0.39093   0.00000  Uiso   1.00
H495   H     0.78315   0.50052   0.11209   0.00000  Uiso   1.00
H496   H     0.91020   0.64966   0.40652   0.00000  Uiso   1.00
H497   H     0.84887   0.61149   0.46540   0.00000  Uiso   1.00
H498   H     0.89910   0.57933   0.43855   0.00000  Uiso   1.00
H499   H     0.84582   0.55290   0.38677   0.00000  Uiso   1.00
H500   H     0.80001   0.58471   0.41626   0.00000  Uiso   1.00
H501   H     0.88351   0.49950   0.38791   0.00000  Uiso   1.00
H502   H     0.99684   0.46682   0.47908   0.00000  Uiso   1.00
H503   H     0.66984   0.53319   0.02092   0.00000  Uiso   1.00
H504   H     0.92209   0.37051   0.25922   0.00000  Uiso   1.00
H505   H     0.74457   0.62949   0.24078   0.00000  Uiso   1.00
H506   H     0.92211   0.62916   0.25929   0.00000  Uiso   1.00
N507   N     0.78403   0.50001   0.24999   0.00000  Uiso   1.00
N508   N     0.88264   0.49999   0.25001   0.00000  Uiso   1.00
O509   O     0.70625   0.43989   0.25000   0.00000  Uiso   1.00
O510   O     0.96042   0.56011   0.25000   0.00000  Uiso   1.00
O511   O     0.96039   0.43988   0.25000   0.00000  Uiso   1.00
O512   O     0.70628   0.56012   0.24999   0.00000  Uiso   1.00
O513   O     0.68519   0.50001   0.31491   0.00000  Uiso   1.00
O514   O     0.98148   0.49999   0.18508   0.00000  Uiso   1.00
O515   O     0.93933   0.50000   0.31492   0.00000  Uiso   1.00
O516   O     0.72733   0.50000   0.18508   0.00000  Uiso   1.00
C517   C     0.33331   0.75401   0.24999   0.00000  Uiso   1.00
C518   C     0.04371   0.68805   0.24489   0.00000  Uiso   1.00
C519   C     0.00002   0.95726   0.25003   0.00000  Uiso   1.00
C520   C     0.33332   0.70941   0.24997   0.00000  Uiso   1.00
C521   C     0.18444   0.80515   0.27516   0.00000  Uiso   1.00
C522   C     0.14889   0.86152   0.22484   0.00000  Uiso   1.00
C523   C     0.13484   0.80512   0.27508   0.00000  Uiso   1.00
C524   C     0.19849   0.86154   0.22492   0.00000  Uiso   1.00
C525   C     0.30637   0.83190   0.33649   0.00000  Uiso   1.00
C526   C     0.02696   0.83477   0.16352   0.00000  Uiso   1.00
C527   C     0.29200   0.82838   0.38646   0.00000  Uiso   1.00
C528   C     0.00002   0.91265   0.25001   0.00000  Uiso   1.00
C529   C     0.04133   0.83829   0.11354   0.00000  Uiso   1.00
C530   C     0.30623   0.81132   0.45930   0.00000  Uiso   1.00
C531   C     0.02710   0.85536   0.04070   0.00000  Uiso   1.00
C532   C     0.32485   0.81891   0.41294   0.00000  Uiso   1.00
C533   C     0.00848   0.84777   0.08706   0.00000  Uiso   1.00
C534   C     0.24252   0.83237   0.40810   0.00000  Uiso   1.00
C535   C     0.09081   0.83431   0.09191   0.00000  Uiso   1.00
C536   C     0.22521   0.83134   0.45512   0.00000  Uiso   1.00
C537   C     0.10812   0.83534   0.04489   0.00000  Uiso   1.00
C538   C     0.25667   0.81608   0.47998   0.00000  Uiso   1.00
C539   C     0.18743   0.80049   0.04272   0.00000  Uiso   1.00
C540   C     0.07667   0.85060   0.02002   0.00000  Uiso   1.00
C541   C     0.17631   0.84108   0.47748   0.00000  Uiso   1.00
C542   C     0.15703   0.82560   0.02253   0.00000  Uiso   1.00
C543   C     0.28811   0.85350   0.10713   0.00000  Uiso   1.00
C544   C     0.04523   0.81318   0.39287   0.00000  Uiso   1.00
C545   C     0.16904   0.76759   0.07930   0.00000  Uiso   1.00
C546   C     0.13311   0.73752   0.06665   0.00000  Uiso   1.00
C547   C     0.11550   0.70506   0.10362   0.00000  Uiso   1.00
C548   C     0.16431   0.89910   0.42071   0.00000  Uiso   1.00
C549   C     0.20027   0.92916   0.43335   0.00000  Uiso   1.00
C550   C     0.14591   0.86620   0.45729   0.00000  Uiso   1.00
C551   C     0.21792   0.96159   0.39636   0.00000  Uiso   1.00
C552   C     0.23760   0.80111   0.02357   0.00000  Uiso   1.00
C553   C     0.09574   0.86558   0.47644   0.00000  Uiso   1.00
C554   C     0.28961   0.68787   0.25508   0.00000  Uiso   1.00
C555   C     0.04372   0.97880   0.24492   0.00000  Uiso   1.00
C556   C     0.28963   0.97861   0.25511   0.00000  Uiso   1.00
Cu557  Cu    0.04689   0.83334   0.25000   0.00000  Uiso   1.00
Cu558  Cu    0.28645   0.83333   0.25000   0.00000  Uiso   1.00
H559   H     0.26158   0.78549   0.04058   0.00000  Uiso   1.00
H560   H     0.07789   0.70417   0.24071   0.00000  Uiso   1.00
H561   H     0.19751   0.78259   0.29534   0.00000  Uiso   1.00
H562   H     0.13582   0.88407   0.20466   0.00000  Uiso   1.00
H563   H     0.11058   0.78242   0.29499   0.00000  Uiso   1.00
H564   H     0.22276   0.88425   0.20501   0.00000  Uiso   1.00
H565   H     0.28202   0.87888   0.13195   0.00000  Uiso   1.00
H566   H     0.26893   0.86183   0.08105   0.00000  Uiso   1.00
H567   H     0.27162   0.82445   0.12353   0.00000  Uiso   1.00
H568   H     0.05132   0.78780   0.36805   0.00000  Uiso   1.00
H569   H     0.06171   0.84223   0.37647   0.00000  Uiso   1.00
H570   H     0.07176   0.88120   0.45942   0.00000  Uiso   1.00
H571   H     0.06441   0.80485   0.41895   0.00000  Uiso   1.00
H572   H     0.14662   0.68702   0.10905   0.00000  Uiso   1.00
H573   H     0.09629   0.71996   0.13579   0.00000  Uiso   1.00
H574   H     0.08993   0.68363   0.09344   0.00000  Uiso   1.00
H575   H     0.10093   0.75401   0.06147   0.00000  Uiso   1.00
H576   H     0.15118   0.72188   0.03458   0.00000  Uiso   1.00
H577   H     0.20001   0.74867   0.08377   0.00000  Uiso   1.00
H578   H     0.15417   0.78046   0.11325   0.00000  Uiso   1.00
H579   H     0.23710   0.94666   0.36419   0.00000  Uiso   1.00
H580   H     0.18682   0.97967   0.39093   0.00000  Uiso   1.00
H581   H     0.11649   0.83385   0.11209   0.00000  Uiso   1.00
H582   H     0.24353   0.98299   0.40652   0.00000  Uiso   1.00
H583   H     0.18220   0.94483   0.46540   0.00000  Uiso   1.00
H584   H     0.23243   0.91266   0.43855   0.00000  Uiso   1.00
H585   H     0.17916   0.88623   0.38677   0.00000  Uiso   1.00
H586   H     0.13334   0.91804   0.41626   0.00000  Uiso   1.00
H587   H     0.21684   0.83284   0.38791   0.00000  Uiso   1.00
H588   H     0.33017   0.80016   0.47908   0.00000  Uiso   1.00
H589   H     0.00317   0.86653   0.02092   0.00000  Uiso   1.00
H590   H     0.25543   0.70384   0.25922   0.00000  Uiso   1.00
H591   H     0.07791   0.96282   0.24078   0.00000  Uiso   1.00
H592   H     0.25545   0.96249   0.25929   0.00000  Uiso   1.00
N593   N     0.11736   0.83334   0.24999   0.00000  Uiso   1.00
N594   N     0.21597   0.83332   0.25001   0.00000  Uiso   1.00
O595   O     0.03958   0.77322   0.25000   0.00000  Uiso   1.00
O596   O     0.29375   0.89345   0.25000   0.00000  Uiso   1.00
O597   O     0.29372   0.77321   0.25000   0.00000  Uiso   1.00
O598   O     0.03961   0.89346   0.24999   0.00000  Uiso   1.00
O599   O     0.01852   0.83334   0.31491   0.00000  Uiso   1.00
O600   O     0.31481   0.83332   0.18508   0.00000  Uiso   1.00
O601   O     0.27267   0.83333   0.31492   0.00000  Uiso   1.00
O602   O     0.06067   0.83333   0.18508   0.00000  Uiso   1.00
C603   C     0.66664   0.75401   0.24999   0.00000  Uiso   1.00
C604   C     0.37704   0.68805   0.24489   0.00000  Uiso   1.00
C605   C     0.33335   0.95726   0.25003   0.00000  Uiso   1.00
C606   C     0.66665   0.70941   0.24997   0.00000  Uiso   1.00
C607   C     0.51778   0.80515   0.27516   0.00000  Uiso   1.00
C608   C     0.48222   0.86152   0.22484   0.00000  Uiso   1.00
C609   C     0.46817   0.80512   0.27508   0.00000  Uiso   1.00
C610   C     0.53183   0.86154   0.22492   0.00000  Uiso   1.00
C611   C     0.63970   0.83190   0.33649   0.00000  Uiso   1.00
C612   C     0.36030   0.83477   0.16352   0.00000  Uiso   1.00
C613   C     0.62533   0.82838   0.38646   0.00000  Uiso   1.00
C614   C     0.33336   0.91265   0.25001   0.00000  Uiso   1.00
C615   C     0.37466   0.83829   0.11354   0.00000  Uiso   1.00
C616   C     0.63957   0.81132   0.45930   0.00000  Uiso   1.00
C617   C     0.36044   0.85536   0.04070   0.00000  Uiso   1.00
C618   C     0.65819   0.81891   0.41294   0.00000  Uiso   1.00
C619   C     0.34181   0.84777   0.08706   0.00000  Uiso   1.00
C620   C     0.57585   0.83237   0.40810   0.00000  Uiso   1.00
C621   C     0.42415   0.83431   0.09191   0.00000  Uiso   1.00
C622   C     0.55855   0.83134   0.45512   0.00000  Uiso   1.00
C623   C     0.44146   0.83534   0.04489   0.00000  Uiso   1.00
C624   C     0.59000   0.81608   0.47998   0.00000  Uiso   1.00
C625   C     0.52077   0.80049   0.04272   0.00000  Uiso   1.00
C626   C     0.41000   0.85060   0.02002   0.00000  Uiso   1.00
C627   C     0.50964   0.84108   0.47748   0.00000  Uiso   1.00
C628   C     0.49037   0.82560   0.02253   0.00000  Uiso   1.00
C629   C     0.62144   0.85350   0.10713   0.00000  Uiso   1.00
C630   C     0.37856   0.81318   0.39287   0.00000  Uiso   1.00
C631   C     0.50237   0.76759   0.07930   0.00000  Uiso   1.00
C632   C     0.46644   0.73752   0.06665   0.00000  Uiso   1.00
C633   C     0.44883   0.70506   0.10362   0.00000  Uiso   1.00
C634   C     0.49764   0.89910   0.42071   0.00000  Uiso   1.00
C635   C     0.53360   0.92916   0.43335   0.00000  Uiso   1.00
C636   C     0.47924   0.86620   0.45729   0.00000  Uiso   1.00
C637   C     0.55125   0.96159   0.39636   0.00000  Uiso   1.00
C638   C     0.57093   0.80111   0.02357   0.00000  Uiso   1.00
C639   C     0.42908   0.86558   0.47644   0.00000  Uiso   1.00
C640   C     0.62295   0.68787   0.25508   0.00000  Uiso   1.00
C641   C     0.37705   0.97880   0.24492   0.00000  Uiso   1.00
C642   C     0.62296   0.97861   0.25511   0.00000  Uiso   1.00
Cu643  Cu    0.38022   0.83334   0.25000   0.00000  Uiso   1.00
Cu644  Cu    0.61978   0.83333   0.25000   0.00000  Uiso   1.00
H645   H     0.59492   0.78549   0.04058   0.00000  Uiso   1.00
H646   H     0.41122   0.70417   0.24071   0.00000  Uiso   1.00
H647   H     0.53084   0.78259   0.29534   0.00000  Uiso   1.00
H648   H     0.46916   0.88407   0.20466   0.00000  Uiso   1.00
H649   H     0.44391   0.78242   0.29499   0.00000  Uiso   1.00
H650   H     0.55609   0.88425   0.20501   0.00000  Uiso   1.00
H651   H     0.61535   0.87888   0.13195   0.00000  Uiso   1.00
H652   H     0.60226   0.86183   0.08105   0.00000  Uiso   1.00
H653   H     0.60495   0.82445   0.12353   0.00000  Uiso   1.00
H654   H     0.38465   0.78780   0.36805   0.00000  Uiso   1.00
H655   H     0.39505   0.84223   0.37647   0.00000  Uiso   1.00
H656   H     0.40509   0.88120   0.45942   0.00000  Uiso   1.00
H657   H     0.39774   0.80485   0.41895   0.00000  Uiso   1.00
H658   H     0.47995   0.68702   0.10905   0.00000  Uiso   1.00
H659   H     0.42962   0.71996   0.13579   0.00000  Uiso   1.00
H660   H     0.42326   0.68363   0.09344   0.00000  Uiso   1.00
H661   H     0.43426   0.75401   0.06147   0.00000  Uiso   1.00
H662   H     0.48452   0.72188   0.03458   0.00000  Uiso   1.00
H663   H     0.53335   0.74867   0.08377   0.00000  Uiso   1.00
H664   H     0.48750   0.78046   0.11325   0.00000  Uiso   1.00
H665   H     0.57043   0.94666   0.36419   0.00000  Uiso   1.00
H666   H     0.52015   0.97967   0.39093   0.00000  Uiso   1.00
H667   H     0.44982   0.83385   0.11209   0.00000  Uiso   1.00
H668   H     0.57686   0.98299   0.40652   0.00000  Uiso   1.00
H669   H     0.51553   0.94483   0.46540   0.00000  Uiso   1.00
H670   H     0.56576   0.91266   0.43855   0.00000  Uiso   1.00
H671   H     0.51249   0.88623   0.38677   0.00000  Uiso   1.00
H672   H     0.46668   0.91804   0.41626   0.00000  Uiso   1.00
H673   H     0.55018   0.83284   0.38791   0.00000  Uiso   1.00
H674   H     0.66350   0.80016   0.47908   0.00000  Uiso   1.00
H675   H     0.33650   0.86653   0.02092   0.00000  Uiso   1.00
H676   H     0.58876   0.70384   0.25922   0.00000  Uiso   1.00
H677   H     0.41124   0.96282   0.24078   0.00000  Uiso   1.00
H678   H     0.58878   0.96249   0.25929   0.00000  Uiso   1.00
N679   N     0.45069   0.83334   0.24999   0.00000  Uiso   1.00
N680   N     0.54931   0.83332   0.25001   0.00000  Uiso   1.00
O681   O     0.37291   0.77322   0.25000   0.00000  Uiso   1.00
O682   O     0.62709   0.89345   0.25000   0.00000  Uiso   1.00
O683   O     0.62706   0.77321   0.25000   0.00000  Uiso   1.00
O684   O     0.37294   0.89346   0.24999   0.00000  Uiso   1.00
O685   O     0.35186   0.83334   0.31491   0.00000  Uiso   1.00
O686   O     0.64814   0.83332   0.18508   0.00000  Uiso   1.00
O687   O     0.60600   0.83333   0.31492   0.00000  Uiso   1.00
O688   O     0.39400   0.83333   0.18508   0.00000  Uiso   1.00
C689   C     0.99998   0.75401   0.24999   0.00000  Uiso   1.00
C690   C     0.71037   0.68805   0.24489   0.00000  Uiso   1.00
C691   C     0.66668   0.95726   0.25003   0.00000  Uiso   1.00
C692   C     0.99998   0.70941   0.24997   0.00000  Uiso   1.00
C693   C     0.85111   0.80515   0.27516   0.00000  Uiso   1.00
C694   C     0.81556   0.86152   0.22484   0.00000  Uiso   1.00
C695   C     0.80151   0.80512   0.27508   0.00000  Uiso   1.00
C696   C     0.86516   0.86154   0.22492   0.00000  Uiso   1.00
C697   C     0.97304   0.83190   0.33649   0.00000  Uiso   1.00
C698   C     0.69363   0.83477   0.16352   0.00000  Uiso   1.00
C699   C     0.95867   0.82838   0.38646   0.00000  Uiso   1.00
C700   C     0.66669   0.91265   0.25001   0.00000  Uiso   1.00
C701   C     0.70800   0.83829   0.11354   0.00000  Uiso   1.00
C702   C     0.97290   0.81132   0.45930   0.00000  Uiso   1.00
C703   C     0.69377   0.85536   0.04070   0.00000  Uiso   1.00
C704   C     0.99152   0.81891   0.41294   0.00000  Uiso   1.00
C705   C     0.67515   0.84777   0.08706   0.00000  Uiso   1.00
C706   C     0.90919   0.83237   0.40810   0.00000  Uiso   1.00
C707   C     0.75748   0.83431   0.09191   0.00000  Uiso   1.00
C708   C     0.89188   0.83134   0.45512   0.00000  Uiso   1.00
C709   C     0.77479   0.83534   0.04489   0.00000  Uiso   1.00
C710   C     0.92334   0.81608   0.47998   0.00000  Uiso   1.00
C711   C     0.85410   0.80049   0.04272   0.00000  Uiso   1.00
C712   C     0.74334   0.85060   0.02002   0.00000  Uiso   1.00
C713   C     0.84297   0.84108   0.47748   0.00000  Uiso   1.00
C714   C     0.82370   0.82560   0.02253   0.00000  Uiso   1.00
C715   C     0.95477   0.85350   0.10713   0.00000  Uiso   1.00
C716   C     0.71189   0.81318   0.39287   0.00000  Uiso   1.00
C717   C     0.83571   0.76759   0.07930   0.00000  Uiso   1.00
C718   C     0.79977   0.73752   0.06665   0.00000  Uiso   1.00
C719   C     0.78216   0.70506   0.10362   0.00000  Uiso   1.00
C720   C     0.83097   0.89910   0.42071   0.00000  Uiso   1.00
C721   C     0.86693   0.92916   0.43335   0.00000  Uiso   1.00
C722   C     0.81258   0.86620   0.45729   0.00000  Uiso   1.00
C723   C     0.88459   0.96159   0.39636   0.00000  Uiso   1.00
C724   C     0.90427   0.80111   0.02357   0.00000  Uiso   1.00
C725   C     0.76241   0.86558   0.47644   0.00000  Uiso   1.00
C726   C     0.95628   0.68787   0.25508   0.00000  Uiso   1.00
C727   C     0.71039   0.97880   0.24492   0.00000  Uiso   1.00
C728   C     0.95630   0.97861   0.25511   0.00000  Uiso   1.00
Cu729  Cu    0.71355   0.83334   0.25000   0.00000  Uiso   1.00
Cu730  Cu    0.95311   0.83333   0.25000   0.00000  Uiso   1.00
H731   H     0.92825   0.78549   0.04058   0.00000  Uiso   1.00
H732   H     0.74455   0.70417   0.24071   0.00000  Uiso   1.00
H733   H     0.86418   0.78259   0.29534   0.00000  Uiso   1.00
H734   H     0.80249   0.88407   0.20466   0.00000  Uiso   1.00
H735   H     0.77724   0.78242   0.29499   0.00000  Uiso   1.00
H736   H     0.88942   0.88425   0.20501   0.00000  Uiso   1.00
H737   H     0.94869   0.87888   0.13195   0.00000  Uiso   1.00
H738   H     0.93559   0.86183   0.08105   0.00000  Uiso   1.00
H739   H     0.93828   0.82445   0.12353   0.00000  Uiso   1.00
H740   H     0.71798   0.78780   0.36805   0.00000  Uiso   1.00
H741   H     0.72838   0.84223   0.37647   0.00000  Uiso   1.00
H742   H     0.73843   0.88120   0.45942   0.00000  Uiso   1.00
H743   H     0.73108   0.80485   0.41895   0.00000  Uiso   1.00
H744   H     0.81329   0.68702   0.10905   0.00000  Uiso   1.00
H745   H     0.76295   0.71996   0.13579   0.00000  Uiso   1.00
H746   H     0.75660   0.68363   0.09344   0.00000  Uiso   1.00
H747   H     0.76759   0.75401   0.06147   0.00000  Uiso   1.00
H748   H     0.81785   0.72188   0.03458   0.00000  Uiso   1.00
H749   H     0.86668   0.74867   0.08377   0.00000  Uiso   1.00
H750   H     0.82084   0.78046   0.11325   0.00000  Uiso   1.00
H751   H     0.90376   0.94666   0.36419   0.00000  Uiso   1.00
H752   H     0.85349   0.97967   0.39093   0.00000  Uiso   1.00
H753   H     0.78315   0.83385   0.11209   0.00000  Uiso   1.00
H754   H     0.91020   0.98299   0.40652   0.00000  Uiso   1.00
H755   H     0.84887   0.94483   0.46540   0.00000  Uiso   1.00
H756   H     0.89910   0.91266   0.43855   0.00000  Uiso   1.00
H757   H     0.84582   0.88623   0.38677   0.00000  Uiso   1.00
H758   H     0.80001   0.91804   0.41626   0.00000  Uiso   1.00
H759   H     0.88351   0.83284   0.38791   0.00000  Uiso   1.00
H760   H     0.99684   0.80016   0.47908   0.00000  Uiso   1.00
H761   H     0.66984   0.86653   0.02092   0.00000  Uiso   1.00
H762   H     0.92209   0.70384   0.25922   0.00000  Uiso   1.00
H763   H     0.74457   0.96282   0.24078   0.00000  Uiso   1.00
H764   H     0.92211   0.96249   0.25929   0.00000  Uiso   1.00
N765   N     0.78403   0.83334   0.24999   0.00000  Uiso   1.00
N766   N     0.88264   0.83332   0.25001   0.00000  Uiso   1.00
O767   O     0.70625   0.77322   0.25000   0.00000  Uiso   1.00
O768   O     0.96042   0.89345   0.25000   0.00000  Uiso   1.00
O769   O     0.96039   0.77321   0.25000   0.00000  Uiso   1.00
O770   O     0.70628   0.89346   0.24999   0.00000  Uiso   1.00
O771   O     0.68519   0.83334   0.31491   0.00000  Uiso   1.00
O772   O     0.98148   0.83332   0.18508   0.00000  Uiso   1.00
O773   O     0.93933   0.83333   0.31492   0.00000  Uiso   1.00
O774   O     0.72733   0.83333   0.18508   0.00000  Uiso   1.00
C775   C     0.33331   0.08735   0.74999   0.00000  Uiso   1.00
C776   C     0.04371   0.02139   0.74489   0.00000  Uiso   1.00
C777   C     0.00002   0.29059   0.75003   0.00000  Uiso   1.00
C778   C     0.33332   0.04274   0.74997   0.00000  Uiso   1.00
C779   C     0.18444   0.13848   0.77516   0.00000  Uiso   1.00
C780   C     0.14889   0.19485   0.72484   0.00000  Uiso   1.00
C781   C     0.13484   0.13846   0.77508   0.00000  Uiso   1.00
C782   C     0.19849   0.19488   0.72492   0.00000  Uiso   1.00
C783   C     0.30637   0.16524   0.83649   0.00000  Uiso   1.00
C784   C     0.02696   0.16810   0.66352   0.00000  Uiso   1.00
C785   C     0.29200   0.16172   0.88646   0.00000  Uiso   1.00
C786   C     0.00002   0.24599   0.75001   0.00000  Uiso   1.00
C787   C     0.04133   0.17163   0.61354   0.00000  Uiso   1.00
C788   C     0.30623   0.14466   0.95930   0.00000  Uiso   1.00
C789   C     0.02710   0.18869   0.54070   0.00000  Uiso   1.00
C790   C     0.32485   0.15224   0.91294   0.00000  Uiso   1.00
C791   C     0.00848   0.18111   0.58706   0.00000  Uiso   1.00
C792   C     0.24252   0.16570   0.90810   0.00000  Uiso   1.00
C793   C     0.09081   0.16764   0.59191   0.00000  Uiso   1.00
C794   C     0.22521   0.16468   0.95512   0.00000  Uiso   1.00
C795   C     0.10812   0.16867   0.54489   0.00000  Uiso   1.00
C796   C     0.25667   0.14942   0.97998   0.00000  Uiso   1.00
C797   C     0.18743   0.13382   0.54272   0.00000  Uiso   1.00
C798   C     0.07667   0.18394   0.52002   0.00000  Uiso   1.00
C799   C     0.17631   0.17442   0.97748   0.00000  Uiso   1.00
C800   C     0.15703   0.15894   0.52253   0.00000  Uiso   1.00
C801   C     0.28811   0.18683   0.60713   0.00000  Uiso   1.00
C802   C     0.04523   0.14652   0.89287   0.00000  Uiso   1.00
C803   C     0.16904   0.10093   0.57930   0.00000  Uiso   1.00
C804   C     0.13311   0.07086   0.56665   0.00000  Uiso   1.00
C805   C     0.11550   0.03839   0.60362   0.00000  Uiso   1.00
C806   C     0.16431   0.23244   0.92071   0.00000  Uiso   1.00
C807   C     0.20027   0.26249   0.93335   0.00000  Uiso   1.00
C808   C     0.14591   0.19954   0.95729   0.00000  Uiso   1.00
C809   C     0.21792   0.29493   0.89636   0.00000  Uiso   1.00
C810   C     0.23760   0.13444   0.52357   0.00000  Uiso   1.00
C811   C     0.09574   0.19892   0.97644   0.00000  Uiso   1.00
C812   C     0.28961   0.02120   0.75508   0.00000  Uiso   1.00
C813   C     0.04372   0.31213   0.74492   0.00000  Uiso   1.00
C814   C     0.28963   0.31195   0.75511   0.00000  Uiso   1.00
Cu815  Cu    0.04689   0.16667   0.75000   0.00000  Uiso   1.00
Cu816  Cu    0.28645   0.16666   0.75000   0.00000  Uiso   1.00
H817   H     0.26158   0.11883   0.54058   0.00000  Uiso   1.00
H818   H     0.07789   0.03750   0.74071   0.00000  Uiso   1.00
H819   H     0.19751   0.11593   0.79534   0.00000  Uiso   1.00
H820   H     0.13582   0.21741   0.70466   0.00000  Uiso   1.00
H821   H     0.11058   0.11575   0.79499   0.00000  Uiso   1.00
H822   H     0.22276   0.21758   0.70501   0.00000  Uiso   1.00
H823   H     0.28202   0.21221   0.63195   0.00000  Uiso   1.00
H824   H     0.26893   0.19516   0.58105   0.00000  Uiso   1.00
H825   H     0.27162   0.15779   0.62353   0.00000  Uiso   1.00
H826   H     0.05132   0.12113   0.86805   0.00000  Uiso   1.00
H827   H     0.06171   0.17556   0.87647   0.00000  Uiso   1.00
H828   H     0.07176   0.21454   0.95942   0.00000  Uiso   1.00
H829   H     0.06441   0.13819   0.91895   0.00000  Uiso   1.00
H830   H     0.14662   0.02036   0.60905   0.00000  Uiso   1.00
H831   H     0.09629   0.05330   0.63579   0.00000  Uiso   1.00
H832   H     0.08993   0.01696   0.59344   0.00000  Uiso   1.00
H833   H     0.10093   0.08734   0.56147   0.00000  Uiso   1.00
H834   H     0.15118   0.05521   0.53458   0.00000  Uiso   1.00
H835   H     0.20001   0.08201   0.58377   0.00000  Uiso   1.00
H836   H     0.15417   0.11380   0.61325   0.00000  Uiso   1.00
H837   H     0.23710   0.27999   0.86419   0.00000  Uiso   1.00
H838   H     0.18682   0.31300   0.89093   0.00000  Uiso   1.00
H839   H     0.11649   0.16719   0.61209   0.00000  Uiso   1.00
H840   H     0.24353   0.31632   0.90652   0.00000  Uiso   1.00
H841   H     0.18220   0.27816   0.96540   0.00000  Uiso   1.00
H842   H     0.23243   0.24599   0.93855   0.00000  Uiso   1.00
H843   H     0.17916   0.21957   0.88677   0.00000  Uiso   1.00
H844   H     0.13334   0.25138   0.91626   0.00000  Uiso   1.00
H845   H     0.21684   0.16617   0.88791   0.00000  Uiso   1.00
H846   H     0.33017   0.13349   0.97908   0.00000  Uiso   1.00
H847   H     0.00317   0.19986   0.52092   0.00000  Uiso   1.00
H848   H     0.25543   0.03718   0.75922   0.00000  Uiso   1.00
H849   H     0.07791   0.29616   0.74078   0.00000  Uiso   1.00
H850   H     0.25545   0.29583   0.75929   0.00000  Uiso   1.00
N851   N     0.11736   0.16668   0.74999   0.00000  Uiso   1.00
N852   N     0.21597   0.16666   0.75001   0.00000  Uiso   1.00
O853   O     0.03958   0.10655   0.75000   0.00000  Uiso   1.00
O854   O     0.29375   0.22678   0.75000   0.00000  Uiso   1.00
O855   O     0.29372   0.10654   0.75000   0.00000  Uiso   1.00
O856   O     0.03961   0.22679   0.74999   0.00000  Uiso   1.00
O857   O     0.01852   0.16668   0.81491   0.00000  Uiso   1.00
O858   O     0.31481   0.16666   0.68508   0.00000  Uiso   1.00
O859   O     0.27267   0.16667   0.81492   0.00000  Uiso   1.00
O860   O     0.06067   0.16667   0.68508   0.00000  Uiso   1.00
C861   C     0.66664   0.08735   0.74999   0.00000  Uiso   1.00
C862   C     0.37704   0.02139   0.74489   0.00000  Uiso   1.00
C863   C     0.33335   0.29059   0.75003   0.00000  Uiso   1.00
C864   C     0.66665   0.04274   0.74997   0.00000  Uiso   1.00
C865   C     0.51778   0.13848   0.77516   0.00000  Uiso   1.00
C866   C     0.48222   0.19485   0.72484   0.00000  Uiso   1.00
C867   C     0.46817   0.13846   0.77508   0.00000  Uiso   1.00
C868   C     0.53183   0.19488   0.72492   0.00000  Uiso   1.00
C869   C     0.63970   0.16524   0.83649   0.00000  Uiso   1.00
C870   C     0.36030   0.16810   0.66352   0.00000  Uiso   1.00
C871   C     0.62533   0.16172   0.88646   0.00000  Uiso   1.00
C872   C     0.33336   0.24599   0.75001   0.00000  Uiso   1.00
C873   C     0.37466   0.17163   0.61354   0.00000  Uiso   1.00
C874   C     0.63957   0.14466   0.95930   0.00000  Uiso   1.00
C875   C     0.36044   0.18869   0.54070   0.00000  Uiso   1.00
C876   C     0.65819   0.15224   0.91294   0.00000  Uiso   1.00
C877   C     0.34181   0.18111   0.58706   0.00000  Uiso   1.00
C878   C     0.57585   0.16570   0.90810   0.00000  Uiso   1.00
C879   C     0.42415   0.16764   0.59191   0.00000  Uiso   1.00
C880   C     0.55855   0.16468   0.95512   0.00000  Uiso   1.00
C881   C     0.44146   0.16867   0.54489   0.00000  Uiso   1.00
C882   C     0.59000   0.14942   0.97998   0.00000  Uiso   1.00
C883   C     0.52077   0.13382   0.54272   0.00000  Uiso   1.00
C884   C     0.41000   0.18394   0.52002   0.00000  Uiso   1.00
C885   C     0.50964   0.17442   0.97748   0.00000  Uiso   1.00
C886   C     0.49037   0.15894   0.52253   0.00000  Uiso   1.00
C887   C     0.62144   0.18683   0.60713   0.00000  Uiso   1.00
C888   C     0.37856   0.14652   0.89287   0.00000  Uiso   1.00
C889   C     0.50237   0.10093   0.57930   0.00000  Uiso   1.00
C890   C     0.46644   0.07086   0.56665   0.00000  Uiso   1.00
C891   C     0.44883   0.03839   0.60362   0.00000  Uiso   1.00
C892   C     0.49764   0.23244   0.92071   0.00000  Uiso   1.00
C893   C     0.53360   0.26249   0.93335   0.00000  Uiso   1.00
C894   C     0.47924   0.19954   0.95729   0.00000  Uiso   1.00
C895   C     0.55125   0.29493   0.89636   0.00000  Uiso   1.00
C896   C     0.57093   0.13444   0.52357   0.00000  Uiso   1.00
C897   C     0.42908   0.19892   0.97644   0.00000  Uiso   1.00
C898   C     0.62295   0.02120   0.75508   0.00000  Uiso   1.00
C899   C     0.37705   0.31213   0.74492   0.00000  Uiso   1.00
C900   C     0.62296   0.31195   0.75511   0.00000  Uiso   1.00
Cu901  Cu    0.38022   0.16667   0.75000   0.00000  Uiso   1.00
Cu902  Cu    0.61978   0.16666   0.75000   0.00000  Uiso   1.00
H903   H     0.59492   0.11883   0.54058   0.00000  Uiso   1.00
H904   H     0.41122   0.03750   0.74071   0.00000  Uiso   1.00
H905   H     0.53084   0.11593   0.79534   0.00000  Uiso   1.00
H906   H     0.46916   0.21741   0.70466   0.00000  Uiso   1.00
H907   H     0.44391   0.11575   0.79499   0.00000  Uiso   1.00
H908   H     0.55609   0.21758   0.70501   0.00000  Uiso   1.00
H909   H     0.61535   0.21221   0.63195   0.00000  Uiso   1.00
H910   H     0.60226   0.19516   0.58105   0.00000  Uiso   1.00
H911   H     0.60495   0.15779   0.62353   0.00000  Uiso   1.00
H912   H     0.38465   0.12113   0.86805   0.00000  Uiso   1.00
H913   H     0.39505   0.17556   0.87647   0.00000  Uiso   1.00
H914   H     0.40509   0.21454   0.95942   0.00000  Uiso   1.00
H915   H     0.39774   0.13819   0.91895   0.00000  Uiso   1.00
H916   H     0.47995   0.02036   0.60905   0.00000  Uiso   1.00
H917   H     0.42962   0.05330   0.63579   0.00000  Uiso   1.00
H918   H     0.42326   0.01696   0.59344   0.00000  Uiso   1.00
H919   H     0.43426   0.08734   0.56147   0.00000  Uiso   1.00
H920   H     0.48452   0.05521   0.53458   0.00000  Uiso   1.00
H921   H     0.53335   0.08201   0.58377   0.00000  Uiso   1.00
H922   H     0.48750   0.11380   0.61325   0.00000  Uiso   1.00
H923   H     0.57043   0.27999   0.86419   0.00000  Uiso   1.00
H924   H     0.52015   0.31300   0.89093   0.00000  Uiso   1.00
H925   H     0.44982   0.16719   0.61209   0.00000  Uiso   1.00
H926   H     0.57686   0.31632   0.90652   0.00000  Uiso   1.00
H927   H     0.51553   0.27816   0.96540   0.00000  Uiso   1.00
H928   H     0.56576   0.24599   0.93855   0.00000  Uiso   1.00
H929   H     0.51249   0.21957   0.88677   0.00000  Uiso   1.00
H930   H     0.46668   0.25138   0.91626   0.00000  Uiso   1.00
H931   H     0.55018   0.16617   0.88791   0.00000  Uiso   1.00
H932   H     0.66350   0.13349   0.97908   0.00000  Uiso   1.00
H933   H     0.33650   0.19986   0.52092   0.00000  Uiso   1.00
H934   H     0.58876   0.03718   0.75922   0.00000  Uiso   1.00
H935   H     0.41124   0.29616   0.74078   0.00000  Uiso   1.00
H936   H     0.58878   0.29583   0.75929   0.00000  Uiso   1.00
N937   N     0.45069   0.16668   0.74999   0.00000  Uiso   1.00
N938   N     0.54931   0.16666   0.75001   0.00000  Uiso   1.00
O939   O     0.37291   0.10655   0.75000   0.00000  Uiso   1.00
O940   O     0.62709   0.22678   0.75000   0.00000  Uiso   1.00
O941   O     0.62706   0.10654   0.75000   0.00000  Uiso   1.00
O942   O     0.37294   0.22679   0.74999   0.00000  Uiso   1.00
O943   O     0.35186   0.16668   0.81491   0.00000  Uiso   1.00
O944   O     0.64814   0.16666   0.68508   0.00000  Uiso   1.00
O945   O     0.60600   0.16667   0.81492   0.00000  Uiso   1.00
O946   O     0.39400   0.16667   0.68508   0.00000  Uiso   1.00
C947   C     0.99998   0.08735   0.74999   0.00000  Uiso   1.00
C948   C     0.71037   0.02139   0.74489   0.00000  Uiso   1.00
C949   C     0.66668   0.29059   0.75003   0.00000  Uiso   1.00
C950   C     0.99998   0.04274   0.74997   0.00000  Uiso   1.00
C951   C     0.85111   0.13848   0.77516   0.00000  Uiso   1.00
C952   C     0.81556   0.19485   0.72484   0.00000  Uiso   1.00
C953   C     0.80151   0.13846   0.77508   0.00000  Uiso   1.00
C954   C     0.86516   0.19488   0.72492   0.00000  Uiso   1.00
C955   C     0.97304   0.16524   0.83649   0.00000  Uiso   1.00
C956   C     0.69363   0.16810   0.66352   0.00000  Uiso   1.00
C957   C     0.95867   0.16172   0.88646   0.00000  Uiso   1.00
C958   C     0.66669   0.24599   0.75001   0.00000  Uiso   1.00
C959   C     0.70800   0.17163   0.61354   0.00000  Uiso   1.00
C960   C     0.97290   0.14466   0.95930   0.00000  Uiso   1.00
C961   C     0.69377   0.18869   0.54070   0.00000  Uiso   1.00
C962   C     0.99152   0.15224   0.91294   0.00000  Uiso   1.00
C963   C     0.67515   0.18111   0.58706   0.00000  Uiso   1.00
C964   C     0.90919   0.16570   0.90810   0.00000  Uiso   1.00
C965   C     0.75748   0.16764   0.59191   0.00000  Uiso   1.00
C966   C     0.89188   0.16468   0.95512   0.00000  Uiso   1.00
C967   C     0.77479   0.16867   0.54489   0.00000  Uiso   1.00
C968   C     0.92334   0.14942   0.97998   0.00000  Uiso   1.00
C969   C     0.85410   0.13382   0.54272   0.00000  Uiso   1.00
C970   C     0.74334   0.18394   0.52002   0.00000  Uiso   1.00
C971   C     0.84297   0.17442   0.97748   0.00000  Uiso   1.00
C972   C     0.82370   0.15894   0.52253   0.00000  Uiso   1.00
C973   C     0.95477   0.18683   0.60713   0.00000  Uiso   1.00
C974   C     0.71189   0.14652   0.89287   0.00000  Uiso   1.00
C975   C     0.83571   0.10093   0.57930   0.00000  Uiso   1.00
C976   C     0.79977   0.07086   0.56665   0.00000  Uiso   1.00
C977   C     0.78216   0.03839   0.60362   0.00000  Uiso   1.00
C978   C     0.83097   0.23244   0.92071   0.00000  Uiso   1.00
C979   C     0.86693   0.26249   0.93335   0.00000  Uiso   1.00
C980   C     0.81258   0.19954   0.95729   0.00000  Uiso   1.00
C981   C     0.88459   0.29493   0.89636   0.00000  Uiso   1.00
C982   C     0.90427   0.13444   0.52357   0.00000  Uiso   1.00
C983   C     0.76241   0.19892   0.97644   0.00000  Uiso   1.00
C984   C     0.95628   0.02120   0.75508   0.00000  Uiso   1.00
C985   C     0.71039   0.31213   0.74492   0.00000  Uiso   1.00
C986   C     0.95630   0.31195   0.75511   0.00000  Uiso   1.00
Cu987  Cu    0.71355   0.16667   0.75000   0.00000  Uiso   1.00
Cu988  Cu    0.95311   0.16666   0.75000   0.00000  Uiso   1.00
H989   H     0.92825   0.11883   0.54058   0.00000  Uiso   1.00
H990   H     0.74455   0.03750   0.74071   0.00000  Uiso   1.00
H991   H     0.86418   0.11593   0.79534   0.00000  Uiso   1.00
H992   H     0.80249   0.21741   0.70466   0.00000  Uiso   1.00
H993   H     0.77724   0.11575   0.79499   0.00000  Uiso   1.00
H994   H     0.88942   0.21758   0.70501   0.00000  Uiso   1.00
H995   H     0.94869   0.21221   0.63195   0.00000  Uiso   1.00
H996   H     0.93559   0.19516   0.58105   0.00000  Uiso   1.00
H997   H     0.93828   0.15779   0.62353   0.00000  Uiso   1.00
H998   H     0.71798   0.12113   0.86805   0.00000  Uiso   1.00
H999   H     0.72838   0.17556   0.87647   0.00000  Uiso   1.00
H1000  H     0.73843   0.21454   0.95942   0.00000  Uiso   1.00
H1001  H     0.73108   0.13819   0.91895   0.00000  Uiso   1.00
H1002  H     0.81329   0.02036   0.60905   0.00000  Uiso   1.00
H1003  H     0.76295   0.05330   0.63579   0.00000  Uiso   1.00
H1004  H     0.75660   0.01696   0.59344   0.00000  Uiso   1.00
H1005  H     0.76759   0.08734   0.56147   0.00000  Uiso   1.00
H1006  H     0.81785   0.05521   0.53458   0.00000  Uiso   1.00
H1007  H     0.86668   0.08201   0.58377   0.00000  Uiso   1.00
H1008  H     0.82084   0.11380   0.61325   0.00000  Uiso   1.00
H1009  H     0.90376   0.27999   0.86419   0.00000  Uiso   1.00
H1010  H     0.85349   0.31300   0.89093   0.00000  Uiso   1.00
H1011  H     0.78315   0.16719   0.61209   0.00000  Uiso   1.00
H1012  H     0.91020   0.31632   0.90652   0.00000  Uiso   1.00
H1013  H     0.84887   0.27816   0.96540   0.00000  Uiso   1.00
H1014  H     0.89910   0.24599   0.93855   0.00000  Uiso   1.00
H1015  H     0.84582   0.21957   0.88677   0.00000  Uiso   1.00
H1016  H     0.80001   0.25138   0.91626   0.00000  Uiso   1.00
H1017  H     0.88351   0.16617   0.88791   0.00000  Uiso   1.00
H1018  H     0.99684   0.13349   0.97908   0.00000  Uiso   1.00
H1019  H     0.66984   0.19986   0.52092   0.00000  Uiso   1.00
H1020  H     0.92209   0.03718   0.75922   0.00000  Uiso   1.00
H1021  H     0.74457   0.29616   0.74078   0.00000  Uiso   1.00
H1022  H     0.92211   0.29583   0.75929   0.00000  Uiso   1.00
N1023  N     0.78403   0.16668   0.74999   0.00000  Uiso   1.00
N1024  N     0.88264   0.16666   0.75001   0.00000  Uiso   1.00
O1025  O     0.70625   0.10655   0.75000   0.00000  Uiso   1.00
O1026  O     0.96042   0.22678   0.75000   0.00000  Uiso   1.00
O1027  O     0.96039   0.10654   0.75000   0.00000  Uiso   1.00
O1028  O     0.70628   0.22679   0.74999   0.00000  Uiso   1.00
O1029  O     0.68519   0.16668   0.81491   0.00000  Uiso   1.00
O1030  O     0.98148   0.16666   0.68508   0.00000  Uiso   1.00
O1031  O     0.93933   0.16667   0.81492   0.00000  Uiso   1.00
O1032  O     0.72733   0.16667   0.68508   0.00000  Uiso   1.00
C1033  C     0.33331   0.42068   0.74999   0.00000  Uiso   1.00
C1034  C     0.04371   0.35472   0.74489   0.00000  Uiso   1.00
C1035  C     0.00002   0.62393   0.75003   0.00000  Uiso   1.00
C1036  C     0.33332   0.37607   0.74997   0.00000  Uiso   1.00
C1037  C     0.18444   0.47181   0.77516   0.00000  Uiso   1.00
C1038  C     0.14889   0.52818   0.72484   0.00000  Uiso   1.00
C1039  C     0.13484   0.47179   0.77508   0.00000  Uiso   1.00
C1040  C     0.19849   0.52821   0.72492   0.00000  Uiso   1.00
C1041  C     0.30637   0.49857   0.83649   0.00000  Uiso   1.00
C1042  C     0.02696   0.50143   0.66352   0.00000  Uiso   1.00
C1043  C     0.29200   0.49505   0.88646   0.00000  Uiso   1.00
C1044  C     0.00002   0.57932   0.75001   0.00000  Uiso   1.00
C1045  C     0.04133   0.50496   0.61354   0.00000  Uiso   1.00
C1046  C     0.30623   0.47799   0.95930   0.00000  Uiso   1.00
C1047  C     0.02710   0.52203   0.54070   0.00000  Uiso   1.00
C1048  C     0.32485   0.48557   0.91294   0.00000  Uiso   1.00
C1049  C     0.00848   0.51444   0.58706   0.00000  Uiso   1.00
C1050  C     0.24252   0.49904   0.90810   0.00000  Uiso   1.00
C1051  C     0.09081   0.50098   0.59191   0.00000  Uiso   1.00
C1052  C     0.22521   0.49801   0.95512   0.00000  Uiso   1.00
C1053  C     0.10812   0.50201   0.54489   0.00000  Uiso   1.00
C1054  C     0.25667   0.48275   0.97998   0.00000  Uiso   1.00
C1055  C     0.18743   0.46715   0.54272   0.00000  Uiso   1.00
C1056  C     0.07667   0.51727   0.52002   0.00000  Uiso   1.00
C1057  C     0.17631   0.50775   0.97748   0.00000  Uiso   1.00
C1058  C     0.15703   0.49227   0.52253   0.00000  Uiso   1.00
C1059  C     0.28811   0.52016   0.60713   0.00000  Uiso   1.00
C1060  C     0.04523   0.47985   0.89287   0.00000  Uiso   1.00
C1061  C     0.16904   0.43426   0.57930   0.00000  Uiso   1.00
C1062  C     0.13311   0.40419   0.56665   0.00000  Uiso   1.00
C1063  C     0.11550   0.37172   0.60362   0.00000  Uiso   1.00
C1064  C     0.16431   0.56577   0.92071   0.00000  Uiso   1.00
C1065  C     0.20027   0.59582   0.93335   0.00000  Uiso   1.00
C1066  C     0.14591   0.53287   0.95729   0.00000  Uiso   1.00
C1067  C     0.21792   0.62826   0.89636   0.00000  Uiso   1.00
C1068  C     0.23760   0.46777   0.52357   0.00000  Uiso   1.00
C1069  C     0.09574   0.53225   0.97644   0.00000  Uiso   1.00
C1070  C     0.28961   0.35454   0.75508   0.00000  Uiso   1.00
C1071  C     0.04372   0.64546   0.74492   0.00000  Uiso   1.00
C1072  C     0.28963   0.64528   0.75511   0.00000  Uiso   1.00
Cu1073 Cu    0.04689   0.50001   0.75000   0.00000  Uiso   1.00
Cu1074 Cu    0.28645   0.49999   0.75000   0.00000  Uiso   1.00
H1075  H     0.26158   0.45216   0.54058   0.00000  Uiso   1.00
H1076  H     0.07789   0.37084   0.74071   0.00000  Uiso   1.00
H1077  H     0.19751   0.44926   0.79534   0.00000  Uiso   1.00
H1078  H     0.13582   0.55074   0.70466   0.00000  Uiso   1.00
H1079  H     0.11058   0.44908   0.79499   0.00000  Uiso   1.00
H1080  H     0.22276   0.55092   0.70501   0.00000  Uiso   1.00
H1081  H     0.28202   0.54555   0.63195   0.00000  Uiso   1.00
H1082  H     0.26893   0.52850   0.58105   0.00000  Uiso   1.00
H1083  H     0.27162   0.49112   0.62353   0.00000  Uiso   1.00
H1084  H     0.05132   0.45447   0.86805   0.00000  Uiso   1.00
H1085  H     0.06171   0.50889   0.87647   0.00000  Uiso   1.00
H1086  H     0.07176   0.54787   0.95942   0.00000  Uiso   1.00
H1087  H     0.06441   0.47152   0.91895   0.00000  Uiso   1.00
H1088  H     0.14662   0.35369   0.60905   0.00000  Uiso   1.00
H1089  H     0.09629   0.38663   0.63579   0.00000  Uiso   1.00
H1090  H     0.08993   0.35029   0.59344   0.00000  Uiso   1.00
H1091  H     0.10093   0.42068   0.56147   0.00000  Uiso   1.00
H1092  H     0.15118   0.38854   0.53458   0.00000  Uiso   1.00
H1093  H     0.20001   0.41534   0.58377   0.00000  Uiso   1.00
H1094  H     0.15417   0.44713   0.61325   0.00000  Uiso   1.00
H1095  H     0.23710   0.61332   0.86419   0.00000  Uiso   1.00
H1096  H     0.18682   0.64633   0.89093   0.00000  Uiso   1.00
H1097  H     0.11649   0.50052   0.61209   0.00000  Uiso   1.00
H1098  H     0.24353   0.64966   0.90652   0.00000  Uiso   1.00
H1099  H     0.18220   0.61149   0.96540   0.00000  Uiso   1.00
H1100  H     0.23243   0.57933   0.93855   0.00000  Uiso   1.00
H1101  H     0.17916   0.55290   0.88677   0.00000  Uiso   1.00
H1102  H     0.13334   0.58471   0.91626   0.00000  Uiso   1.00
H1103  H     0.21684   0.49950   0.88791   0.00000  Uiso   1.00
H1104  H     0.33017   0.46682   0.97908   0.00000  Uiso   1.00
H1105  H     0.00317   0.53319   0.52092   0.00000  Uiso   1.00
H1106  H     0.25543   0.37051   0.75922   0.00000  Uiso   1.00
H1107  H     0.07791   0.62949   0.74078   0.00000  Uiso   1.00
H1108  H     0.25545   0.62916   0.75929   0.00000  Uiso   1.00
N1109  N     0.11736   0.50001   0.74999   0.00000  Uiso   1.00
N1110  N     0.21597   0.49999   0.75001   0.00000  Uiso   1.00
O1111  O     0.03958   0.43989   0.75000   0.00000  Uiso   1.00
O1112  O     0.29375   0.56011   0.75000   0.00000  Uiso   1.00
O1113  O     0.29372   0.43988   0.75000   0.00000  Uiso   1.00
O1114  O     0.03961   0.56012   0.74999   0.00000  Uiso   1.00
O1115  O     0.01852   0.50001   0.81491   0.00000  Uiso   1.00
O1116  O     0.31481   0.49999   0.68508   0.00000  Uiso   1.00
O1117  O     0.27267   0.50000   0.81492   0.00000  Uiso   1.00
O1118  O     0.06067   0.50000   0.68508   0.00000  Uiso   1.00
C1119  C     0.66664   0.42068   0.74999   0.00000  Uiso   1.00
C1120  C     0.37704   0.35472   0.74489   0.00000  Uiso   1.00
C1121  C     0.33335   0.62393   0.75003   0.00000  Uiso   1.00
C1122  C     0.66665   0.37607   0.74997   0.00000  Uiso   1.00
C1123  C     0.51778   0.47181   0.77516   0.00000  Uiso   1.00
C1124  C     0.48222   0.52818   0.72484   0.00000  Uiso   1.00
C1125  C     0.46817   0.47179   0.77508   0.00000  Uiso   1.00
C1126  C     0.53183   0.52821   0.72492   0.00000  Uiso   1.00
C1127  C     0.63970   0.49857   0.83649   0.00000  Uiso   1.00
C1128  C     0.36030   0.50143   0.66352   0.00000  Uiso   1.00
C1129  C     0.62533   0.49505   0.88646   0.00000  Uiso   1.00
C1130  C     0.33336   0.57932   0.75001   0.00000  Uiso   1.00
C1131  C     0.37466   0.50496   0.61354   0.00000  Uiso   1.00
C1132  C     0.63957   0.47799   0.95930   0.00000  Uiso   1.00
C1133  C     0.36044   0.52203   0.54070   0.00000  Uiso   1.00
C1134  C     0.65819   0.48557   0.91294   0.00000  Uiso   1.00
C1135  C     0.34181   0.51444   0.58706   0.00000  Uiso   1.00
C1136  C     0.57585   0.49904   0.90810   0.00000  Uiso   1.00
C1137  C     0.42415   0.50098   0.59191   0.00000  Uiso   1.00
C1138  C     0.55855   0.49801   0.95512   0.00000  Uiso   1.00
C1139  C     0.44146   0.50201   0.54489   0.00000  Uiso   1.00
C1140  C     0.59000   0.48275   0.97998   0.00000  Uiso   1.00
C1141  C     0.52077   0.46715   0.54272   0.00000  Uiso   1.00
C1142  C     0.41000   0.51727   0.52002   0.00000  Uiso   1.00
C1143  C     0.50964   0.50775   0.97748   0.00000  Uiso   1.00
C1144  C     0.49037   0.49227   0.52253   0.00000  Uiso   1.00
C1145  C     0.62144   0.52016   0.60713   0.00000  Uiso   1.00
C1146  C     0.37856   0.47985   0.89287   0.00000  Uiso   1.00
C1147  C     0.50237   0.43426   0.57930   0.00000  Uiso   1.00
C1148  C     0.46644   0.40419   0.56665   0.00000  Uiso   1.00
C1149  C     0.44883   0.37172   0.60362   0.00000  Uiso   1.00
C1150  C     0.49764   0.56577   0.92071   0.00000  Uiso   1.00
C1151  C     0.53360   0.59582   0.93335   0.00000  Uiso   1.00
C1152  C     0.47924   0.53287   0.95729   0.00000  Uiso   1.00
C1153  C     0.55125   0.62826   0.89636   0.00000  Uiso   1.00
C1154  C     0.57093   0.46777   0.52357   0.00000  Uiso   1.00
C1155  C     0.42908   0.53225   0.97644   0.00000  Uiso   1.00
C1156  C     0.62295   0.35454   0.75508   0.00000  Uiso   1.00
C1157  C     0.37705   0.64546   0.74492   0.00000  Uiso   1.00
C1158  C     0.62296   0.64528   0.75511   0.00000  Uiso   1.00
Cu1159 Cu    0.38022   0.50001   0.75000   0.00000  Uiso   1.00
Cu1160 Cu    0.61978   0.49999   0.75000   0.00000  Uiso   1.00
H1161  H     0.59492   0.45216   0.54058   0.00000  Uiso   1.00
H1162  H     0.41122   0.37084   0.74071   0.00000  Uiso   1.00
H1163  H     0.53084   0.44926   0.79534   0.00000  Uiso   1.00
H1164  H     0.46916   0.55074   0.70466   0.00000  Uiso   1.00
H1165  H     0.44391   0.44908   0.79499   0.00000  Uiso   1.00
H1166  H     0.55609   0.55092   0.70501   0.00000  Uiso   1.00
H1167  H     0.61535   0.54555   0.63195   0.00000  Uiso   1.00
H1168  H     0.60226   0.52850   0.58105   0.00000  Uiso   1.00
H1169  H     0.60495   0.49112   0.62353   0.00000  Uiso   1.00
H1170  H     0.38465   0.45447   0.86805   0.00000  Uiso   1.00
H1171  H     0.39505   0.50889   0.87647   0.00000  Uiso   1.00
H1172  H     0.40509   0.54787   0.95942   0.00000  Uiso   1.00
H1173  H     0.39774   0.47152   0.91895   0.00000  Uiso   1.00
H1174  H     0.47995   0.35369   0.60905   0.00000  Uiso   1.00
H1175  H     0.42962   0.38663   0.63579   0.00000  Uiso   1.00
H1176  H     0.42326   0.35029   0.59344   0.00000  Uiso   1.00
H1177  H     0.43426   0.42068   0.56147   0.00000  Uiso   1.00
H1178  H     0.48452   0.38854   0.53458   0.00000  Uiso   1.00
H1179  H     0.53335   0.41534   0.58377   0.00000  Uiso   1.00
H1180  H     0.48750   0.44713   0.61325   0.00000  Uiso   1.00
H1181  H     0.57043   0.61332   0.86419   0.00000  Uiso   1.00
H1182  H     0.52015   0.64633   0.89093   0.00000  Uiso   1.00
H1183  H     0.44982   0.50052   0.61209   0.00000  Uiso   1.00
H1184  H     0.57686   0.64966   0.90652   0.00000  Uiso   1.00
H1185  H     0.51553   0.61149   0.96540   0.00000  Uiso   1.00
H1186  H     0.56576   0.57933   0.93855   0.00000  Uiso   1.00
H1187  H     0.51249   0.55290   0.88677   0.00000  Uiso   1.00
H1188  H     0.46668   0.58471   0.91626   0.00000  Uiso   1.00
H1189  H     0.55018   0.49950   0.88791   0.00000  Uiso   1.00
H1190  H     0.66350   0.46682   0.97908   0.00000  Uiso   1.00
H1191  H     0.33650   0.53319   0.52092   0.00000  Uiso   1.00
H1192  H     0.58876   0.37051   0.75922   0.00000  Uiso   1.00
H1193  H     0.41124   0.62949   0.74078   0.00000  Uiso   1.00
H1194  H     0.58878   0.62916   0.75929   0.00000  Uiso   1.00
N1195  N     0.45069   0.50001   0.74999   0.00000  Uiso   1.00
N1196  N     0.54931   0.49999   0.75001   0.00000  Uiso   1.00
O1197  O     0.37291   0.43989   0.75000   0.00000  Uiso   1.00
O1198  O     0.62709   0.56011   0.75000   0.00000  Uiso   1.00
O1199  O     0.62706   0.43988   0.75000   0.00000  Uiso   1.00
O1200  O     0.37294   0.56012   0.74999   0.00000  Uiso   1.00
O1201  O     0.35186   0.50001   0.81491   0.00000  Uiso   1.00
O1202  O     0.64814   0.49999   0.68508   0.00000  Uiso   1.00
O1203  O     0.60600   0.50000   0.81492   0.00000  Uiso   1.00
O1204  O     0.39400   0.50000   0.68508   0.00000  Uiso   1.00
C1205  C     0.99998   0.42068   0.74999   0.00000  Uiso   1.00
C1206  C     0.71037   0.35472   0.74489   0.00000  Uiso   1.00
C1207  C     0.66668   0.62393   0.75003   0.00000  Uiso   1.00
C1208  C     0.99998   0.37607   0.74997   0.00000  Uiso   1.00
C1209  C     0.85111   0.47181   0.77516   0.00000  Uiso   1.00
C1210  C     0.81556   0.52818   0.72484   0.00000  Uiso   1.00
C1211  C     0.80151   0.47179   0.77508   0.00000  Uiso   1.00
C1212  C     0.86516   0.52821   0.72492   0.00000  Uiso   1.00
C1213  C     0.97304   0.49857   0.83649   0.00000  Uiso   1.00
C1214  C     0.69363   0.50143   0.66352   0.00000  Uiso   1.00
C1215  C     0.95867   0.49505   0.88646   0.00000  Uiso   1.00
C1216  C     0.66669   0.57932   0.75001   0.00000  Uiso   1.00
C1217  C     0.70800   0.50496   0.61354   0.00000  Uiso   1.00
C1218  C     0.97290   0.47799   0.95930   0.00000  Uiso   1.00
C1219  C     0.69377   0.52203   0.54070   0.00000  Uiso   1.00
C1220  C     0.99152   0.48557   0.91294   0.00000  Uiso   1.00
C1221  C     0.67515   0.51444   0.58706   0.00000  Uiso   1.00
C1222  C     0.90919   0.49904   0.90810   0.00000  Uiso   1.00
C1223  C     0.75748   0.50098   0.59191   0.00000  Uiso   1.00
C1224  C     0.89188   0.49801   0.95512   0.00000  Uiso   1.00
C1225  C     0.77479   0.50201   0.54489   0.00000  Uiso   1.00
C1226  C     0.92334   0.48275   0.97998   0.00000  Uiso   1.00
C1227  C     0.85410   0.46715   0.54272   0.00000  Uiso   1.00
C1228  C     0.74334   0.51727   0.52002   0.00000  Uiso   1.00
C1229  C     0.84297   0.50775   0.97748   0.00000  Uiso   1.00
C1230  C     0.82370   0.49227   0.52253   0.00000  Uiso   1.00
C1231  C     0.95477   0.52016   0.60713   0.00000  Uiso   1.00
C1232  C     0.71189   0.47985   0.89287   0.00000  Uiso   1.00
C1233  C     0.83571   0.43426   0.57930   0.00000  Uiso   1.00
C1234  C     0.79977   0.40419   0.56665   0.00000  Uiso   1.00
C1235  C     0.78216   0.37172   0.60362   0.00000  Uiso   1.00
C1236  C     0.83097   0.56577   0.92071   0.00000  Uiso   1.00
C1237  C     0.86693   0.59582   0.93335   0.00000  Uiso   1.00
C1238  C     0.81258   0.53287   0.95729   0.00000  Uiso   1.00
C1239  C     0.88459   0.62826   0.89636   0.00000  Uiso   1.00
C1240  C     0.90427   0.46777   0.52357   0.00000  Uiso   1.00
C1241  C     0.76241   0.53225   0.97644   0.00000  Uiso   1.00
C1242  C     0.95628   0.35454   0.75508   0.00000  Uiso   1.00
C1243  C     0.71039   0.64546   0.74492   0.00000  Uiso   1.00
C1244  C     0.95630   0.64528   0.75511   0.00000  Uiso   1.00
Cu1245 Cu    0.71355   0.50001   0.75000   0.00000  Uiso   1.00
Cu1246 Cu    0.95311   0.49999   0.75000   0.00000  Uiso   1.00
H1247  H     0.92825   0.45216   0.54058   0.00000  Uiso   1.00
H1248  H     0.74455   0.37084   0.74071   0.00000  Uiso   1.00
H1249  H     0.86418   0.44926   0.79534   0.00000  Uiso   1.00
H1250  H     0.80249   0.55074   0.70466   0.00000  Uiso   1.00
H1251  H     0.77724   0.44908   0.79499   0.00000  Uiso   1.00
H1252  H     0.88942   0.55092   0.70501   0.00000  Uiso   1.00
H1253  H     0.94869   0.54555   0.63195   0.00000  Uiso   1.00
H1254  H     0.93559   0.52850   0.58105   0.00000  Uiso   1.00
H1255  H     0.93828   0.49112   0.62353   0.00000  Uiso   1.00
H1256  H     0.71798   0.45447   0.86805   0.00000  Uiso   1.00
H1257  H     0.72838   0.50889   0.87647   0.00000  Uiso   1.00
H1258  H     0.73843   0.54787   0.95942   0.00000  Uiso   1.00
H1259  H     0.73108   0.47152   0.91895   0.00000  Uiso   1.00
H1260  H     0.81329   0.35369   0.60905   0.00000  Uiso   1.00
H1261  H     0.76295   0.38663   0.63579   0.00000  Uiso   1.00
H1262  H     0.75660   0.35029   0.59344   0.00000  Uiso   1.00
H1263  H     0.76759   0.42068   0.56147   0.00000  Uiso   1.00
H1264  H     0.81785   0.38854   0.53458   0.00000  Uiso   1.00
H1265  H     0.86668   0.41534   0.58377   0.00000  Uiso   1.00
H1266  H     0.82084   0.44713   0.61325   0.00000  Uiso   1.00
H1267  H     0.90376   0.61332   0.86419   0.00000  Uiso   1.00
H1268  H     0.85349   0.64633   0.89093   0.00000  Uiso   1.00
H1269  H     0.78315   0.50052   0.61209   0.00000  Uiso   1.00
H1270  H     0.91020   0.64966   0.90652   0.00000  Uiso   1.00
H1271  H     0.84887   0.61149   0.96540   0.00000  Uiso   1.00
H1272  H     0.89910   0.57933   0.93855   0.00000  Uiso   1.00
H1273  H     0.84582   0.55290   0.88677   0.00000  Uiso   1.00
H1274  H     0.80001   0.58471   0.91626   0.00000  Uiso   1.00
H1275  H     0.88351   0.49950   0.88791   0.00000  Uiso   1.00
H1276  H     0.99684   0.46682   0.97908   0.00000  Uiso   1.00
H1277  H     0.66984   0.53319   0.52092   0.00000  Uiso   1.00
H1278  H     0.92209   0.37051   0.75922   0.00000  Uiso   1.00
H1279  H     0.74457   0.62949   0.74078   0.00000  Uiso   1.00
H1280  H     0.92211   0.62916   0.75929   0.00000  Uiso   1.00
N1281  N     0.78403   0.50001   0.74999   0.00000  Uiso   1.00
N1282  N     0.88264   0.49999   0.75001   0.00000  Uiso   1.00
O1283  O     0.70625   0.43989   0.75000   0.00000  Uiso   1.00
O1284  O     0.96042   0.56011   0.75000   0.00000  Uiso   1.00
O1285  O     0.96039   0.43988   0.75000   0.00000  Uiso   1.00
O1286  O     0.70628   0.56012   0.74999   0.00000  Uiso   1.00
O1287  O     0.68519   0.50001   0.81491   0.00000  Uiso   1.00
O1288  O     0.98148   0.49999   0.68508   0.00000  Uiso   1.00
O1289  O     0.93933   0.50000   0.81492   0.00000  Uiso   1.00
O1290  O     0.72733   0.50000   0.68508   0.00000  Uiso   1.00
C1291  C     0.33331   0.75401   0.74999   0.00000  Uiso   1.00
C1292  C     0.04371   0.68805   0.74489   0.00000  Uiso   1.00
C1293  C     0.00002   0.95726   0.75003   0.00000  Uiso   1.00
C1294  C     0.33332   0.70941   0.74997   0.00000  Uiso   1.00
C1295  C     0.18444   0.80515   0.77516   0.00000  Uiso   1.00
C1296  C     0.14889   0.86152   0.72484   0.00000  Uiso   1.00
C1297  C     0.13484   0.80512   0.77508   0.00000  Uiso   1.00
C1298  C     0.19849   0.86154   0.72492   0.00000  Uiso   1.00
C1299  C     0.30637   0.83190   0.83649   0.00000  Uiso   1.00
C1300  C     0.02696   0.83477   0.66352   0.00000  Uiso   1.00
C1301  C     0.29200   0.82838   0.88646   0.00000  Uiso   1.00
C1302  C     0.00002   0.91265   0.75001   0.00000  Uiso   1.00
C1303  C     0.04133   0.83829   0.61354   0.00000  Uiso   1.00
C1304  C     0.30623   0.81132   0.95930   0.00000  Uiso   1.00
C1305  C     0.02710   0.85536   0.54070   0.00000  Uiso   1.00
C1306  C     0.32485   0.81891   0.91294   0.00000  Uiso   1.00
C1307  C     0.00848   0.84777   0.58706   0.00000  Uiso   1.00
C1308  C     0.24252   0.83237   0.90810   0.00000  Uiso   1.00
C1309  C     0.09081   0.83431   0.59191   0.00000  Uiso   1.00
C1310  C     0.22521   0.83134   0.95512   0.00000  Uiso   1.00
C1311  C     0.10812   0.83534   0.54489   0.00000  Uiso   1.00
C1312  C     0.25667   0.81608   0.97998   0.00000  Uiso   1.00
C1313  C     0.18743   0.80049   0.54272   0.00000  Uiso   1.00
C1314  C     0.07667   0.85060   0.52002   0.00000  Uiso   1.00
C1315  C     0.17631   0.84108   0.97748   0.00000  Uiso   1.00
C1316  C     0.15703   0.82560   0.52253   0.00000  Uiso   1.00
C1317  C     0.28811   0.85350   0.60713   0.00000  Uiso   1.00
C1318  C     0.04523   0.81318   0.89287   0.00000  Uiso   1.00
C1319  C     0.16904   0.76759   0.57930   0.00000  Uiso   1.00
C1320  C     0.13311   0.73752   0.56665   0.00000  Uiso   1.00
C1321  C     0.11550   0.70506   0.60362   0.00000  Uiso   1.00
C1322  C     0.16431   0.89910   0.92071   0.00000  Uiso   1.00
C1323  C     0.20027   0.92916   0.93335   0.00000  Uiso   1.00
C1324  C     0.14591   0.86620   0.95729   0.00000  Uiso   1.00
C1325  C     0.21792   0.96159   0.89636   0.00000  Uiso   1.00
C1326  C     0.23760   0.80111   0.52357   0.00000  Uiso   1.00
C1327  C     0.09574   0.86558   0.97644   0.00000  Uiso   1.00
C1328  C     0.28961   0.68787   0.75508   0.00000  Uiso   1.00
C1329  C     0.04372   0.97880   0.74492   0.00000  Uiso   1.00
C1330  C     0.28963   0.97861   0.75511   0.00000  Uiso   1.00
Cu1331 Cu    0.04689   0.83334   0.75000   0.00000  Uiso   1.00
Cu1332 Cu    0.28645   0.83333   0.75000   0.00000  Uiso   1.00
H1333  H     0.26158   0.78549   0.54058   0.00000  Uiso   1.00
H1334  H     0.07789   0.70417   0.74071   0.00000  Uiso   1.00
H1335  H     0.19751   0.78259   0.79534   0.00000  Uiso   1.00
H1336  H     0.13582   0.88407   0.70466   0.00000  Uiso   1.00
H1337  H     0.11058   0.78242   0.79499   0.00000  Uiso   1.00
H1338  H     0.22276   0.88425   0.70501   0.00000  Uiso   1.00
H1339  H     0.28202   0.87888   0.63195   0.00000  Uiso   1.00
H1340  H     0.26893   0.86183   0.58105   0.00000  Uiso   1.00
H1341  H     0.27162   0.82445   0.62353   0.00000  Uiso   1.00
H1342  H     0.05132   0.78780   0.86805   0.00000  Uiso   1.00
H1343  H     0.06171   0.84223   0.87647   0.00000  Uiso   1.00
H1344  H     0.07176   0.88120   0.95942   0.00000  Uiso   1.00
H1345  H     0.06441   0.80485   0.91895   0.00000  Uiso   1.00
H1346  H     0.14662   0.68702   0.60905   0.00000  Uiso   1.00
H1347  H     0.09629   0.71996   0.63579   0.00000  Uiso   1.00
H1348  H     0.08993   0.68363   0.59344   0.00000  Uiso   1.00
H1349  H     0.10093   0.75401   0.56147   0.00000  Uiso   1.00
H1350  H     0.15118   0.72188   0.53458   0.00000  Uiso   1.00
H1351  H     0.20001   0.74867   0.58377   0.00000  Uiso   1.00
H1352  H     0.15417   0.78046   0.61325   0.00000  Uiso   1.00
H1353  H     0.23710   0.94666   0.86419   0.00000  Uiso   1.00
H1354  H     0.18682   0.97967   0.89093   0.00000  Uiso   1.00
H1355  H     0.11649   0.83385   0.61209   0.00000  Uiso   1.00
H1356  H     0.24353   0.98299   0.90652   0.00000  Uiso   1.00
H1357  H     0.18220   0.94483   0.96540   0.00000  Uiso   1.00
H1358  H     0.23243   0.91266   0.93855   0.00000  Uiso   1.00
H1359  H     0.17916   0.88623   0.88677   0.00000  Uiso   1.00
H1360  H     0.13334   0.91804   0.91626   0.00000  Uiso   1.00
H1361  H     0.21684   0.83284   0.88791   0.00000  Uiso   1.00
H1362  H     0.33017   0.80016   0.97908   0.00000  Uiso   1.00
H1363  H     0.00317   0.86653   0.52092   0.00000  Uiso   1.00
H1364  H     0.25543   0.70384   0.75922   0.00000  Uiso   1.00
H1365  H     0.07791   0.96282   0.74078   0.00000  Uiso   1.00
H1366  H     0.25545   0.96249   0.75929   0.00000  Uiso   1.00
N1367  N     0.11736   0.83334   0.74999   0.00000  Uiso   1.00
N1368  N     0.21597   0.83332   0.75001   0.00000  Uiso   1.00
O1369  O     0.03958   0.77322   0.75000   0.00000  Uiso   1.00
O1370  O     0.29375   0.89345   0.75000   0.00000  Uiso   1.00
O1371  O     0.29372   0.77321   0.75000   0.00000  Uiso   1.00
O1372  O     0.03961   0.89346   0.74999   0.00000  Uiso   1.00
O1373  O     0.01852   0.83334   0.81491   0.00000  Uiso   1.00
O1374  O     0.31481   0.83332   0.68508   0.00000  Uiso   1.00
O1375  O     0.27267   0.83333   0.81492   0.00000  Uiso   1.00
O1376  O     0.06067   0.83333   0.68508   0.00000  Uiso   1.00
C1377  C     0.66664   0.75401   0.74999   0.00000  Uiso   1.00
C1378  C     0.37704   0.68805   0.74489   0.00000  Uiso   1.00
C1379  C     0.33335   0.95726   0.75003   0.00000  Uiso   1.00
C1380  C     0.66665   0.70941   0.74997   0.00000  Uiso   1.00
C1381  C     0.51778   0.80515   0.77516   0.00000  Uiso   1.00
C1382  C     0.48222   0.86152   0.72484   0.00000  Uiso   1.00
C1383  C     0.46817   0.80512   0.77508   0.00000  Uiso   1.00
C1384  C     0.53183   0.86154   0.72492   0.00000  Uiso   1.00
C1385  C     0.63970   0.83190   0.83649   0.00000  Uiso   1.00
C1386  C     0.36030   0.83477   0.66352   0.00000  Uiso   1.00
C1387  C     0.62533   0.82838   0.88646   0.00000  Uiso   1.00
C1388  C     0.33336   0.91265   0.75001   0.00000  Uiso   1.00
C1389  C     0.37466   0.83829   0.61354   0.00000  Uiso   1.00
C1390  C     0.63957   0.81132   0.95930   0.00000  Uiso   1.00
C1391  C     0.36044   0.85536   0.54070   0.00000  Uiso   1.00
C1392  C     0.65819   0.81891   0.91294   0.00000  Uiso   1.00
C1393  C     0.34181   0.84777   0.58706   0.00000  Uiso   1.00
C1394  C     0.57585   0.83237   0.90810   0.00000  Uiso   1.00
C1395  C     0.42415   0.83431   0.59191   0.00000  Uiso   1.00
C1396  C     0.55855   0.83134   0.95512   0.00000  Uiso   1.00
C1397  C     0.44146   0.83534   0.54489   0.00000  Uiso   1.00
C1398  C     0.59000   0.81608   0.97998   0.00000  Uiso   1.00
C1399  C     0.52077   0.80049   0.54272   0.00000  Uiso   1.00
C1400  C     0.41000   0.85060   0.52002   0.00000  Uiso   1.00
C1401  C     0.50964   0.84108   0.97748   0.00000  Uiso   1.00
C1402  C     0.49037   0.82560   0.52253   0.00000  Uiso   1.00
C1403  C     0.62144   0.85350   0.60713   0.00000  Uiso   1.00
C1404  C     0.37856   0.81318   0.89287   0.00000  Uiso   1.00
C1405  C     0.50237   0.76759   0.57930   0.00000  Uiso   1.00
C1406  C     0.46644   0.73752   0.56665   0.00000  Uiso   1.00
C1407  C     0.44883   0.70506   0.60362   0.00000  Uiso   1.00
C1408  C     0.49764   0.89910   0.92071   0.00000  Uiso   1.00
C1409  C     0.53360   0.92916   0.93335   0.00000  Uiso   1.00
C1410  C     0.47924   0.86620   0.95729   0.00000  Uiso   1.00
C1411  C     0.55125   0.96159   0.89636   0.00000  Uiso   1.00
C1412  C     0.57093   0.80111   0.52357   0.00000  Uiso   1.00
C1413  C     0.42908   0.86558   0.97644   0.00000  Uiso   1.00
C1414  C     0.62295   0.68787   0.75508   0.00000  Uiso   1.00
C1415  C     0.37705   0.97880   0.74492   0.00000  Uiso   1.00
C1416  C     0.62296   0.97861   0.75511   0.00000  Uiso   1.00
Cu1417 Cu    0.38022   0.83334   0.75000   0.00000  Uiso   1.00
Cu1418 Cu    0.61978   0.83333   0.75000   0.00000  Uiso   1.00
H1419  H     0.59492   0.78549   0.54058   0.00000  Uiso   1.00
H1420  H     0.41122   0.70417   0.74071   0.00000  Uiso   1.00
H1421  H     0.53084   0.78259   0.79534   0.00000  Uiso   1.00
H1422  H     0.46916   0.88407   0.70466   0.00000  Uiso   1.00
H1423  H     0.44391   0.78242   0.79499   0.00000  Uiso   1.00
H1424  H     0.55609   0.88425   0.70501   0.00000  Uiso   1.00
H1425  H     0.61535   0.87888   0.63195   0.00000  Uiso   1.00
H1426  H     0.60226   0.86183   0.58105   0.00000  Uiso   1.00
H1427  H     0.60495   0.82445   0.62353   0.00000  Uiso   1.00
H1428  H     0.38465   0.78780   0.86805   0.00000  Uiso   1.00
H1429  H     0.39505   0.84223   0.87647   0.00000  Uiso   1.00
H1430  H     0.40509   0.88120   0.95942   0.00000  Uiso   1.00
H1431  H     0.39774   0.80485   0.91895   0.00000  Uiso   1.00
H1432  H     0.47995   0.68702   0.60905   0.00000  Uiso   1.00
H1433  H     0.42962   0.71996   0.63579   0.00000  Uiso   1.00
H1434  H     0.42326   0.68363   0.59344   0.00000  Uiso   1.00
H1435  H     0.43426   0.75401   0.56147   0.00000  Uiso   1.00
H1436  H     0.48452   0.72188   0.53458   0.00000  Uiso   1.00
H1437  H     0.53335   0.74867   0.58377   0.00000  Uiso   1.00
H1438  H     0.48750   0.78046   0.61325   0.00000  Uiso   1.00
H1439  H     0.57043   0.94666   0.86419   0.00000  Uiso   1.00
H1440  H     0.52015   0.97967   0.89093   0.00000  Uiso   1.00
H1441  H     0.44982   0.83385   0.61209   0.00000  Uiso   1.00
H1442  H     0.57686   0.98299   0.90652   0.00000  Uiso   1.00
H1443  H     0.51553   0.94483   0.96540   0.00000  Uiso   1.00
H1444  H     0.56576   0.91266   0.93855   0.00000  Uiso   1.00
H1445  H     0.51249   0.88623   0.88677   0.00000  Uiso   1.00
H1446  H     0.46668   0.91804   0.91626   0.00000  Uiso   1.00
H1447  H     0.55018   0.83284   0.88791   0.00000  Uiso   1.00
H1448  H     0.66350   0.80016   0.97908   0.00000  Uiso   1.00
H1449  H     0.33650   0.86653   0.52092   0.00000  Uiso   1.00
H1450  H     0.58876   0.70384   0.75922   0.00000  Uiso   1.00
H1451  H     0.41124   0.96282   0.74078   0.00000  Uiso   1.00
H1452  H     0.58878   0.96249   0.75929   0.00000  Uiso   1.00
N1453  N     0.45069   0.83334   0.74999   0.00000  Uiso   1.00
N1454  N     0.54931   0.83332   0.75001   0.00000  Uiso   1.00
O1455  O     0.37291   0.77322   0.75000   0.00000  Uiso   1.00
O1456  O     0.62709   0.89345   0.75000   0.00000  Uiso   1.00
O1457  O     0.62706   0.77321   0.75000   0.00000  Uiso   1.00
O1458  O     0.37294   0.89346   0.74999   0.00000  Uiso   1.00
O1459  O     0.35186   0.83334   0.81491   0.00000  Uiso   1.00
O1460  O     0.64814   0.83332   0.68508   0.00000  Uiso   1.00
O1461  O     0.60600   0.83333   0.81492   0.00000  Uiso   1.00
O1462  O     0.39400   0.83333   0.68508   0.00000  Uiso   1.00
C1463  C     0.99998   0.75401   0.74999   0.00000  Uiso   1.00
C1464  C     0.71037   0.68805   0.74489   0.00000  Uiso   1.00
C1465  C     0.66668   0.95726   0.75003   0.00000  Uiso   1.00
C1466  C     0.99998   0.70941   0.74997   0.00000  Uiso   1.00
C1467  C     0.85111   0.80515   0.77516   0.00000  Uiso   1.00
C1468  C     0.81556   0.86152   0.72484   0.00000  Uiso   1.00
C1469  C     0.80151   0.80512   0.77508   0.00000  Uiso   1.00
C1470  C     0.86516   0.86154   0.72492   0.00000  Uiso   1.00
C1471  C     0.97304   0.83190   0.83649   0.00000  Uiso   1.00
C1472  C     0.69363   0.83477   0.66352   0.00000  Uiso   1.00
C1473  C     0.95867   0.82838   0.88646   0.00000  Uiso   1.00
C1474  C     0.66669   0.91265   0.75001   0.00000  Uiso   1.00
C1475  C     0.70800   0.83829   0.61354   0.00000  Uiso   1.00
C1476  C     0.97290   0.81132   0.95930   0.00000  Uiso   1.00
C1477  C     0.69377   0.85536   0.54070   0.00000  Uiso   1.00
C1478  C     0.99152   0.81891   0.91294   0.00000  Uiso   1.00
C1479  C     0.67515   0.84777   0.58706   0.00000  Uiso   1.00
C1480  C     0.90919   0.83237   0.90810   0.00000  Uiso   1.00
C1481  C     0.75748   0.83431   0.59191   0.00000  Uiso   1.00
C1482  C     0.89188   0.83134   0.95512   0.00000  Uiso   1.00
C1483  C     0.77479   0.83534   0.54489   0.00000  Uiso   1.00
C1484  C     0.92334   0.81608   0.97998   0.00000  Uiso   1.00
C1485  C     0.85410   0.80049   0.54272   0.00000  Uiso   1.00
C1486  C     0.74334   0.85060   0.52002   0.00000  Uiso   1.00
C1487  C     0.84297   0.84108   0.97748   0.00000  Uiso   1.00
C1488  C     0.82370   0.82560   0.52253   0.00000  Uiso   1.00
C1489  C     0.95477   0.85350   0.60713   0.00000  Uiso   1.00
C1490  C     0.71189   0.81318   0.89287   0.00000  Uiso   1.00
C1491  C     0.83571   0.76759   0.57930   0.00000  Uiso   1.00
C1492  C     0.79977   0.73752   0.56665   0.00000  Uiso   1.00
C1493  C     0.78216   0.70506   0.60362   0.00000  Uiso   1.00
C1494  C     0.83097   0.89910   0.92071   0.00000  Uiso   1.00
C1495  C     0.86693   0.92916   0.93335   0.00000  Uiso   1.00
C1496  C     0.81258   0.86620   0.95729   0.00000  Uiso   1.00
C1497  C     0.88459   0.96159   0.89636   0.00000  Uiso   1.00
C1498  C     0.90427   0.80111   0.52357   0.00000  Uiso   1.00
C1499  C     0.76241   0.86558   0.97644   0.00000  Uiso   1.00
C1500  C     0.95628   0.68787   0.75508   0.00000  Uiso   1.00
C1501  C     0.71039   0.97880   0.74492   0.00000  Uiso   1.00
C1502  C     0.95630   0.97861   0.75511   0.00000  Uiso   1.00
Cu1503 Cu    0.71355   0.83334   0.75000   0.00000  Uiso   1.00
Cu1504 Cu    0.95311   0.83333   0.75000   0.00000  Uiso   1.00
H1505  H     0.92825   0.78549   0.54058   0.00000  Uiso   1.00
H1506  H     0.74455   0.70417   0.74071   0.00000  Uiso   1.00
H1507  H     0.86418   0.78259   0.79534   0.00000  Uiso   1.00
H1508  H     0.80249   0.88407   0.70466   0.00000  Uiso   1.00
H1509  H     0.77724   0.78242   0.79499   0.00000  Uiso   1.00
H1510  H     0.88942   0.88425   0.70501   0.00000  Uiso   1.00
H1511  H     0.94869   0.87888   0.63195   0.00000  Uiso   1.00
H1512  H     0.93559   0.86183   0.58105   0.00000  Uiso   1.00
H1513  H     0.93828   0.82445   0.62353   0.00000  Uiso   1.00
H1514  H     0.71798   0.78780   0.86805   0.00000  Uiso   1.00
H1515  H     0.72838   0.84223   0.87647   0.00000  Uiso   1.00
H1516  H     0.73843   0.88120   0.95942   0.00000  Uiso   1.00
H1517  H     0.73108   0.80485   0.91895   0.00000  Uiso   1.00
H1518  H     0.81329   0.68702   0.60905   0.00000  Uiso   1.00
H1519  H     0.76295   0.71996   0.63579   0.00000  Uiso   1.00
H1520  H     0.75660   0.68363   0.59344   0.00000  Uiso   1.00
H1521  H     0.76759   0.75401   0.56147   0.00000  Uiso   1.00
H1522  H     0.81785   0.72188   0.53458   0.00000  Uiso   1.00
H1523  H     0.86668   0.74867   0.58377   0.00000  Uiso   1.00
H1524  H     0.82084   0.78046   0.61325   0.00000  Uiso   1.00
H1525  H     0.90376   0.94666   0.86419   0.00000  Uiso   1.00
H1526  H     0.85349   0.97967   0.89093   0.00000  Uiso   1.00
H1527  H     0.78315   0.83385   0.61209   0.00000  Uiso   1.00
H1528  H     0.91020   0.98299   0.90652   0.00000  Uiso   1.00
H1529  H     0.84887   0.94483   0.96540   0.00000  Uiso   1.00
H1530  H     0.89910   0.91266   0.93855   0.00000  Uiso   1.00
H1531  H     0.84582   0.88623   0.88677   0.00000  Uiso   1.00
H1532  H     0.80001   0.91804   0.91626   0.00000  Uiso   1.00
H1533  H     0.88351   0.83284   0.88791   0.00000  Uiso   1.00
H1534  H     0.99684   0.80016   0.97908   0.00000  Uiso   1.00
H1535  H     0.66984   0.86653   0.52092   0.00000  Uiso   1.00
H1536  H     0.92209   0.70384   0.75922   0.00000  Uiso   1.00
H1537  H     0.74457   0.96282   0.74078   0.00000  Uiso   1.00
H1538  H     0.92211   0.96249   0.75929   0.00000  Uiso   1.00
N1539  N     0.78403   0.83334   0.74999   0.00000  Uiso   1.00
N1540  N     0.88264   0.83332   0.75001   0.00000  Uiso   1.00
O1541  O     0.70625   0.77322   0.75000   0.00000  Uiso   1.00
O1542  O     0.96042   0.89345   0.75000   0.00000  Uiso   1.00
O1543  O     0.96039   0.77321   0.75000   0.00000  Uiso   1.00
O1544  O     0.70628   0.89346   0.74999   0.00000  Uiso   1.00
O1545  O     0.68519   0.83334   0.81491   0.00000  Uiso   1.00
O1546  O     0.98148   0.83332   0.68508   0.00000  Uiso   1.00
O1547  O     0.93933   0.83333   0.81492   0.00000  Uiso   1.00
O1548  O     0.72733   0.83333   0.68508   0.00000  Uiso   1.00
loop_
_geom_bond_atom_site_label_1
_geom_bond_atom_site_label_2
_geom_bond_distance
_geom_bond_site_symmetry_2
_ccdc_geom_bond_type
C1     O81     1.290   .     A
C1     C4      1.449   .     S
C1     O165    1.290   .     S
C2     H44     1.083   .     S
C2     C176    1.401   1_455 S
C2     C555    1.383   1_545 S
C3     C12     1.449   .     S
C3     C39     1.401   .     A
C3     C212    1.401   1_455 S
C4     C38     1.401   .     A
C4     C88     1.401   .     S
C5     C7      1.415   .     A
C5     H45     1.082   .     S
C5     N78     1.367   .     A
C6     N77     1.367   .     A
C6     H46     1.082   .     S
C6     C8      1.415   .     A
C7     N77     1.366   .     A
C7     H47     1.081   .     S
C8     N78     1.366   .     A
C8     H48     1.081   .     S
C9     O85     1.300   .     A
C9     C11     1.483   .     S
C9     O169    1.295   .     S
C10    O86     1.300   .     A
C10    C13     1.483   .     S
C10    O256    1.295   1_455 S
C11    C18     1.402   .     A
C11    C16     1.421   .     A
C12    O82     1.290   .     A
C12    O252    1.290   1_455 S
C13    C19     1.402   .     A
C13    C17     1.421   .     A
C14    C16     1.402   .     A
C14    H72     1.084   .     S
C14    C22     1.401   .     A
C15    C24     1.401   .     A
C15    H73     1.084   .     S
C15    C17     1.402   .     A
C16    C114    1.508   .     S
C17    C199    1.508   1_455 S
C18    H71     1.074   .     S
C18    C20     1.397   .     A
C19    C21     1.397   .     A
C19    H65     1.074   .     S
C20    C25     1.423   .     A
C20    C22     1.407   .     A
C21    C26     1.423   .     A
C21    C24     1.407   .     A
C22    C810    1.389   .     S
C23    C29     1.532   .     S
C23    C26     1.439   .     A
C23    C36     1.399   .     A
C24    C811    1.389   1_554 S
C25    C34     1.439   .     A
C25    C800    1.434   .     S
C26    C799    1.434   1_554 S
C27    H50     1.111   .     S
C27    H51     1.110   .     S
C27    H49     1.109   .     S
C27    C103    1.508   .     S
C28    H55     1.111   .     S
C28    H53     1.110   .     S
C28    H52     1.109   .     S
C28    C188    1.508   1_455 S
C29    H61     1.113   .     S
C29    C30     1.537   .     S
C29    H62     1.103   .     S
C30    C31     1.527   .     S
C30    H60     1.112   .     S
C30    H59     1.109   .     S
C31    H58     1.110   .     S
C31    H56     1.111   .     S
C31    H57     1.111   .     S
C32    H70     1.113   .     S
C32    C34     1.532   .     S
C32    H69     1.103   .     S
C32    C33     1.537   .     S
C33    H67     1.112   .     S
C33    C35     1.527   .     S
C33    H68     1.109   .     S
C34    C37     1.399   .     A
C35    H64     1.111   .     S
C35    H66     1.110   .     S
C35    H63     1.111   .     S
C36    H43     1.085   .     S
C36    C796    1.389   1_554 S
C37    H54     1.085   .     S
C37    C798    1.389   .     S
C38    H74     1.083   .     S
C38    C556    1.383   1_545 S
C39    H75     1.083   .     S
C39    C260    1.383   .     S
C40    H76     1.083   .     S
C40    C89     1.401   .     S
C40    C296    1.383   .     S
Cu41   O86     1.925   .     S
Cu41   N77     2.009   .     S
Cu41   O83     1.944   .     S
Cu41   O79     1.963   .     S
Cu41   O82     1.964   .     S
Cu41   Cu214   2.674   1_455 S
Cu42   O80     1.963   .     S
Cu42   O81     1.964   .     S
Cu42   O84     1.944   .     S
Cu42   O85     1.925   .     S
Cu42   N78     2.009   .     S
Cu42   Cu127   2.674   .     S
O79    C173    1.290   1_455 S
O80    C98     1.290   .     S
O83    C181    1.295   1_455 S
O84    C96     1.295   .     S
C87    O167    1.290   .     A
C87    C90     1.449   .     S
C87    O251    1.290   .     S
C88    H130    1.083   .     S
C88    C641    1.383   1_545 S
C89    C98     1.449   .     S
C89    C125    1.401   .     A
C90    C124    1.401   .     A
C90    C174    1.401   .     S
C91    C93     1.415   .     A
C91    H131    1.082   .     S
C91    N164    1.367   .     A
C92    N163    1.367   .     A
C92    H132    1.082   .     S
C92    C94     1.415   .     A
C93    N163    1.366   .     A
C93    H133    1.081   .     S
C94    N164    1.366   .     A
C94    H134    1.081   .     S
C95    O171    1.300   .     A
C95    C97     1.483   .     S
C95    O255    1.295   .     S
C96    O172    1.300   .     A
C96    C99     1.483   .     S
C97    C104    1.402   .     A
C97    C102    1.421   .     A
C98    O168    1.290   .     A
C99    C105    1.402   .     A
C99    C103    1.421   .     A
C100   C102    1.402   .     A
C100   H158    1.084   .     S
C100   C108    1.401   .     A
C101   C110    1.401   .     A
C101   H159    1.084   .     S
C101   C103    1.402   .     A
C102   C200    1.508   .     S
C104   H157    1.074   .     S
C104   C106    1.397   .     A
C105   C107    1.397   .     A
C105   H151    1.074   .     S
C106   C111    1.423   .     A
C106   C108    1.407   .     A
C107   C112    1.423   .     A
C107   C110    1.407   .     A
C108   C896    1.389   .     S
C109   C115    1.532   .     S
C109   C112    1.439   .     A
C109   C122    1.399   .     A
C110   C897    1.389   1_554 S
C111   C120    1.439   .     A
C111   C886    1.434   .     S
C112   C885    1.434   1_554 S
C113   H136    1.111   .     S
C113   H137    1.110   .     S
C113   H135    1.109   .     S
C113   C189    1.508   .     S
C114   H141    1.111   .     S
C114   H139    1.110   .     S
C114   H138    1.109   .     S
C115   H147    1.113   .     S
C115   C116    1.537   .     S
C115   H148    1.103   .     S
C116   C117    1.527   .     S
C116   H146    1.112   .     S
C116   H145    1.109   .     S
C117   H144    1.110   .     S
C117   H142    1.111   .     S
C117   H143    1.111   .     S
C118   H156    1.113   .     S
C118   C120    1.532   .     S
C118   H155    1.103   .     S
C118   C119    1.537   .     S
C119   H153    1.112   .     S
C119   C121    1.527   .     S
C119   H154    1.109   .     S
C120   C123    1.399   .     A
C121   H150    1.111   .     S
C121   H152    1.110   .     S
C121   H149    1.111   .     S
C122   H129    1.085   .     S
C122   C882    1.389   1_554 S
C123   H140    1.085   .     S
C123   C884    1.389   .     S
C124   H160    1.083   .     S
C124   C642    1.383   1_545 S
C125   H161    1.083   .     S
C125   C346    1.383   .     S
C126   H162    1.083   .     S
C126   C175    1.401   .     S
C126   C382    1.383   .     S
Cu127  O172    1.925   .     S
Cu127  N163    2.009   .     S
Cu127  O169    1.944   .     S
Cu127  O165    1.963   .     S
Cu127  O168    1.964   .     S
Cu128  O166    1.963   .     S
Cu128  O167    1.964   .     S
Cu128  O170    1.944   .     S
Cu128  O171    1.925   .     S
Cu128  N164    2.009   .     S
Cu128  Cu213   2.674   .     S
O166   C184    1.290   .     S
O170   C182    1.295   .     S
C173   O253    1.290   .     A
C173   C176    1.449   .     S
C173   O79     1.290   1_655 S
C174   H216    1.083   .     S
C174   C727    1.383   1_545 S
C175   C184    1.449   .     S
C175   C211    1.401   .     A
C176   C210    1.401   .     A
C176   C2      1.401   1_655 S
C177   C179    1.415   .     A
C177   H217    1.082   .     S
C177   N250    1.367   .     A
C178   N249    1.367   .     A
C178   H218    1.082   .     S
C178   C180    1.415   .     A
C179   N249    1.366   .     A
C179   H219    1.081   .     S
C180   N250    1.366   .     A
C180   H220    1.081   .     S
C181   O257    1.300   .     A
C181   C183    1.483   .     S
C181   O83     1.295   1_655 S
C182   O258    1.300   .     A
C182   C185    1.483   .     S
C183   C190    1.402   .     A
C183   C188    1.421   .     A
C184   O254    1.290   .     A
C185   C191    1.402   .     A
C185   C189    1.421   .     A
C186   C188    1.402   .     A
C186   H244    1.084   .     S
C186   C194    1.401   .     A
C187   C196    1.401   .     A
C187   H245    1.084   .     S
C187   C189    1.402   .     A
C188   C28     1.508   1_655 S
C190   H243    1.074   .     S
C190   C192    1.397   .     A
C191   C193    1.397   .     A
C191   H237    1.074   .     S
C192   C197    1.423   .     A
C192   C194    1.407   .     A
C193   C198    1.423   .     A
C193   C196    1.407   .     A
C194   C982    1.389   .     S
C195   C201    1.532   .     S
C195   C198    1.439   .     A
C195   C208    1.399   .     A
C196   C983    1.389   1_554 S
C197   C206    1.439   .     A
C197   C972    1.434   .     S
C198   C971    1.434   1_554 S
C199   H222    1.111   .     S
C199   H223    1.110   .     S
C199   H221    1.109   .     S
C199   C17     1.508   1_655 S
C200   H227    1.111   .     S
C200   H225    1.110   .     S
C200   H224    1.109   .     S
C201   H233    1.113   .     S
C201   C202    1.537   .     S
C201   H234    1.103   .     S
C202   C203    1.527   .     S
C202   H232    1.112   .     S
C202   H231    1.109   .     S
C203   H230    1.110   .     S
C203   H228    1.111   .     S
C203   H229    1.111   .     S
C204   H242    1.113   .     S
C204   C206    1.532   .     S
C204   H241    1.103   .     S
C204   C205    1.537   .     S
C205   H239    1.112   .     S
C205   C207    1.527   .     S
C205   H240    1.109   .     S
C206   C209    1.399   .     A
C207   H236    1.111   .     S
C207   H238    1.110   .     S
C207   H235    1.111   .     S
C208   H215    1.085   .     S
C208   C968    1.389   1_554 S
C209   H226    1.085   .     S
C209   C970    1.389   .     S
C210   H246    1.083   .     S
C210   C728    1.383   1_545 S
C211   H247    1.083   .     S
C211   C432    1.383   .     S
C212   H248    1.083   .     S
C212   C3      1.401   1_655 S
C212   C468    1.383   .     S
Cu213  O258    1.925   .     S
Cu213  N249    2.009   .     S
Cu213  O255    1.944   .     S
Cu213  O251    1.963   .     S
Cu213  O254    1.964   .     S
Cu214  O252    1.963   .     S
Cu214  O253    1.964   .     S
Cu214  O256    1.944   .     S
Cu214  O257    1.925   .     S
Cu214  N250    2.009   .     S
Cu214  Cu41    2.674   1_655 S
O252   C12     1.290   1_655 S
O256   C10     1.295   1_655 S
C259   O339    1.290   .     A
C259   C262    1.449   .     S
C259   O423    1.290   .     S
C260   H302    1.083   .     S
C260   C434    1.401   1_455 S
C261   C270    1.449   .     S
C261   C297    1.401   .     A
C261   C470    1.401   1_455 S
C262   C296    1.401   .     A
C262   C346    1.401   .     S
C263   C265    1.415   .     A
C263   H303    1.082   .     S
C263   N336    1.367   .     A
C264   N335    1.367   .     A
C264   H304    1.082   .     S
C264   C266    1.415   .     A
C265   N335    1.366   .     A
C265   H305    1.081   .     S
C266   N336    1.366   .     A
C266   H306    1.081   .     S
C267   O343    1.300   .     A
C267   C269    1.483   .     S
C267   O427    1.295   .     S
C268   O344    1.300   .     A
C268   C271    1.483   .     S
C268   O514    1.295   1_455 S
C269   C276    1.402   .     A
C269   C274    1.421   .     A
C270   O340    1.290   .     A
C270   O510    1.290   1_455 S
C271   C277    1.402   .     A
C271   C275    1.421   .     A
C272   C274    1.402   .     A
C272   H330    1.084   .     S
C272   C280    1.401   .     A
C273   C282    1.401   .     A
C273   H331    1.084   .     S
C273   C275    1.402   .     A
C274   C372    1.508   .     S
C275   C457    1.508   1_455 S
C276   H329    1.074   .     S
C276   C278    1.397   .     A
C277   C279    1.397   .     A
C277   H323    1.074   .     S
C278   C283    1.423   .     A
C278   C280    1.407   .     A
C279   C284    1.423   .     A
C279   C282    1.407   .     A
C280   C1068   1.389   .     S
C281   C287    1.532   .     S
C281   C284    1.439   .     A
C281   C294    1.399   .     A
C282   C1069   1.389   1_554 S
C283   C292    1.439   .     A
C283   C1058   1.434   .     S
C284   C1057   1.434   1_554 S
C285   H308    1.111   .     S
C285   H309    1.110   .     S
C285   H307    1.109   .     S
C285   C361    1.508   .     S
C286   H313    1.111   .     S
C286   H311    1.110   .     S
C286   H310    1.109   .     S
C286   C446    1.508   1_455 S
C287   H319    1.113   .     S
C287   C288    1.537   .     S
C287   H320    1.103   .     S
C288   C289    1.527   .     S
C288   H318    1.112   .     S
C288   H317    1.109   .     S
C289   H316    1.110   .     S
C289   H314    1.111   .     S
C289   H315    1.111   .     S
C290   H328    1.113   .     S
C290   C292    1.532   .     S
C290   H327    1.103   .     S
C290   C291    1.537   .     S
C291   H325    1.112   .     S
C291   C293    1.527   .     S
C291   H326    1.109   .     S
C292   C295    1.399   .     A
C293   H322    1.111   .     S
C293   H324    1.110   .     S
C293   H321    1.111   .     S
C294   H301    1.085   .     S
C294   C1054   1.389   1_554 S
C295   H312    1.085   .     S
C295   C1056   1.389   .     S
C296   H332    1.083   .     S
C297   H333    1.083   .     S
C297   C518    1.383   .     S
C298   H334    1.083   .     S
C298   C347    1.401   .     S
C298   C554    1.383   .     S
Cu299  O344    1.925   .     S
Cu299  N335    2.009   .     S
Cu299  O341    1.944   .     S
Cu299  O337    1.963   .     S
Cu299  O340    1.964   .     S
Cu299  Cu472   2.674   1_455 S
Cu300  O338    1.963   .     S
Cu300  O339    1.964   .     S
Cu300  O342    1.944   .     S
Cu300  O343    1.925   .     S
Cu300  N336    2.009   .     S
Cu300  Cu385   2.674   .     S
O337   C431    1.290   1_455 S
O338   C356    1.290   .     S
O341   C439    1.295   1_455 S
O342   C354    1.295   .     S
C345   O425    1.290   .     A
C345   C348    1.449   .     S
C345   O509    1.290   .     S
C346   H388    1.083   .     S
C347   C356    1.449   .     S
C347   C383    1.401   .     A
C348   C382    1.401   .     A
C348   C432    1.401   .     S
C349   C351    1.415   .     A
C349   H389    1.082   .     S
C349   N422    1.367   .     A
C350   N421    1.367   .     A
C350   H390    1.082   .     S
C350   C352    1.415   .     A
C351   N421    1.366   .     A
C351   H391    1.081   .     S
C352   N422    1.366   .     A
C352   H392    1.081   .     S
C353   O429    1.300   .     A
C353   C355    1.483   .     S
C353   O513    1.295   .     S
C354   O430    1.300   .     A
C354   C357    1.483   .     S
C355   C362    1.402   .     A
C355   C360    1.421   .     A
C356   O426    1.290   .     A
C357   C363    1.402   .     A
C357   C361    1.421   .     A
C358   C360    1.402   .     A
C358   H416    1.084   .     S
C358   C366    1.401   .     A
C359   C368    1.401   .     A
C359   H417    1.084   .     S
C359   C361    1.402   .     A
C360   C458    1.508   .     S
C362   H415    1.074   .     S
C362   C364    1.397   .     A
C363   C365    1.397   .     A
C363   H409    1.074   .     S
C364   C369    1.423   .     A
C364   C366    1.407   .     A
C365   C370    1.423   .     A
C365   C368    1.407   .     A
C366   C1154   1.389   .     S
C367   C373    1.532   .     S
C367   C370    1.439   .     A
C367   C380    1.399   .     A
C368   C1155   1.389   1_554 S
C369   C378    1.439   .     A
C369   C1144   1.434   .     S
C370   C1143   1.434   1_554 S
C371   H394    1.111   .     S
C371   H395    1.110   .     S
C371   H393    1.109   .     S
C371   C447    1.508   .     S
C372   H399    1.111   .     S
C372   H397    1.110   .     S
C372   H396    1.109   .     S
C373   H405    1.113   .     S
C373   C374    1.537   .     S
C373   H406    1.103   .     S
C374   C375    1.527   .     S
C374   H404    1.112   .     S
C374   H403    1.109   .     S
C375   H402    1.110   .     S
C375   H400    1.111   .     S
C375   H401    1.111   .     S
C376   H414    1.113   .     S
C376   C378    1.532   .     S
C376   H413    1.103   .     S
C376   C377    1.537   .     S
C377   H411    1.112   .     S
C377   C379    1.527   .     S
C377   H412    1.109   .     S
C378   C381    1.399   .     A
C379   H408    1.111   .     S
C379   H410    1.110   .     S
C379   H407    1.111   .     S
C380   H387    1.085   .     S
C380   C1140   1.389   1_554 S
C381   H398    1.085   .     S
C381   C1142   1.389   .     S
C382   H418    1.083   .     S
C383   H419    1.083   .     S
C383   C604    1.383   .     S
C384   H420    1.083   .     S
C384   C433    1.401   .     S
C384   C640    1.383   .     S
Cu385  O430    1.925   .     S
Cu385  N421    2.009   .     S
Cu385  O427    1.944   .     S
Cu385  O423    1.963   .     S
Cu385  O426    1.964   .     S
Cu386  O424    1.963   .     S
Cu386  O425    1.964   .     S
Cu386  O428    1.944   .     S
Cu386  O429    1.925   .     S
Cu386  N422    2.009   .     S
Cu386  Cu471   2.674   .     S
O424   C442    1.290   .     S
O428   C440    1.295   .     S
C431   O511    1.290   .     A
C431   C434    1.449   .     S
C431   O337    1.290   1_655 S
C432   H474    1.083   .     S
C433   C442    1.449   .     S
C433   C469    1.401   .     A
C434   C468    1.401   .     A
C434   C260    1.401   1_655 S
C435   C437    1.415   .     A
C435   H475    1.082   .     S
C435   N508    1.367   .     A
C436   N507    1.367   .     A
C436   H476    1.082   .     S
C436   C438    1.415   .     A
C437   N507    1.366   .     A
C437   H477    1.081   .     S
C438   N508    1.366   .     A
C438   H478    1.081   .     S
C439   O515    1.300   .     A
C439   C441    1.483   .     S
C439   O341    1.295   1_655 S
C440   O516    1.300   .     A
C440   C443    1.483   .     S
C441   C448    1.402   .     A
C441   C446    1.421   .     A
C442   O512    1.290   .     A
C443   C449    1.402   .     A
C443   C447    1.421   .     A
C444   C446    1.402   .     A
C444   H502    1.084   .     S
C444   C452    1.401   .     A
C445   C454    1.401   .     A
C445   H503    1.084   .     S
C445   C447    1.402   .     A
C446   C286    1.508   1_655 S
C448   H501    1.074   .     S
C448   C450    1.397   .     A
C449   C451    1.397   .     A
C449   H495    1.074   .     S
C450   C455    1.423   .     A
C450   C452    1.407   .     A
C451   C456    1.423   .     A
C451   C454    1.407   .     A
C452   C1240   1.389   .     S
C453   C459    1.532   .     S
C453   C456    1.439   .     A
C453   C466    1.399   .     A
C454   C1241   1.389   1_554 S
C455   C464    1.439   .     A
C455   C1230   1.434   .     S
C456   C1229   1.434   1_554 S
C457   H480    1.111   .     S
C457   H481    1.110   .     S
C457   H479    1.109   .     S
C457   C275    1.508   1_655 S
C458   H485    1.111   .     S
C458   H483    1.110   .     S
C458   H482    1.109   .     S
C459   H491    1.113   .     S
C459   C460    1.537   .     S
C459   H492    1.103   .     S
C460   C461    1.527   .     S
C460   H490    1.112   .     S
C460   H489    1.109   .     S
C461   H488    1.110   .     S
C461   H486    1.111   .     S
C461   H487    1.111   .     S
C462   H500    1.113   .     S
C462   C464    1.532   .     S
C462   H499    1.103   .     S
C462   C463    1.537   .     S
C463   H497    1.112   .     S
C463   C465    1.527   .     S
C463   H498    1.109   .     S
C464   C467    1.399   .     A
C465   H494    1.111   .     S
C465   H496    1.110   .     S
C465   H493    1.111   .     S
C466   H473    1.085   .     S
C466   C1226   1.389   1_554 S
C467   H484    1.085   .     S
C467   C1228   1.389   .     S
C468   H504    1.083   .     S
C469   H505    1.083   .     S
C469   C690    1.383   .     S
C470   H506    1.083   .     S
C470   C261    1.401   1_655 S
C470   C726    1.383   .     S
Cu471  O516    1.925   .     S
Cu471  N507    2.009   .     S
Cu471  O513    1.944   .     S
Cu471  O509    1.963   .     S
Cu471  O512    1.964   .     S
Cu472  O510    1.963   .     S
Cu472  O511    1.964   .     S
Cu472  O514    1.944   .     S
Cu472  O515    1.925   .     S
Cu472  N508    2.009   .     S
Cu472  Cu299   2.674   1_655 S
O510   C270    1.290   1_655 S
O514   C268    1.295   1_655 S
C517   O597    1.290   .     A
C517   C520    1.449   .     S
C517   O681    1.290   .     S
C518   H560    1.083   .     S
C518   C692    1.401   1_455 S
C519   C528    1.449   .     S
C519   C555    1.401   .     A
C519   C728    1.401   1_455 S
C520   C554    1.401   .     A
C520   C604    1.401   .     S
C521   C523    1.415   .     A
C521   H561    1.082   .     S
C521   N594    1.367   .     A
C522   N593    1.367   .     A
C522   H562    1.082   .     S
C522   C524    1.415   .     A
C523   N593    1.366   .     A
C523   H563    1.081   .     S
C524   N594    1.366   .     A
C524   H564    1.081   .     S
C525   O601    1.300   .     A
C525   C527    1.483   .     S
C525   O685    1.295   .     S
C526   O602    1.300   .     A
C526   C529    1.483   .     S
C526   O772    1.295   1_455 S
C527   C534    1.402   .     A
C527   C532    1.421   .     A
C528   O598    1.290   .     A
C528   O768    1.290   1_455 S
C529   C535    1.402   .     A
C529   C533    1.421   .     A
C530   C532    1.402   .     A
C530   H588    1.084   .     S
C530   C538    1.401   .     A
C531   C540    1.401   .     A
C531   H589    1.084   .     S
C531   C533    1.402   .     A
C532   C630    1.508   .     S
C533   C715    1.508   1_455 S
C534   H587    1.074   .     S
C534   C536    1.397   .     A
C535   C537    1.397   .     A
C535   H581    1.074   .     S
C536   C541    1.423   .     A
C536   C538    1.407   .     A
C537   C542    1.423   .     A
C537   C540    1.407   .     A
C538   C1326   1.389   .     S
C539   C545    1.532   .     S
C539   C542    1.439   .     A
C539   C552    1.399   .     A
C540   C1327   1.389   1_554 S
C541   C550    1.439   .     A
C541   C1316   1.434   .     S
C542   C1315   1.434   1_554 S
C543   H566    1.111   .     S
C543   H567    1.110   .     S
C543   H565    1.109   .     S
C543   C619    1.508   .     S
C544   H571    1.111   .     S
C544   H569    1.110   .     S
C544   H568    1.109   .     S
C544   C704    1.508   1_455 S
C545   H577    1.113   .     S
C545   C546    1.537   .     S
C545   H578    1.103   .     S
C546   C547    1.527   .     S
C546   H576    1.112   .     S
C546   H575    1.109   .     S
C547   H574    1.110   .     S
C547   H572    1.111   .     S
C547   H573    1.111   .     S
C548   H586    1.113   .     S
C548   C550    1.532   .     S
C548   H585    1.103   .     S
C548   C549    1.537   .     S
C549   H583    1.112   .     S
C549   C551    1.527   .     S
C549   H584    1.109   .     S
C550   C553    1.399   .     A
C551   H580    1.111   .     S
C551   H582    1.110   .     S
C551   H579    1.111   .     S
C552   H559    1.085   .     S
C552   C1312   1.389   1_554 S
C553   H570    1.085   .     S
C553   C1314   1.389   .     S
C554   H590    1.083   .     S
C555   H591    1.083   .     S
C555   C2      1.383   1_565 S
C556   H592    1.083   .     S
C556   C605    1.401   .     S
C556   C38     1.383   1_565 S
Cu557  O602    1.925   .     S
Cu557  N593    2.009   .     S
Cu557  O599    1.944   .     S
Cu557  O595    1.963   .     S
Cu557  O598    1.964   .     S
Cu557  Cu730   2.674   1_455 S
Cu558  O596    1.963   .     S
Cu558  O597    1.964   .     S
Cu558  O600    1.944   .     S
Cu558  O601    1.925   .     S
Cu558  N594    2.009   .     S
Cu558  Cu643   2.674   .     S
O595   C689    1.290   1_455 S
O596   C614    1.290   .     S
O599   C697    1.295   1_455 S
O600   C612    1.295   .     S
C603   O683    1.290   .     A
C603   C606    1.449   .     S
C603   O767    1.290   .     S
C604   H646    1.083   .     S
C605   C614    1.449   .     S
C605   C641    1.401   .     A
C606   C640    1.401   .     A
C606   C690    1.401   .     S
C607   C609    1.415   .     A
C607   H647    1.082   .     S
C607   N680    1.367   .     A
C608   N679    1.367   .     A
C608   H648    1.082   .     S
C608   C610    1.415   .     A
C609   N679    1.366   .     A
C609   H649    1.081   .     S
C610   N680    1.366   .     A
C610   H650    1.081   .     S
C611   O687    1.300   .     A
C611   C613    1.483   .     S
C611   O771    1.295   .     S
C612   O688    1.300   .     A
C612   C615    1.483   .     S
C613   C620    1.402   .     A
C613   C618    1.421   .     A
C614   O684    1.290   .     A
C615   C621    1.402   .     A
C615   C619    1.421   .     A
C616   C618    1.402   .     A
C616   H674    1.084   .     S
C616   C624    1.401   .     A
C617   C626    1.401   .     A
C617   H675    1.084   .     S
C617   C619    1.402   .     A
C618   C716    1.508   .     S
C620   H673    1.074   .     S
C620   C622    1.397   .     A
C621   C623    1.397   .     A
C621   H667    1.074   .     S
C622   C627    1.423   .     A
C622   C624    1.407   .     A
C623   C628    1.423   .     A
C623   C626    1.407   .     A
C624   C1412   1.389   .     S
C625   C631    1.532   .     S
C625   C628    1.439   .     A
C625   C638    1.399   .     A
C626   C1413   1.389   1_554 S
C627   C636    1.439   .     A
C627   C1402   1.434   .     S
C628   C1401   1.434   1_554 S
C629   H652    1.111   .     S
C629   H653    1.110   .     S
C629   H651    1.109   .     S
C629   C705    1.508   .     S
C630   H657    1.111   .     S
C630   H655    1.110   .     S
C630   H654    1.109   .     S
C631   H663    1.113   .     S
C631   C632    1.537   .     S
C631   H664    1.103   .     S
C632   C633    1.527   .     S
C632   H662    1.112   .     S
C632   H661    1.109   .     S
C633   H660    1.110   .     S
C633   H658    1.111   .     S
C633   H659    1.111   .     S
C634   H672    1.113   .     S
C634   C636    1.532   .     S
C634   H671    1.103   .     S
C634   C635    1.537   .     S
C635   H669    1.112   .     S
C635   C637    1.527   .     S
C635   H670    1.109   .     S
C636   C639    1.399   .     A
C637   H666    1.111   .     S
C637   H668    1.110   .     S
C637   H665    1.111   .     S
C638   H645    1.085   .     S
C638   C1398   1.389   1_554 S
C639   H656    1.085   .     S
C639   C1400   1.389   .     S
C640   H676    1.083   .     S
C641   H677    1.083   .     S
C641   C88     1.383   1_565 S
C642   H678    1.083   .     S
C642   C691    1.401   .     S
C642   C124    1.383   1_565 S
Cu643  O688    1.925   .     S
Cu643  N679    2.009   .     S
Cu643  O685    1.944   .     S
Cu643  O681    1.963   .     S
Cu643  O684    1.964   .     S
Cu644  O682    1.963   .     S
Cu644  O683    1.964   .     S
Cu644  O686    1.944   .     S
Cu644  O687    1.925   .     S
Cu644  N680    2.009   .     S
Cu644  Cu729   2.674   .     S
O682   C700    1.290   .     S
O686   C698    1.295   .     S
C689   O769    1.290   .     A
C689   C692    1.449   .     S
C689   O595    1.290   1_655 S
C690   H732    1.083   .     S
C691   C700    1.449   .     S
C691   C727    1.401   .     A
C692   C726    1.401   .     A
C692   C518    1.401   1_655 S
C693   C695    1.415   .     A
C693   H733    1.082   .     S
C693   N766    1.367   .     A
C694   N765    1.367   .     A
C694   H734    1.082   .     S
C694   C696    1.415   .     A
C695   N765    1.366   .     A
C695   H735    1.081   .     S
C696   N766    1.366   .     A
C696   H736    1.081   .     S
C697   O773    1.300   .     A
C697   C699    1.483   .     S
C697   O599    1.295   1_655 S
C698   O774    1.300   .     A
C698   C701    1.483   .     S
C699   C706    1.402   .     A
C699   C704    1.421   .     A
C700   O770    1.290   .     A
C701   C707    1.402   .     A
C701   C705    1.421   .     A
C702   C704    1.402   .     A
C702   H760    1.084   .     S
C702   C710    1.401   .     A
C703   C712    1.401   .     A
C703   H761    1.084   .     S
C703   C705    1.402   .     A
C704   C544    1.508   1_655 S
C706   H759    1.074   .     S
C706   C708    1.397   .     A
C707   C709    1.397   .     A
C707   H753    1.074   .     S
C708   C713    1.423   .     A
C708   C710    1.407   .     A
C709   C714    1.423   .     A
C709   C712    1.407   .     A
C710   C1498   1.389   .     S
C711   C717    1.532   .     S
C711   C714    1.439   .     A
C711   C724    1.399   .     A
C712   C1499   1.389   1_554 S
C713   C722    1.439   .     A
C713   C1488   1.434   .     S
C714   C1487   1.434   1_554 S
C715   H738    1.111   .     S
C715   H739    1.110   .     S
C715   H737    1.109   .     S
C715   C533    1.508   1_655 S
C716   H743    1.111   .     S
C716   H741    1.110   .     S
C716   H740    1.109   .     S
C717   H749    1.113   .     S
C717   C718    1.537   .     S
C717   H750    1.103   .     S
C718   C719    1.527   .     S
C718   H748    1.112   .     S
C718   H747    1.109   .     S
C719   H746    1.110   .     S
C719   H744    1.111   .     S
C719   H745    1.111   .     S
C720   H758    1.113   .     S
C720   C722    1.532   .     S
C720   H757    1.103   .     S
C720   C721    1.537   .     S
C721   H755    1.112   .     S
C721   C723    1.527   .     S
C721   H756    1.109   .     S
C722   C725    1.399   .     A
C723   H752    1.111   .     S
C723   H754    1.110   .     S
C723   H751    1.111   .     S
C724   H731    1.085   .     S
C724   C1484   1.389   1_554 S
C725   H742    1.085   .     S
C725   C1486   1.389   .     S
C726   H762    1.083   .     S
C727   H763    1.083   .     S
C727   C174    1.383   1_565 S
C728   H764    1.083   .     S
C728   C519    1.401   1_655 S
C728   C210    1.383   1_565 S
Cu729  O774    1.925   .     S
Cu729  N765    2.009   .     S
Cu729  O771    1.944   .     S
Cu729  O767    1.963   .     S
Cu729  O770    1.964   .     S
Cu730  O768    1.963   .     S
Cu730  O769    1.964   .     S
Cu730  O772    1.944   .     S
Cu730  O773    1.925   .     S
Cu730  N766    2.009   .     S
Cu730  Cu557   2.674   1_655 S
O768   C528    1.290   1_655 S
O772   C526    1.295   1_655 S
C775   O855    1.290   .     A
C775   C778    1.449   .     S
C775   O939    1.290   .     S
C776   H818    1.083   .     S
C776   C950    1.401   1_455 S
C776   C1329   1.383   1_545 S
C777   C786    1.449   .     S
C777   C813    1.401   .     A
C777   C986    1.401   1_455 S
C778   C812    1.401   .     A
C778   C862    1.401   .     S
C779   C781    1.415   .     A
C779   H819    1.082   .     S
C779   N852    1.367   .     A
C780   N851    1.367   .     A
C780   H820    1.082   .     S
C780   C782    1.415   .     A
C781   N851    1.366   .     A
C781   H821    1.081   .     S
C782   N852    1.366   .     A
C782   H822    1.081   .     S
C783   O859    1.300   .     A
C783   C785    1.483   .     S
C783   O943    1.295   .     S
C784   O860    1.300   .     A
C784   C787    1.483   .     S
C784   O1030   1.295   1_455 S
C785   C792    1.402   .     A
C785   C790    1.421   .     A
C786   O856    1.290   .     A
C786   O1026   1.290   1_455 S
C787   C793    1.402   .     A
C787   C791    1.421   .     A
C788   C790    1.402   .     A
C788   H846    1.084   .     S
C788   C796    1.401   .     A
C789   C798    1.401   .     A
C789   H847    1.084   .     S
C789   C791    1.402   .     A
C790   C888    1.508   .     S
C791   C973    1.508   1_455 S
C792   H845    1.074   .     S
C792   C794    1.397   .     A
C793   C795    1.397   .     A
C793   H839    1.074   .     S
C794   C799    1.423   .     A
C794   C796    1.407   .     A
C795   C800    1.423   .     A
C795   C798    1.407   .     A
C796   C36     1.389   1_556 S
C797   C803    1.532   .     S
C797   C800    1.439   .     A
C797   C810    1.399   .     A
C799   C808    1.439   .     A
C799   C26     1.434   1_556 S
C801   H824    1.111   .     S
C801   H825    1.110   .     S
C801   H823    1.109   .     S
C801   C877    1.508   .     S
C802   H829    1.111   .     S
C802   H827    1.110   .     S
C802   H826    1.109   .     S
C802   C962    1.508   1_455 S
C803   H835    1.113   .     S
C803   C804    1.537   .     S
C803   H836    1.103   .     S
C804   C805    1.527   .     S
C804   H834    1.112   .     S
C804   H833    1.109   .     S
C805   H832    1.110   .     S
C805   H830    1.111   .     S
C805   H831    1.111   .     S
C806   H844    1.113   .     S
C806   C808    1.532   .     S
C806   H843    1.103   .     S
C806   C807    1.537   .     S
C807   H841    1.112   .     S
C807   C809    1.527   .     S
C807   H842    1.109   .     S
C808   C811    1.399   .     A
C809   H838    1.111   .     S
C809   H840    1.110   .     S
C809   H837    1.111   .     S
C810   H817    1.085   .     S
C811   H828    1.085   .     S
C811   C24     1.389   1_556 S
C812   H848    1.083   .     S
C812   C1330   1.383   1_545 S
C813   H849    1.083   .     S
C813   C1034   1.383   .     S
C814   H850    1.083   .     S
C814   C863    1.401   .     S
C814   C1070   1.383   .     S
Cu815  O860    1.925   .     S
Cu815  N851    2.009   .     S
Cu815  O857    1.944   .     S
Cu815  O853    1.963   .     S
Cu815  O856    1.964   .     S
Cu815  Cu988   2.674   1_455 S
Cu816  O854    1.963   .     S
Cu816  O855    1.964   .     S
Cu816  O858    1.944   .     S
Cu816  O859    1.925   .     S
Cu816  N852    2.009   .     S
Cu816  Cu901   2.674   .     S
O853   C947    1.290   1_455 S
O854   C872    1.290   .     S
O857   C955    1.295   1_455 S
O858   C870    1.295   .     S
C861   O941    1.290   .     A
C861   C864    1.449   .     S
C861   O1025   1.290   .     S
C862   H904    1.083   .     S
C862   C1415   1.383   1_545 S
C863   C872    1.449   .     S
C863   C899    1.401   .     A
C864   C898    1.401   .     A
C864   C948    1.401   .     S
C865   C867    1.415   .     A
C865   H905    1.082   .     S
C865   N938    1.367   .     A
C866   N937    1.367   .     A
C866   H906    1.082   .     S
C866   C868    1.415   .     A
C867   N937    1.366   .     A
C867   H907    1.081   .     S
C868   N938    1.366   .     A
C868   H908    1.081   .     S
C869   O945    1.300   .     A
C869   C871    1.483   .     S
C869   O1029   1.295   .     S
C870   O946    1.300   .     A
C870   C873    1.483   .     S
C871   C878    1.402   .     A
C871   C876    1.421   .     A
C872   O942    1.290   .     A
C873   C879    1.402   .     A
C873   C877    1.421   .     A
C874   C876    1.402   .     A
C874   H932    1.084   .     S
C874   C882    1.401   .     A
C875   C884    1.401   .     A
C875   H933    1.084   .     S
C875   C877    1.402   .     A
C876   C974    1.508   .     S
C878   H931    1.074   .     S
C878   C880    1.397   .     A
C879   C881    1.397   .     A
C879   H925    1.074   .     S
C880   C885    1.423   .     A
C880   C882    1.407   .     A
C881   C886    1.423   .     A
C881   C884    1.407   .     A
C882   C122    1.389   1_556 S
C883   C889    1.532   .     S
C883   C886    1.439   .     A
C883   C896    1.399   .     A
C885   C894    1.439   .     A
C885   C112    1.434   1_556 S
C887   H910    1.111   .     S
C887   H911    1.110   .     S
C887   H909    1.109   .     S
C887   C963    1.508   .     S
C888   H915    1.111   .     S
C888   H913    1.110   .     S
C888   H912    1.109   .     S
C889   H921    1.113   .     S
C889   C890    1.537   .     S
C889   H922    1.103   .     S
C890   C891    1.527   .     S
C890   H920    1.112   .     S
C890   H919    1.109   .     S
C891   H918    1.110   .     S
C891   H916    1.111   .     S
C891   H917    1.111   .     S
C892   H930    1.113   .     S
C892   C894    1.532   .     S
C892   H929    1.103   .     S
C892   C893    1.537   .     S
C893   H927    1.112   .     S
C893   C895    1.527   .     S
C893   H928    1.109   .     S
C894   C897    1.399   .     A
C895   H924    1.111   .     S
C895   H926    1.110   .     S
C895   H923    1.111   .     S
C896   H903    1.085   .     S
C897   H914    1.085   .     S
C897   C110    1.389   1_556 S
C898   H934    1.083   .     S
C898   C1416   1.383   1_545 S
C899   H935    1.083   .     S
C899   C1120   1.383   .     S
C900   H936    1.083   .     S
C900   C949    1.401   .     S
C900   C1156   1.383   .     S
Cu901  O946    1.925   .     S
Cu901  N937    2.009   .     S
Cu901  O943    1.944   .     S
Cu901  O939    1.963   .     S
Cu901  O942    1.964   .     S
Cu902  O940    1.963   .     S
Cu902  O941    1.964   .     S
Cu902  O944    1.944   .     S
Cu902  O945    1.925   .     S
Cu902  N938    2.009   .     S
Cu902  Cu987   2.674   .     S
O940   C958    1.290   .     S
O944   C956    1.295   .     S
C947   O1027   1.290   .     A
C947   C950    1.449   .     S
C947   O853    1.290   1_655 S
C948   H990    1.083   .     S
C948   C1501   1.383   1_545 S
C949   C958    1.449   .     S
C949   C985    1.401   .     A
C950   C984    1.401   .     A
C950   C776    1.401   1_655 S
C951   C953    1.415   .     A
C951   H991    1.082   .     S
C951   N1024   1.367   .     A
C952   N1023   1.367   .     A
C952   H992    1.082   .     S
C952   C954    1.415   .     A
C953   N1023   1.366   .     A
C953   H993    1.081   .     S
C954   N1024   1.366   .     A
C954   H994    1.081   .     S
C955   O1031   1.300   .     A
C955   C957    1.483   .     S
C955   O857    1.295   1_655 S
C956   O1032   1.300   .     A
C956   C959    1.483   .     S
C957   C964    1.402   .     A
C957   C962    1.421   .     A
C958   O1028   1.290   .     A
C959   C965    1.402   .     A
C959   C963    1.421   .     A
C960   C962    1.402   .     A
C960   H1018   1.084   .     S
C960   C968    1.401   .     A
C961   C970    1.401   .     A
C961   H1019   1.084   .     S
C961   C963    1.402   .     A
C962   C802    1.508   1_655 S
C964   H1017   1.074   .     S
C964   C966    1.397   .     A
C965   C967    1.397   .     A
C965   H1011   1.074   .     S
C966   C971    1.423   .     A
C966   C968    1.407   .     A
C967   C972    1.423   .     A
C967   C970    1.407   .     A
C968   C208    1.389   1_556 S
C969   C975    1.532   .     S
C969   C972    1.439   .     A
C969   C982    1.399   .     A
C971   C980    1.439   .     A
C971   C198    1.434   1_556 S
C973   H996    1.111   .     S
C973   H997    1.110   .     S
C973   H995    1.109   .     S
C973   C791    1.508   1_655 S
C974   H1001   1.111   .     S
C974   H999    1.110   .     S
C974   H998    1.109   .     S
C975   H1007   1.113   .     S
C975   C976    1.537   .     S
C975   H1008   1.103   .     S
C976   C977    1.527   .     S
C976   H1006   1.112   .     S
C976   H1005   1.109   .     S
C977   H1004   1.110   .     S
C977   H1002   1.111   .     S
C977   H1003   1.111   .     S
C978   H1016   1.113   .     S
C978   C980    1.532   .     S
C978   H1015   1.103   .     S
C978   C979    1.537   .     S
C979   H1013   1.112   .     S
C979   C981    1.527   .     S
C979   H1014   1.109   .     S
C980   C983    1.399   .     A
C981   H1010   1.111   .     S
C981   H1012   1.110   .     S
C981   H1009   1.111   .     S
C982   H989    1.085   .     S
C983   H1000   1.085   .     S
C983   C196    1.389   1_556 S
C984   H1020   1.083   .     S
C984   C1502   1.383   1_545 S
C985   H1021   1.083   .     S
C985   C1206   1.383   .     S
C986   H1022   1.083   .     S
C986   C777    1.401   1_655 S
C986   C1242   1.383   .     S
Cu987  O1032   1.925   .     S
Cu987  N1023   2.009   .     S
Cu987  O1029   1.944   .     S
Cu987  O1025   1.963   .     S
Cu987  O1028   1.964   .     S
Cu988  O1026   1.963   .     S
Cu988  O1027   1.964   .     S
Cu988  O1030   1.944   .     S
Cu988  O1031   1.925   .     S
Cu988  N1024   2.009   .     S
Cu988  Cu815   2.674   1_655 S
O1026  C786    1.290   1_655 S
O1030  C784    1.295   1_655 S
C1033  O1113   1.290   .     A
C1033  C1036   1.449   .     S
C1033  O1197   1.290   .     S
C1034  H1076   1.083   .     S
C1034  C1208   1.401   1_455 S
C1035  C1044   1.449   .     S
C1035  C1071   1.401   .     A
C1035  C1244   1.401   1_455 S
C1036  C1070   1.401   .     A
C1036  C1120   1.401   .     S
C1037  C1039   1.415   .     A
C1037  H1077   1.082   .     S
C1037  N1110   1.367   .     A
C1038  N1109   1.367   .     A
C1038  H1078   1.082   .     S
C1038  C1040   1.415   .     A
C1039  N1109   1.366   .     A
C1039  H1079   1.081   .     S
C1040  N1110   1.366   .     A
C1040  H1080   1.081   .     S
C1041  O1117   1.300   .     A
C1041  C1043   1.483   .     S
C1041  O1201   1.295   .     S
C1042  O1118   1.300   .     A
C1042  C1045   1.483   .     S
C1042  O1288   1.295   1_455 S
C1043  C1050   1.402   .     A
C1043  C1048   1.421   .     A
C1044  O1114   1.290   .     A
C1044  O1284   1.290   1_455 S
C1045  C1051   1.402   .     A
C1045  C1049   1.421   .     A
C1046  C1048   1.402   .     A
C1046  H1104   1.084   .     S
C1046  C1054   1.401   .     A
C1047  C1056   1.401   .     A
C1047  H1105   1.084   .     S
C1047  C1049   1.402   .     A
C1048  C1146   1.508   .     S
C1049  C1231   1.508   1_455 S
C1050  H1103   1.074   .     S
C1050  C1052   1.397   .     A
C1051  C1053   1.397   .     A
C1051  H1097   1.074   .     S
C1052  C1057   1.423   .     A
C1052  C1054   1.407   .     A
C1053  C1058   1.423   .     A
C1053  C1056   1.407   .     A
C1054  C294    1.389   1_556 S
C1055  C1061   1.532   .     S
C1055  C1058   1.439   .     A
C1055  C1068   1.399   .     A
C1057  C1066   1.439   .     A
C1057  C284    1.434   1_556 S
C1059  H1082   1.111   .     S
C1059  H1083   1.110   .     S
C1059  H1081   1.109   .     S
C1059  C1135   1.508   .     S
C1060  H1087   1.111   .     S
C1060  H1085   1.110   .     S
C1060  H1084   1.109   .     S
C1060  C1220   1.508   1_455 S
C1061  H1093   1.113   .     S
C1061  C1062   1.537   .     S
C1061  H1094   1.103   .     S
C1062  C1063   1.527   .     S
C1062  H1092   1.112   .     S
C1062  H1091   1.109   .     S
C1063  H1090   1.110   .     S
C1063  H1088   1.111   .     S
C1063  H1089   1.111   .     S
C1064  H1102   1.113   .     S
C1064  C1066   1.532   .     S
C1064  H1101   1.103   .     S
C1064  C1065   1.537   .     S
C1065  H1099   1.112   .     S
C1065  C1067   1.527   .     S
C1065  H1100   1.109   .     S
C1066  C1069   1.399   .     A
C1067  H1096   1.111   .     S
C1067  H1098   1.110   .     S
C1067  H1095   1.111   .     S
C1068  H1075   1.085   .     S
C1069  H1086   1.085   .     S
C1069  C282    1.389   1_556 S
C1070  H1106   1.083   .     S
C1071  H1107   1.083   .     S
C1071  C1292   1.383   .     S
C1072  H1108   1.083   .     S
C1072  C1121   1.401   .     S
C1072  C1328   1.383   .     S
Cu1073 O1118   1.925   .     S
Cu1073 N1109   2.009   .     S
Cu1073 O1115   1.944   .     S
Cu1073 O1111   1.963   .     S
Cu1073 O1114   1.964   .     S
Cu1073 Cu1246  2.674   1_455 S
Cu1074 O1112   1.963   .     S
Cu1074 O1113   1.964   .     S
Cu1074 O1116   1.944   .     S
Cu1074 O1117   1.925   .     S
Cu1074 N1110   2.009   .     S
Cu1074 Cu1159  2.674   .     S
O1111  C1205   1.290   1_455 S
O1112  C1130   1.290   .     S
O1115  C1213   1.295   1_455 S
O1116  C1128   1.295   .     S
C1119  O1199   1.290   .     A
C1119  C1122   1.449   .     S
C1119  O1283   1.290   .     S
C1120  H1162   1.083   .     S
C1121  C1130   1.449   .     S
C1121  C1157   1.401   .     A
C1122  C1156   1.401   .     A
C1122  C1206   1.401   .     S
C1123  C1125   1.415   .     A
C1123  H1163   1.082   .     S
C1123  N1196   1.367   .     A
C1124  N1195   1.367   .     A
C1124  H1164   1.082   .     S
C1124  C1126   1.415   .     A
C1125  N1195   1.366   .     A
C1125  H1165   1.081   .     S
C1126  N1196   1.366   .     A
C1126  H1166   1.081   .     S
C1127  O1203   1.300   .     A
C1127  C1129   1.483   .     S
C1127  O1287   1.295   .     S
C1128  O1204   1.300   .     A
C1128  C1131   1.483   .     S
C1129  C1136   1.402   .     A
C1129  C1134   1.421   .     A
C1130  O1200   1.290   .     A
C1131  C1137   1.402   .     A
C1131  C1135   1.421   .     A
C1132  C1134   1.402   .     A
C1132  H1190   1.084   .     S
C1132  C1140   1.401   .     A
C1133  C1142   1.401   .     A
C1133  H1191   1.084   .     S
C1133  C1135   1.402   .     A
C1134  C1232   1.508   .     S
C1136  H1189   1.074   .     S
C1136  C1138   1.397   .     A
C1137  C1139   1.397   .     A
C1137  H1183   1.074   .     S
C1138  C1143   1.423   .     A
C1138  C1140   1.407   .     A
C1139  C1144   1.423   .     A
C1139  C1142   1.407   .     A
C1140  C380    1.389   1_556 S
C1141  C1147   1.532   .     S
C1141  C1144   1.439   .     A
C1141  C1154   1.399   .     A
C1143  C1152   1.439   .     A
C1143  C370    1.434   1_556 S
C1145  H1168   1.111   .     S
C1145  H1169   1.110   .     S
C1145  H1167   1.109   .     S
C1145  C1221   1.508   .     S
C1146  H1173   1.111   .     S
C1146  H1171   1.110   .     S
C1146  H1170   1.109   .     S
C1147  H1179   1.113   .     S
C1147  C1148   1.537   .     S
C1147  H1180   1.103   .     S
C1148  C1149   1.527   .     S
C1148  H1178   1.112   .     S
C1148  H1177   1.109   .     S
C1149  H1176   1.110   .     S
C1149  H1174   1.111   .     S
C1149  H1175   1.111   .     S
C1150  H1188   1.113   .     S
C1150  C1152   1.532   .     S
C1150  H1187   1.103   .     S
C1150  C1151   1.537   .     S
C1151  H1185   1.112   .     S
C1151  C1153   1.527   .     S
C1151  H1186   1.109   .     S
C1152  C1155   1.399   .     A
C1153  H1182   1.111   .     S
C1153  H1184   1.110   .     S
C1153  H1181   1.111   .     S
C1154  H1161   1.085   .     S
C1155  H1172   1.085   .     S
C1155  C368    1.389   1_556 S
C1156  H1192   1.083   .     S
C1157  H1193   1.083   .     S
C1157  C1378   1.383   .     S
C1158  H1194   1.083   .     S
C1158  C1207   1.401   .     S
C1158  C1414   1.383   .     S
Cu1159 O1204   1.925   .     S
Cu1159 N1195   2.009   .     S
Cu1159 O1201   1.944   .     S
Cu1159 O1197   1.963   .     S
Cu1159 O1200   1.964   .     S
Cu1160 O1198   1.963   .     S
Cu1160 O1199   1.964   .     S
Cu1160 O1202   1.944   .     S
Cu1160 O1203   1.925   .     S
Cu1160 N1196   2.009   .     S
Cu1160 Cu1245  2.674   .     S
O1198  C1216   1.290   .     S
O1202  C1214   1.295   .     S
C1205  O1285   1.290   .     A
C1205  C1208   1.449   .     S
C1205  O1111   1.290   1_655 S
C1206  H1248   1.083   .     S
C1207  C1216   1.449   .     S
C1207  C1243   1.401   .     A
C1208  C1242   1.401   .     A
C1208  C1034   1.401   1_655 S
C1209  C1211   1.415   .     A
C1209  H1249   1.082   .     S
C1209  N1282   1.367   .     A
C1210  N1281   1.367   .     A
C1210  H1250   1.082   .     S
C1210  C1212   1.415   .     A
C1211  N1281   1.366   .     A
C1211  H1251   1.081   .     S
C1212  N1282   1.366   .     A
C1212  H1252   1.081   .     S
C1213  O1289   1.300   .     A
C1213  C1215   1.483   .     S
C1213  O1115   1.295   1_655 S
C1214  O1290   1.300   .     A
C1214  C1217   1.483   .     S
C1215  C1222   1.402   .     A
C1215  C1220   1.421   .     A
C1216  O1286   1.290   .     A
C1217  C1223   1.402   .     A
C1217  C1221   1.421   .     A
C1218  C1220   1.402   .     A
C1218  H1276   1.084   .     S
C1218  C1226   1.401   .     A
C1219  C1228   1.401   .     A
C1219  H1277   1.084   .     S
C1219  C1221   1.402   .     A
C1220  C1060   1.508   1_655 S
C1222  H1275   1.074   .     S
C1222  C1224   1.397   .     A
C1223  C1225   1.397   .     A
C1223  H1269   1.074   .     S
C1224  C1229   1.423   .     A
C1224  C1226   1.407   .     A
C1225  C1230   1.423   .     A
C1225  C1228   1.407   .     A
C1226  C466    1.389   1_556 S
C1227  C1233   1.532   .     S
C1227  C1230   1.439   .     A
C1227  C1240   1.399   .     A
C1229  C1238   1.439   .     A
C1229  C456    1.434   1_556 S
C1231  H1254   1.111   .     S
C1231  H1255   1.110   .     S
C1231  H1253   1.109   .     S
C1231  C1049   1.508   1_655 S
C1232  H1259   1.111   .     S
C1232  H1257   1.110   .     S
C1232  H1256   1.109   .     S
C1233  H1265   1.113   .     S
C1233  C1234   1.537   .     S
C1233  H1266   1.103   .     S
C1234  C1235   1.527   .     S
C1234  H1264   1.112   .     S
C1234  H1263   1.109   .     S
C1235  H1262   1.110   .     S
C1235  H1260   1.111   .     S
C1235  H1261   1.111   .     S
C1236  H1274   1.113   .     S
C1236  C1238   1.532   .     S
C1236  H1273   1.103   .     S
C1236  C1237   1.537   .     S
C1237  H1271   1.112   .     S
C1237  C1239   1.527   .     S
C1237  H1272   1.109   .     S
C1238  C1241   1.399   .     A
C1239  H1268   1.111   .     S
C1239  H1270   1.110   .     S
C1239  H1267   1.111   .     S
C1240  H1247   1.085   .     S
C1241  H1258   1.085   .     S
C1241  C454    1.389   1_556 S
C1242  H1278   1.083   .     S
C1243  H1279   1.083   .     S
C1243  C1464   1.383   .     S
C1244  H1280   1.083   .     S
C1244  C1035   1.401   1_655 S
C1244  C1500   1.383   .     S
Cu1245 O1290   1.925   .     S
Cu1245 N1281   2.009   .     S
Cu1245 O1287   1.944   .     S
Cu1245 O1283   1.963   .     S
Cu1245 O1286   1.964   .     S
Cu1246 O1284   1.963   .     S
Cu1246 O1285   1.964   .     S
Cu1246 O1288   1.944   .     S
Cu1246 O1289   1.925   .     S
Cu1246 N1282   2.009   .     S
Cu1246 Cu1073  2.674   1_655 S
O1284  C1044   1.290   1_655 S
O1288  C1042   1.295   1_655 S
C1291  O1371   1.290   .     A
C1291  C1294   1.449   .     S
C1291  O1455   1.290   .     S
C1292  H1334   1.083   .     S
C1292  C1466   1.401   1_455 S
C1293  C1302   1.449   .     S
C1293  C1329   1.401   .     A
C1293  C1502   1.401   1_455 S
C1294  C1328   1.401   .     A
C1294  C1378   1.401   .     S
C1295  C1297   1.415   .     A
C1295  H1335   1.082   .     S
C1295  N1368   1.367   .     A
C1296  N1367   1.367   .     A
C1296  H1336   1.082   .     S
C1296  C1298   1.415   .     A
C1297  N1367   1.366   .     A
C1297  H1337   1.081   .     S
C1298  N1368   1.366   .     A
C1298  H1338   1.081   .     S
C1299  O1375   1.300   .     A
C1299  C1301   1.483   .     S
C1299  O1459   1.295   .     S
C1300  O1376   1.300   .     A
C1300  C1303   1.483   .     S
C1300  O1546   1.295   1_455 S
C1301  C1308   1.402   .     A
C1301  C1306   1.421   .     A
C1302  O1372   1.290   .     A
C1302  O1542   1.290   1_455 S
C1303  C1309   1.402   .     A
C1303  C1307   1.421   .     A
C1304  C1306   1.402   .     A
C1304  H1362   1.084   .     S
C1304  C1312   1.401   .     A
C1305  C1314   1.401   .     A
C1305  H1363   1.084   .     S
C1305  C1307   1.402   .     A
C1306  C1404   1.508   .     S
C1307  C1489   1.508   1_455 S
C1308  H1361   1.074   .     S
C1308  C1310   1.397   .     A
C1309  C1311   1.397   .     A
C1309  H1355   1.074   .     S
C1310  C1315   1.423   .     A
C1310  C1312   1.407   .     A
C1311  C1316   1.423   .     A
C1311  C1314   1.407   .     A
C1312  C552    1.389   1_556 S
C1313  C1319   1.532   .     S
C1313  C1316   1.439   .     A
C1313  C1326   1.399   .     A
C1315  C1324   1.439   .     A
C1315  C542    1.434   1_556 S
C1317  H1340   1.111   .     S
C1317  H1341   1.110   .     S
C1317  H1339   1.109   .     S
C1317  C1393   1.508   .     S
C1318  H1345   1.111   .     S
C1318  H1343   1.110   .     S
C1318  H1342   1.109   .     S
C1318  C1478   1.508   1_455 S
C1319  H1351   1.113   .     S
C1319  C1320   1.537   .     S
C1319  H1352   1.103   .     S
C1320  C1321   1.527   .     S
C1320  H1350   1.112   .     S
C1320  H1349   1.109   .     S
C1321  H1348   1.110   .     S
C1321  H1346   1.111   .     S
C1321  H1347   1.111   .     S
C1322  H1360   1.113   .     S
C1322  C1324   1.532   .     S
C1322  H1359   1.103   .     S
C1322  C1323   1.537   .     S
C1323  H1357   1.112   .     S
C1323  C1325   1.527   .     S
C1323  H1358   1.109   .     S
C1324  C1327   1.399   .     A
C1325  H1354   1.111   .     S
C1325  H1356   1.110   .     S
C1325  H1353   1.111   .     S
C1326  H1333   1.085   .     S
C1327  H1344   1.085   .     S
C1327  C540    1.389   1_556 S
C1328  H1364   1.083   .     S
C1329  H1365   1.083   .     S
C1329  C776    1.383   1_565 S
C1330  H1366   1.083   .     S
C1330  C1379   1.401   .     S
C1330  C812    1.383   1_565 S
Cu1331 O1376   1.925   .     S
Cu1331 N1367   2.009   .     S
Cu1331 O1373   1.944   .     S
Cu1331 O1369   1.963   .     S
Cu1331 O1372   1.964   .     S
Cu1331 Cu1504  2.674   1_455 S
Cu1332 O1370   1.963   .     S
Cu1332 O1371   1.964   .     S
Cu1332 O1374   1.944   .     S
Cu1332 O1375   1.925   .     S
Cu1332 N1368   2.009   .     S
Cu1332 Cu1417  2.674   .     S
O1369  C1463   1.290   1_455 S
O1370  C1388   1.290   .     S
O1373  C1471   1.295   1_455 S
O1374  C1386   1.295   .     S
C1377  O1457   1.290   .     A
C1377  C1380   1.449   .     S
C1377  O1541   1.290   .     S
C1378  H1420   1.083   .     S
C1379  C1388   1.449   .     S
C1379  C1415   1.401   .     A
C1380  C1414   1.401   .     A
C1380  C1464   1.401   .     S
C1381  C1383   1.415   .     A
C1381  H1421   1.082   .     S
C1381  N1454   1.367   .     A
C1382  N1453   1.367   .     A
C1382  H1422   1.082   .     S
C1382  C1384   1.415   .     A
C1383  N1453   1.366   .     A
C1383  H1423   1.081   .     S
C1384  N1454   1.366   .     A
C1384  H1424   1.081   .     S
C1385  O1461   1.300   .     A
C1385  C1387   1.483   .     S
C1385  O1545   1.295   .     S
C1386  O1462   1.300   .     A
C1386  C1389   1.483   .     S
C1387  C1394   1.402   .     A
C1387  C1392   1.421   .     A
C1388  O1458   1.290   .     A
C1389  C1395   1.402   .     A
C1389  C1393   1.421   .     A
C1390  C1392   1.402   .     A
C1390  H1448   1.084   .     S
C1390  C1398   1.401   .     A
C1391  C1400   1.401   .     A
C1391  H1449   1.084   .     S
C1391  C1393   1.402   .     A
C1392  C1490   1.508   .     S
C1394  H1447   1.074   .     S
C1394  C1396   1.397   .     A
C1395  C1397   1.397   .     A
C1395  H1441   1.074   .     S
C1396  C1401   1.423   .     A
C1396  C1398   1.407   .     A
C1397  C1402   1.423   .     A
C1397  C1400   1.407   .     A
C1398  C638    1.389   1_556 S
C1399  C1405   1.532   .     S
C1399  C1402   1.439   .     A
C1399  C1412   1.399   .     A
C1401  C1410   1.439   .     A
C1401  C628    1.434   1_556 S
C1403  H1426   1.111   .     S
C1403  H1427   1.110   .     S
C1403  H1425   1.109   .     S
C1403  C1479   1.508   .     S
C1404  H1431   1.111   .     S
C1404  H1429   1.110   .     S
C1404  H1428   1.109   .     S
C1405  H1437   1.113   .     S
C1405  C1406   1.537   .     S
C1405  H1438   1.103   .     S
C1406  C1407   1.527   .     S
C1406  H1436   1.112   .     S
C1406  H1435   1.109   .     S
C1407  H1434   1.110   .     S
C1407  H1432   1.111   .     S
C1407  H1433   1.111   .     S
C1408  H1446   1.113   .     S
C1408  C1410   1.532   .     S
C1408  H1445   1.103   .     S
C1408  C1409   1.537   .     S
C1409  H1443   1.112   .     S
C1409  C1411   1.527   .     S
C1409  H1444   1.109   .     S
C1410  C1413   1.399   .     A
C1411  H1440   1.111   .     S
C1411  H1442   1.110   .     S
C1411  H1439   1.111   .     S
C1412  H1419   1.085   .     S
C1413  H1430   1.085   .     S
C1413  C626    1.389   1_556 S
C1414  H1450   1.083   .     S
C1415  H1451   1.083   .     S
C1415  C862    1.383   1_565 S
C1416  H1452   1.083   .     S
C1416  C1465   1.401   .     S
C1416  C898    1.383   1_565 S
Cu1417 O1462   1.925   .     S
Cu1417 N1453   2.009   .     S
Cu1417 O1459   1.944   .     S
Cu1417 O1455   1.963   .     S
Cu1417 O1458   1.964   .     S
Cu1418 O1456   1.963   .     S
Cu1418 O1457   1.964   .     S
Cu1418 O1460   1.944   .     S
Cu1418 O1461   1.925   .     S
Cu1418 N1454   2.009   .     S
Cu1418 Cu1503  2.674   .     S
O1456  C1474   1.290   .     S
O1460  C1472   1.295   .     S
C1463  O1543   1.290   .     A
C1463  C1466   1.449   .     S
C1463  O1369   1.290   1_655 S
C1464  H1506   1.083   .     S
C1465  C1474   1.449   .     S
C1465  C1501   1.401   .     A
C1466  C1500   1.401   .     A
C1466  C1292   1.401   1_655 S
C1467  C1469   1.415   .     A
C1467  H1507   1.082   .     S
C1467  N1540   1.367   .     A
C1468  N1539   1.367   .     A
C1468  H1508   1.082   .     S
C1468  C1470   1.415   .     A
C1469  N1539   1.366   .     A
C1469  H1509   1.081   .     S
C1470  N1540   1.366   .     A
C1470  H1510   1.081   .     S
C1471  O1547   1.300   .     A
C1471  C1473   1.483   .     S
C1471  O1373   1.295   1_655 S
C1472  O1548   1.300   .     A
C1472  C1475   1.483   .     S
C1473  C1480   1.402   .     A
C1473  C1478   1.421   .     A
C1474  O1544   1.290   .     A
C1475  C1481   1.402   .     A
C1475  C1479   1.421   .     A
C1476  C1478   1.402   .     A
C1476  H1534   1.084   .     S
C1476  C1484   1.401   .     A
C1477  C1486   1.401   .     A
C1477  H1535   1.084   .     S
C1477  C1479   1.402   .     A
C1478  C1318   1.508   1_655 S
C1480  H1533   1.074   .     S
C1480  C1482   1.397   .     A
C1481  C1483   1.397   .     A
C1481  H1527   1.074   .     S
C1482  C1487   1.423   .     A
C1482  C1484   1.407   .     A
C1483  C1488   1.423   .     A
C1483  C1486   1.407   .     A
C1484  C724    1.389   1_556 S
C1485  C1491   1.532   .     S
C1485  C1488   1.439   .     A
C1485  C1498   1.399   .     A
C1487  C1496   1.439   .     A
C1487  C714    1.434   1_556 S
C1489  H1512   1.111   .     S
C1489  H1513   1.110   .     S
C1489  H1511   1.109   .     S
C1489  C1307   1.508   1_655 S
C1490  H1517   1.111   .     S
C1490  H1515   1.110   .     S
C1490  H1514   1.109   .     S
C1491  H1523   1.113   .     S
C1491  C1492   1.537   .     S
C1491  H1524   1.103   .     S
C1492  C1493   1.527   .     S
C1492  H1522   1.112   .     S
C1492  H1521   1.109   .     S
C1493  H1520   1.110   .     S
C1493  H1518   1.111   .     S
C1493  H1519   1.111   .     S
C1494  H1532   1.113   .     S
C1494  C1496   1.532   .     S
C1494  H1531   1.103   .     S
C1494  C1495   1.537   .     S
C1495  H1529   1.112   .     S
C1495  C1497   1.527   .     S
C1495  H1530   1.109   .     S
C1496  C1499   1.399   .     A
C1497  H1526   1.111   .     S
C1497  H1528   1.110   .     S
C1497  H1525   1.111   .     S
C1498  H1505   1.085   .     S
C1499  H1516   1.085   .     S
C1499  C712    1.389   1_556 S
C1500  H1536   1.083   .     S
C1501  H1537   1.083   .     S
C1501  C948    1.383   1_565 S
C1502  H1538   1.083   .     S
C1502  C1293   1.401   1_655 S
C1502  C984    1.383   1_565 S
Cu1503 O1548   1.925   .     S
Cu1503 N1539   2.009   .     S
Cu1503 O1545   1.944   .     S
Cu1503 O1541   1.963   .     S
Cu1503 O1544   1.964   .     S
Cu1504 O1542   1.963   .     S
Cu1504 O1543   1.964   .     S
Cu1504 O1546   1.944   .     S
Cu1504 O1547   1.925   .     S
Cu1504 N1540   2.009   .     S
Cu1504 Cu1331  2.674   1_655 S
O1542  C1302   1.290   1_655 S
O1546  C1300   1.295   1_655 S
