data_str_m2_o1_o18_pcu_sym.96
_audit_creation_date              2020-01-03
_audit_creation_method            'Materials Studio'
_symmetry_space_group_name_H-M    'P1'
_symmetry_Int_Tables_number       1
_symmetry_cell_setting            triclinic
loop_
_symmetry_equiv_pos_as_xyz
  x,y,z
_cell_length_a                    28.5611
_cell_length_b                    32.4847
_cell_length_c                    30.9938
_cell_angle_alpha                 89.9383
_cell_angle_beta                  74.4937
_cell_angle_gamma                 90.3574
loop_
_atom_site_label
_atom_site_type_symbol
_atom_site_fract_x
_atom_site_fract_y
_atom_site_fract_z
_atom_site_U_iso_or_equiv
_atom_site_adp_type
_atom_site_occupancy
C1     C     0.00002   0.08743   0.24919   0.00000  Uiso   1.00
C2     C     0.33331   0.24590   0.25081   0.00000  Uiso   1.00
C3     C     0.19522   0.16044   0.04744   0.00000  Uiso   1.00
C4     C     0.14158   0.19204   0.45533   0.00000  Uiso   1.00
C5     C     0.24376   0.15561   0.02485   0.00000  Uiso   1.00
C6     C     0.09319   0.19762   0.47808   0.00000  Uiso   1.00
C7     C     0.30318   0.02028   0.22763   0.00000  Uiso   1.00
C8     C     0.03013   0.31305   0.27239   0.00000  Uiso   1.00
C9     C     0.30361   0.31097   0.22914   0.00000  Uiso   1.00
C10    C     0.02972   0.02236   0.27087   0.00000  Uiso   1.00
C11    C     0.00027   0.29053   0.25115   0.00000  Uiso   1.00
C12    C     0.33306   0.04279   0.24886   0.00000  Uiso   1.00
C13    C     0.18275   0.14253   0.27936   0.00000  Uiso   1.00
C14    C     0.15059   0.19080   0.22064   0.00000  Uiso   1.00
C15    C     0.13314   0.14257   0.27938   0.00000  Uiso   1.00
C16    C     0.20020   0.19076   0.22062   0.00000  Uiso   1.00
C17    C     0.30609   0.16655   0.33608   0.00000  Uiso   1.00
C18    C     0.02724   0.16724   0.16396   0.00000  Uiso   1.00
C19    C     0.29114   0.16585   0.38520   0.00000  Uiso   1.00
C20    C     0.04243   0.17154   0.11510   0.00000  Uiso   1.00
C21    C     0.30830   0.15376   0.45633   0.00000  Uiso   1.00
C22    C     0.02756   0.19436   0.04579   0.00000  Uiso   1.00
C23    C     0.32428   0.15702   0.40993   0.00000  Uiso   1.00
C24    C     0.01049   0.18601   0.09139   0.00000  Uiso   1.00
C25    C     0.24232   0.17269   0.40735   0.00000  Uiso   1.00
C26    C     0.09110   0.16460   0.09269   0.00000  Uiso   1.00
C27    C     0.22543   0.17070   0.45427   0.00000  Uiso   1.00
C28    C     0.10976   0.17437   0.04712   0.00000  Uiso   1.00
C29    C     0.25923   0.16012   0.47860   0.00000  Uiso   1.00
C30    C     0.07677   0.18867   0.02353   0.00000  Uiso   1.00
C31    C     0.17579   0.17759   0.47744   0.00000  Uiso   1.00
C32    C     0.16003   0.17041   0.02448   0.00000  Uiso   1.00
Cu33   Cu    0.04689   0.16667   0.25000   0.00000  Uiso   1.00
Cu34   Cu    0.28645   0.16666   0.25000   0.00000  Uiso   1.00
H35    H     0.11361   0.15141   0.11186   0.00000  Uiso   1.00
H36    H     0.21791   0.17832   0.38697   0.00000  Uiso   1.00
H37    H     0.30606   0.19185   0.10825   0.00000  Uiso   1.00
H38    H     0.02886   0.15149   0.39338   0.00000  Uiso   1.00
H39    H     0.00088   0.14561   0.47479   0.00000  Uiso   1.00
H40    H     0.00246   0.20608   0.02807   0.00000  Uiso   1.00
H41    H     0.28113   0.29357   0.21232   0.00000  Uiso   1.00
H42    H     0.05220   0.03975   0.28769   0.00000  Uiso   1.00
H43    H     0.19445   0.12311   0.30282   0.00000  Uiso   1.00
H44    H     0.13889   0.21021   0.19716   0.00000  Uiso   1.00
H45    H     0.10746   0.12324   0.30288   0.00000  Uiso   1.00
H46    H     0.22588   0.21008   0.19711   0.00000  Uiso   1.00
N47    N     0.11736   0.16668   0.24999   0.00000  Uiso   1.00
N48    N     0.21597   0.16666   0.25001   0.00000  Uiso   1.00
O49    O     0.03958   0.10655   0.25000   0.00000  Uiso   1.00
O50    O     0.29375   0.22678   0.25000   0.00000  Uiso   1.00
O51    O     0.29372   0.10654   0.25000   0.00000  Uiso   1.00
O52    O     0.03961   0.22679   0.25000   0.00000  Uiso   1.00
O53    O     0.01852   0.16668   0.31492   0.00000  Uiso   1.00
O54    O     0.31481   0.16666   0.18508   0.00000  Uiso   1.00
O55    O     0.27267   0.16667   0.31492   0.00000  Uiso   1.00
O56    O     0.06067   0.16667   0.18508   0.00000  Uiso   1.00
H57    H     0.26933   0.14776   0.04381   0.00000  Uiso   1.00
H58    H     0.06837   0.20900   0.45984   0.00000  Uiso   1.00
H59    H     0.18686   0.15707   0.08324   0.00000  Uiso   1.00
H60    H     0.15111   0.20060   0.42050   0.00000  Uiso   1.00
C61    C     0.27319   0.03982   0.20273   0.00000  Uiso   1.00
N62    N     0.24918   0.05545   0.18281   0.00000  Uiso   1.00
C63    C     0.06008   0.29350   0.29733   0.00000  Uiso   1.00
N64    N     0.08405   0.27786   0.31729   0.00000  Uiso   1.00
C65    C     0.33336   0.08743   0.24919   0.00000  Uiso   1.00
C66    C     0.66664   0.24590   0.25081   0.00000  Uiso   1.00
C67    C     0.52855   0.16044   0.04744   0.00000  Uiso   1.00
C68    C     0.47492   0.19204   0.45533   0.00000  Uiso   1.00
C69    C     0.57710   0.15561   0.02485   0.00000  Uiso   1.00
C70    C     0.42653   0.19762   0.47808   0.00000  Uiso   1.00
C71    C     0.63652   0.02028   0.22763   0.00000  Uiso   1.00
C72    C     0.36347   0.31305   0.27239   0.00000  Uiso   1.00
C73    C     0.63695   0.31097   0.22914   0.00000  Uiso   1.00
C74    C     0.36305   0.02236   0.27087   0.00000  Uiso   1.00
C75    C     0.33360   0.29053   0.25115   0.00000  Uiso   1.00
C76    C     0.66639   0.04279   0.24886   0.00000  Uiso   1.00
C77    C     0.51608   0.14253   0.27936   0.00000  Uiso   1.00
C78    C     0.48392   0.19080   0.22064   0.00000  Uiso   1.00
C79    C     0.46647   0.14257   0.27938   0.00000  Uiso   1.00
C80    C     0.53353   0.19076   0.22062   0.00000  Uiso   1.00
C81    C     0.63943   0.16655   0.33608   0.00000  Uiso   1.00
C82    C     0.36058   0.16724   0.16396   0.00000  Uiso   1.00
C83    C     0.62447   0.16585   0.38520   0.00000  Uiso   1.00
C84    C     0.37576   0.17154   0.11510   0.00000  Uiso   1.00
C85    C     0.64163   0.15376   0.45633   0.00000  Uiso   1.00
C86    C     0.36090   0.19436   0.04579   0.00000  Uiso   1.00
C87    C     0.65762   0.15702   0.40993   0.00000  Uiso   1.00
C88    C     0.34382   0.18601   0.09139   0.00000  Uiso   1.00
C89    C     0.57565   0.17269   0.40735   0.00000  Uiso   1.00
C90    C     0.42444   0.16460   0.09269   0.00000  Uiso   1.00
C91    C     0.55876   0.17070   0.45427   0.00000  Uiso   1.00
C92    C     0.44309   0.17437   0.04712   0.00000  Uiso   1.00
C93    C     0.59256   0.16012   0.47860   0.00000  Uiso   1.00
C94    C     0.41010   0.18867   0.02353   0.00000  Uiso   1.00
C95    C     0.50912   0.17759   0.47744   0.00000  Uiso   1.00
C96    C     0.49336   0.17041   0.02448   0.00000  Uiso   1.00
Cu97   Cu    0.38022   0.16667   0.25000   0.00000  Uiso   1.00
Cu98   Cu    0.61978   0.16666   0.25000   0.00000  Uiso   1.00
H99    H     0.44695   0.15141   0.11186   0.00000  Uiso   1.00
H100   H     0.55125   0.17832   0.38697   0.00000  Uiso   1.00
H101   H     0.63940   0.19185   0.10825   0.00000  Uiso   1.00
H102   H     0.36219   0.15149   0.39338   0.00000  Uiso   1.00
H103   H     0.33421   0.14561   0.47479   0.00000  Uiso   1.00
H104   H     0.33580   0.20608   0.02807   0.00000  Uiso   1.00
H105   H     0.61447   0.29357   0.21232   0.00000  Uiso   1.00
H106   H     0.38553   0.03975   0.28769   0.00000  Uiso   1.00
H107   H     0.52778   0.12311   0.30282   0.00000  Uiso   1.00
H108   H     0.47222   0.21021   0.19716   0.00000  Uiso   1.00
H109   H     0.44079   0.12324   0.30288   0.00000  Uiso   1.00
H110   H     0.55921   0.21008   0.19711   0.00000  Uiso   1.00
N111   N     0.45069   0.16668   0.24999   0.00000  Uiso   1.00
N112   N     0.54931   0.16666   0.25001   0.00000  Uiso   1.00
O113   O     0.37291   0.10655   0.25000   0.00000  Uiso   1.00
O114   O     0.62709   0.22678   0.25000   0.00000  Uiso   1.00
O115   O     0.62706   0.10654   0.25000   0.00000  Uiso   1.00
O116   O     0.37294   0.22679   0.25000   0.00000  Uiso   1.00
O117   O     0.35186   0.16668   0.31492   0.00000  Uiso   1.00
O118   O     0.64814   0.16666   0.18508   0.00000  Uiso   1.00
O119   O     0.60600   0.16667   0.31492   0.00000  Uiso   1.00
O120   O     0.39400   0.16667   0.18508   0.00000  Uiso   1.00
H121   H     0.60266   0.14776   0.04381   0.00000  Uiso   1.00
H122   H     0.40170   0.20900   0.45984   0.00000  Uiso   1.00
H123   H     0.52020   0.15707   0.08324   0.00000  Uiso   1.00
H124   H     0.48444   0.20060   0.42050   0.00000  Uiso   1.00
C125   C     0.60653   0.03982   0.20273   0.00000  Uiso   1.00
N126   N     0.58251   0.05545   0.18281   0.00000  Uiso   1.00
C127   C     0.39341   0.29350   0.29733   0.00000  Uiso   1.00
N128   N     0.41739   0.27786   0.31729   0.00000  Uiso   1.00
C129   C     0.66669   0.08743   0.24919   0.00000  Uiso   1.00
C130   C     0.99998   0.24590   0.25081   0.00000  Uiso   1.00
C131   C     0.86188   0.16044   0.04744   0.00000  Uiso   1.00
C132   C     0.80825   0.19204   0.45533   0.00000  Uiso   1.00
C133   C     0.91043   0.15561   0.02485   0.00000  Uiso   1.00
C134   C     0.75986   0.19762   0.47808   0.00000  Uiso   1.00
C135   C     0.96985   0.02028   0.22763   0.00000  Uiso   1.00
C136   C     0.69680   0.31305   0.27239   0.00000  Uiso   1.00
C137   C     0.97028   0.31097   0.22914   0.00000  Uiso   1.00
C138   C     0.69638   0.02236   0.27087   0.00000  Uiso   1.00
C139   C     0.66694   0.29053   0.25115   0.00000  Uiso   1.00
C140   C     0.99973   0.04279   0.24886   0.00000  Uiso   1.00
C141   C     0.84941   0.14253   0.27936   0.00000  Uiso   1.00
C142   C     0.81726   0.19080   0.22064   0.00000  Uiso   1.00
C143   C     0.79980   0.14257   0.27938   0.00000  Uiso   1.00
C144   C     0.86686   0.19076   0.22062   0.00000  Uiso   1.00
C145   C     0.97276   0.16655   0.33608   0.00000  Uiso   1.00
C146   C     0.69391   0.16724   0.16396   0.00000  Uiso   1.00
C147   C     0.95780   0.16585   0.38520   0.00000  Uiso   1.00
C148   C     0.70910   0.17154   0.11510   0.00000  Uiso   1.00
C149   C     0.97497   0.15376   0.45633   0.00000  Uiso   1.00
C150   C     0.69423   0.19436   0.04579   0.00000  Uiso   1.00
C151   C     0.99095   0.15702   0.40993   0.00000  Uiso   1.00
C152   C     0.67715   0.18601   0.09139   0.00000  Uiso   1.00
C153   C     0.90899   0.17269   0.40735   0.00000  Uiso   1.00
C154   C     0.75777   0.16460   0.09269   0.00000  Uiso   1.00
C155   C     0.89209   0.17070   0.45427   0.00000  Uiso   1.00
C156   C     0.77642   0.17437   0.04712   0.00000  Uiso   1.00
C157   C     0.92589   0.16012   0.47860   0.00000  Uiso   1.00
C158   C     0.74344   0.18867   0.02353   0.00000  Uiso   1.00
C159   C     0.84246   0.17759   0.47744   0.00000  Uiso   1.00
C160   C     0.82670   0.17041   0.02448   0.00000  Uiso   1.00
Cu161  Cu    0.71355   0.16667   0.25000   0.00000  Uiso   1.00
Cu162  Cu    0.95311   0.16666   0.25000   0.00000  Uiso   1.00
H163   H     0.78028   0.15141   0.11186   0.00000  Uiso   1.00
H164   H     0.88458   0.17832   0.38697   0.00000  Uiso   1.00
H165   H     0.97273   0.19185   0.10825   0.00000  Uiso   1.00
H166   H     0.69553   0.15149   0.39338   0.00000  Uiso   1.00
H167   H     0.66755   0.14561   0.47479   0.00000  Uiso   1.00
H168   H     0.66913   0.20608   0.02807   0.00000  Uiso   1.00
H169   H     0.94780   0.29357   0.21232   0.00000  Uiso   1.00
H170   H     0.71886   0.03975   0.28769   0.00000  Uiso   1.00
H171   H     0.86112   0.12311   0.30282   0.00000  Uiso   1.00
H172   H     0.80556   0.21021   0.19716   0.00000  Uiso   1.00
H173   H     0.77413   0.12324   0.30288   0.00000  Uiso   1.00
H174   H     0.89254   0.21008   0.19711   0.00000  Uiso   1.00
N175   N     0.78403   0.16668   0.24999   0.00000  Uiso   1.00
N176   N     0.88264   0.16666   0.25001   0.00000  Uiso   1.00
O177   O     0.70625   0.10655   0.25000   0.00000  Uiso   1.00
O178   O     0.96042   0.22678   0.25000   0.00000  Uiso   1.00
O179   O     0.96039   0.10654   0.25000   0.00000  Uiso   1.00
O180   O     0.70628   0.22679   0.25000   0.00000  Uiso   1.00
O181   O     0.68519   0.16668   0.31492   0.00000  Uiso   1.00
O182   O     0.98148   0.16666   0.18508   0.00000  Uiso   1.00
O183   O     0.93933   0.16667   0.31492   0.00000  Uiso   1.00
O184   O     0.72733   0.16667   0.18508   0.00000  Uiso   1.00
H185   H     0.93599   0.14776   0.04381   0.00000  Uiso   1.00
H186   H     0.73504   0.20900   0.45984   0.00000  Uiso   1.00
H187   H     0.85353   0.15707   0.08324   0.00000  Uiso   1.00
H188   H     0.81778   0.20060   0.42050   0.00000  Uiso   1.00
C189   C     0.93986   0.03982   0.20273   0.00000  Uiso   1.00
N190   N     0.91585   0.05545   0.18281   0.00000  Uiso   1.00
C191   C     0.72675   0.29350   0.29733   0.00000  Uiso   1.00
N192   N     0.75072   0.27786   0.31729   0.00000  Uiso   1.00
C193   C     0.00002   0.42076   0.24919   0.00000  Uiso   1.00
C194   C     0.33331   0.57924   0.25081   0.00000  Uiso   1.00
C195   C     0.19522   0.49378   0.04744   0.00000  Uiso   1.00
C196   C     0.14158   0.52537   0.45533   0.00000  Uiso   1.00
C197   C     0.24376   0.48895   0.02485   0.00000  Uiso   1.00
C198   C     0.09319   0.53095   0.47808   0.00000  Uiso   1.00
C199   C     0.30318   0.35361   0.22763   0.00000  Uiso   1.00
C200   C     0.03013   0.64638   0.27239   0.00000  Uiso   1.00
C201   C     0.30361   0.64430   0.22914   0.00000  Uiso   1.00
C202   C     0.02972   0.35569   0.27087   0.00000  Uiso   1.00
C203   C     0.00027   0.62387   0.25115   0.00000  Uiso   1.00
C204   C     0.33306   0.37613   0.24886   0.00000  Uiso   1.00
C205   C     0.18275   0.47586   0.27936   0.00000  Uiso   1.00
C206   C     0.15059   0.52413   0.22064   0.00000  Uiso   1.00
C207   C     0.13314   0.47590   0.27938   0.00000  Uiso   1.00
C208   C     0.20020   0.52409   0.22062   0.00000  Uiso   1.00
C209   C     0.30609   0.49989   0.33608   0.00000  Uiso   1.00
C210   C     0.02724   0.50058   0.16396   0.00000  Uiso   1.00
C211   C     0.29114   0.49918   0.38520   0.00000  Uiso   1.00
C212   C     0.04243   0.50487   0.11510   0.00000  Uiso   1.00
C213   C     0.30830   0.48709   0.45633   0.00000  Uiso   1.00
C214   C     0.02756   0.52770   0.04579   0.00000  Uiso   1.00
C215   C     0.32428   0.49035   0.40993   0.00000  Uiso   1.00
C216   C     0.01049   0.51934   0.09139   0.00000  Uiso   1.00
C217   C     0.24232   0.50603   0.40735   0.00000  Uiso   1.00
C218   C     0.09110   0.49793   0.09269   0.00000  Uiso   1.00
C219   C     0.22543   0.50404   0.45427   0.00000  Uiso   1.00
C220   C     0.10976   0.50771   0.04712   0.00000  Uiso   1.00
C221   C     0.25923   0.49346   0.47860   0.00000  Uiso   1.00
C222   C     0.07677   0.52201   0.02353   0.00000  Uiso   1.00
C223   C     0.17579   0.51093   0.47744   0.00000  Uiso   1.00
C224   C     0.16003   0.50374   0.02448   0.00000  Uiso   1.00
Cu225  Cu    0.04689   0.50001   0.25000   0.00000  Uiso   1.00
Cu226  Cu    0.28645   0.49999   0.25000   0.00000  Uiso   1.00
H227   H     0.11361   0.48474   0.11186   0.00000  Uiso   1.00
H228   H     0.21791   0.51165   0.38697   0.00000  Uiso   1.00
H229   H     0.30606   0.52518   0.10825   0.00000  Uiso   1.00
H230   H     0.02886   0.48483   0.39338   0.00000  Uiso   1.00
H231   H     0.00088   0.47894   0.47479   0.00000  Uiso   1.00
H232   H     0.00246   0.53941   0.02807   0.00000  Uiso   1.00
H233   H     0.28113   0.62691   0.21232   0.00000  Uiso   1.00
H234   H     0.05220   0.37309   0.28769   0.00000  Uiso   1.00
H235   H     0.19445   0.45645   0.30282   0.00000  Uiso   1.00
H236   H     0.13889   0.54354   0.19716   0.00000  Uiso   1.00
H237   H     0.10746   0.45657   0.30288   0.00000  Uiso   1.00
H238   H     0.22588   0.54342   0.19711   0.00000  Uiso   1.00
N239   N     0.11736   0.50001   0.24999   0.00000  Uiso   1.00
N240   N     0.21597   0.49999   0.25001   0.00000  Uiso   1.00
O241   O     0.03958   0.43989   0.25000   0.00000  Uiso   1.00
O242   O     0.29375   0.56011   0.25000   0.00000  Uiso   1.00
O243   O     0.29372   0.43988   0.25000   0.00000  Uiso   1.00
O244   O     0.03961   0.56012   0.25000   0.00000  Uiso   1.00
O245   O     0.01852   0.50001   0.31492   0.00000  Uiso   1.00
O246   O     0.31481   0.49999   0.18508   0.00000  Uiso   1.00
O247   O     0.27267   0.50000   0.31492   0.00000  Uiso   1.00
O248   O     0.06067   0.50000   0.18508   0.00000  Uiso   1.00
H249   H     0.26933   0.48109   0.04381   0.00000  Uiso   1.00
H250   H     0.06837   0.54234   0.45984   0.00000  Uiso   1.00
H251   H     0.18686   0.49040   0.08324   0.00000  Uiso   1.00
H252   H     0.15111   0.53393   0.42050   0.00000  Uiso   1.00
C253   C     0.27319   0.37316   0.20273   0.00000  Uiso   1.00
N254   N     0.24918   0.38879   0.18281   0.00000  Uiso   1.00
C255   C     0.06008   0.62683   0.29733   0.00000  Uiso   1.00
N256   N     0.08405   0.61119   0.31729   0.00000  Uiso   1.00
C257   C     0.33336   0.42076   0.24919   0.00000  Uiso   1.00
C258   C     0.66664   0.57924   0.25081   0.00000  Uiso   1.00
C259   C     0.52855   0.49378   0.04744   0.00000  Uiso   1.00
C260   C     0.47492   0.52537   0.45533   0.00000  Uiso   1.00
C261   C     0.57710   0.48895   0.02485   0.00000  Uiso   1.00
C262   C     0.42653   0.53095   0.47808   0.00000  Uiso   1.00
C263   C     0.63652   0.35361   0.22763   0.00000  Uiso   1.00
C264   C     0.36347   0.64638   0.27239   0.00000  Uiso   1.00
C265   C     0.63695   0.64430   0.22914   0.00000  Uiso   1.00
C266   C     0.36305   0.35569   0.27087   0.00000  Uiso   1.00
C267   C     0.33360   0.62387   0.25115   0.00000  Uiso   1.00
C268   C     0.66639   0.37613   0.24886   0.00000  Uiso   1.00
C269   C     0.51608   0.47586   0.27936   0.00000  Uiso   1.00
C270   C     0.48392   0.52413   0.22064   0.00000  Uiso   1.00
C271   C     0.46647   0.47590   0.27938   0.00000  Uiso   1.00
C272   C     0.53353   0.52409   0.22062   0.00000  Uiso   1.00
C273   C     0.63943   0.49989   0.33608   0.00000  Uiso   1.00
C274   C     0.36058   0.50058   0.16396   0.00000  Uiso   1.00
C275   C     0.62447   0.49918   0.38520   0.00000  Uiso   1.00
C276   C     0.37576   0.50487   0.11510   0.00000  Uiso   1.00
C277   C     0.64163   0.48709   0.45633   0.00000  Uiso   1.00
C278   C     0.36090   0.52770   0.04579   0.00000  Uiso   1.00
C279   C     0.65762   0.49035   0.40993   0.00000  Uiso   1.00
C280   C     0.34382   0.51934   0.09139   0.00000  Uiso   1.00
C281   C     0.57565   0.50603   0.40735   0.00000  Uiso   1.00
C282   C     0.42444   0.49793   0.09269   0.00000  Uiso   1.00
C283   C     0.55876   0.50404   0.45427   0.00000  Uiso   1.00
C284   C     0.44309   0.50771   0.04712   0.00000  Uiso   1.00
C285   C     0.59256   0.49346   0.47860   0.00000  Uiso   1.00
C286   C     0.41010   0.52201   0.02353   0.00000  Uiso   1.00
C287   C     0.50912   0.51093   0.47744   0.00000  Uiso   1.00
C288   C     0.49336   0.50374   0.02448   0.00000  Uiso   1.00
Cu289  Cu    0.38022   0.50001   0.25000   0.00000  Uiso   1.00
Cu290  Cu    0.61978   0.49999   0.25000   0.00000  Uiso   1.00
H291   H     0.44695   0.48474   0.11186   0.00000  Uiso   1.00
H292   H     0.55125   0.51165   0.38697   0.00000  Uiso   1.00
H293   H     0.63940   0.52518   0.10825   0.00000  Uiso   1.00
H294   H     0.36219   0.48483   0.39338   0.00000  Uiso   1.00
H295   H     0.33421   0.47894   0.47479   0.00000  Uiso   1.00
H296   H     0.33580   0.53941   0.02807   0.00000  Uiso   1.00
H297   H     0.61447   0.62691   0.21232   0.00000  Uiso   1.00
H298   H     0.38553   0.37309   0.28769   0.00000  Uiso   1.00
H299   H     0.52778   0.45645   0.30282   0.00000  Uiso   1.00
H300   H     0.47222   0.54354   0.19716   0.00000  Uiso   1.00
H301   H     0.44079   0.45657   0.30288   0.00000  Uiso   1.00
H302   H     0.55921   0.54342   0.19711   0.00000  Uiso   1.00
N303   N     0.45069   0.50001   0.24999   0.00000  Uiso   1.00
N304   N     0.54931   0.49999   0.25001   0.00000  Uiso   1.00
O305   O     0.37291   0.43989   0.25000   0.00000  Uiso   1.00
O306   O     0.62709   0.56011   0.25000   0.00000  Uiso   1.00
O307   O     0.62706   0.43988   0.25000   0.00000  Uiso   1.00
O308   O     0.37294   0.56012   0.25000   0.00000  Uiso   1.00
O309   O     0.35186   0.50001   0.31492   0.00000  Uiso   1.00
O310   O     0.64814   0.49999   0.18508   0.00000  Uiso   1.00
O311   O     0.60600   0.50000   0.31492   0.00000  Uiso   1.00
O312   O     0.39400   0.50000   0.18508   0.00000  Uiso   1.00
H313   H     0.60266   0.48109   0.04381   0.00000  Uiso   1.00
H314   H     0.40170   0.54234   0.45984   0.00000  Uiso   1.00
H315   H     0.52020   0.49040   0.08324   0.00000  Uiso   1.00
H316   H     0.48444   0.53393   0.42050   0.00000  Uiso   1.00
C317   C     0.60653   0.37316   0.20273   0.00000  Uiso   1.00
N318   N     0.58251   0.38879   0.18281   0.00000  Uiso   1.00
C319   C     0.39341   0.62683   0.29733   0.00000  Uiso   1.00
N320   N     0.41739   0.61119   0.31729   0.00000  Uiso   1.00
C321   C     0.66669   0.42076   0.24919   0.00000  Uiso   1.00
C322   C     0.99998   0.57924   0.25081   0.00000  Uiso   1.00
C323   C     0.86188   0.49378   0.04744   0.00000  Uiso   1.00
C324   C     0.80825   0.52537   0.45533   0.00000  Uiso   1.00
C325   C     0.91043   0.48895   0.02485   0.00000  Uiso   1.00
C326   C     0.75986   0.53095   0.47808   0.00000  Uiso   1.00
C327   C     0.96985   0.35361   0.22763   0.00000  Uiso   1.00
C328   C     0.69680   0.64638   0.27239   0.00000  Uiso   1.00
C329   C     0.97028   0.64430   0.22914   0.00000  Uiso   1.00
C330   C     0.69638   0.35569   0.27087   0.00000  Uiso   1.00
C331   C     0.66694   0.62387   0.25115   0.00000  Uiso   1.00
C332   C     0.99973   0.37613   0.24886   0.00000  Uiso   1.00
C333   C     0.84941   0.47586   0.27936   0.00000  Uiso   1.00
C334   C     0.81726   0.52413   0.22064   0.00000  Uiso   1.00
C335   C     0.79980   0.47590   0.27938   0.00000  Uiso   1.00
C336   C     0.86686   0.52409   0.22062   0.00000  Uiso   1.00
C337   C     0.97276   0.49989   0.33608   0.00000  Uiso   1.00
C338   C     0.69391   0.50058   0.16396   0.00000  Uiso   1.00
C339   C     0.95780   0.49918   0.38520   0.00000  Uiso   1.00
C340   C     0.70910   0.50487   0.11510   0.00000  Uiso   1.00
C341   C     0.97497   0.48709   0.45633   0.00000  Uiso   1.00
C342   C     0.69423   0.52770   0.04579   0.00000  Uiso   1.00
C343   C     0.99095   0.49035   0.40993   0.00000  Uiso   1.00
C344   C     0.67715   0.51934   0.09139   0.00000  Uiso   1.00
C345   C     0.90899   0.50603   0.40735   0.00000  Uiso   1.00
C346   C     0.75777   0.49793   0.09269   0.00000  Uiso   1.00
C347   C     0.89209   0.50404   0.45427   0.00000  Uiso   1.00
C348   C     0.77642   0.50771   0.04712   0.00000  Uiso   1.00
C349   C     0.92589   0.49346   0.47860   0.00000  Uiso   1.00
C350   C     0.74344   0.52201   0.02353   0.00000  Uiso   1.00
C351   C     0.84246   0.51093   0.47744   0.00000  Uiso   1.00
C352   C     0.82670   0.50374   0.02448   0.00000  Uiso   1.00
Cu353  Cu    0.71355   0.50001   0.25000   0.00000  Uiso   1.00
Cu354  Cu    0.95311   0.49999   0.25000   0.00000  Uiso   1.00
H355   H     0.78028   0.48474   0.11186   0.00000  Uiso   1.00
H356   H     0.88458   0.51165   0.38697   0.00000  Uiso   1.00
H357   H     0.97273   0.52518   0.10825   0.00000  Uiso   1.00
H358   H     0.69553   0.48483   0.39338   0.00000  Uiso   1.00
H359   H     0.66755   0.47894   0.47479   0.00000  Uiso   1.00
H360   H     0.66913   0.53941   0.02807   0.00000  Uiso   1.00
H361   H     0.94780   0.62691   0.21232   0.00000  Uiso   1.00
H362   H     0.71886   0.37309   0.28769   0.00000  Uiso   1.00
H363   H     0.86112   0.45645   0.30282   0.00000  Uiso   1.00
H364   H     0.80556   0.54354   0.19716   0.00000  Uiso   1.00
H365   H     0.77413   0.45657   0.30288   0.00000  Uiso   1.00
H366   H     0.89254   0.54342   0.19711   0.00000  Uiso   1.00
N367   N     0.78403   0.50001   0.24999   0.00000  Uiso   1.00
N368   N     0.88264   0.49999   0.25001   0.00000  Uiso   1.00
O369   O     0.70625   0.43989   0.25000   0.00000  Uiso   1.00
O370   O     0.96042   0.56011   0.25000   0.00000  Uiso   1.00
O371   O     0.96039   0.43988   0.25000   0.00000  Uiso   1.00
O372   O     0.70628   0.56012   0.25000   0.00000  Uiso   1.00
O373   O     0.68519   0.50001   0.31492   0.00000  Uiso   1.00
O374   O     0.98148   0.49999   0.18508   0.00000  Uiso   1.00
O375   O     0.93933   0.50000   0.31492   0.00000  Uiso   1.00
O376   O     0.72733   0.50000   0.18508   0.00000  Uiso   1.00
H377   H     0.93599   0.48109   0.04381   0.00000  Uiso   1.00
H378   H     0.73504   0.54234   0.45984   0.00000  Uiso   1.00
H379   H     0.85353   0.49040   0.08324   0.00000  Uiso   1.00
H380   H     0.81778   0.53393   0.42050   0.00000  Uiso   1.00
C381   C     0.93986   0.37316   0.20273   0.00000  Uiso   1.00
N382   N     0.91585   0.38879   0.18281   0.00000  Uiso   1.00
C383   C     0.72675   0.62683   0.29733   0.00000  Uiso   1.00
N384   N     0.75072   0.61119   0.31729   0.00000  Uiso   1.00
C385   C     0.00002   0.75409   0.24919   0.00000  Uiso   1.00
C386   C     0.33331   0.91257   0.25081   0.00000  Uiso   1.00
C387   C     0.19522   0.82711   0.04744   0.00000  Uiso   1.00
C388   C     0.14158   0.85870   0.45533   0.00000  Uiso   1.00
C389   C     0.24376   0.82228   0.02485   0.00000  Uiso   1.00
C390   C     0.09319   0.86429   0.47808   0.00000  Uiso   1.00
C391   C     0.30318   0.68695   0.22763   0.00000  Uiso   1.00
C392   C     0.03013   0.97971   0.27239   0.00000  Uiso   1.00
C393   C     0.30361   0.97763   0.22914   0.00000  Uiso   1.00
C394   C     0.02972   0.68903   0.27087   0.00000  Uiso   1.00
C395   C     0.00027   0.95720   0.25115   0.00000  Uiso   1.00
C396   C     0.33306   0.70946   0.24886   0.00000  Uiso   1.00
C397   C     0.18275   0.80919   0.27936   0.00000  Uiso   1.00
C398   C     0.15059   0.85747   0.22064   0.00000  Uiso   1.00
C399   C     0.13314   0.80924   0.27938   0.00000  Uiso   1.00
C400   C     0.20020   0.85742   0.22062   0.00000  Uiso   1.00
C401   C     0.30609   0.83322   0.33608   0.00000  Uiso   1.00
C402   C     0.02724   0.83391   0.16396   0.00000  Uiso   1.00
C403   C     0.29114   0.83251   0.38520   0.00000  Uiso   1.00
C404   C     0.04243   0.83820   0.11510   0.00000  Uiso   1.00
C405   C     0.30830   0.82043   0.45633   0.00000  Uiso   1.00
C406   C     0.02756   0.86103   0.04579   0.00000  Uiso   1.00
C407   C     0.32428   0.82368   0.40993   0.00000  Uiso   1.00
C408   C     0.01049   0.85267   0.09139   0.00000  Uiso   1.00
C409   C     0.24232   0.83936   0.40735   0.00000  Uiso   1.00
C410   C     0.09110   0.83126   0.09269   0.00000  Uiso   1.00
C411   C     0.22543   0.83737   0.45427   0.00000  Uiso   1.00
C412   C     0.10976   0.84104   0.04712   0.00000  Uiso   1.00
C413   C     0.25923   0.82679   0.47860   0.00000  Uiso   1.00
C414   C     0.07677   0.85534   0.02353   0.00000  Uiso   1.00
C415   C     0.17579   0.84426   0.47744   0.00000  Uiso   1.00
C416   C     0.16003   0.83707   0.02448   0.00000  Uiso   1.00
Cu417  Cu    0.04689   0.83334   0.25000   0.00000  Uiso   1.00
Cu418  Cu    0.28645   0.83333   0.25000   0.00000  Uiso   1.00
H419   H     0.11361   0.81807   0.11186   0.00000  Uiso   1.00
H420   H     0.21791   0.84499   0.38697   0.00000  Uiso   1.00
H421   H     0.30606   0.85851   0.10825   0.00000  Uiso   1.00
H422   H     0.02886   0.81816   0.39338   0.00000  Uiso   1.00
H423   H     0.00088   0.81228   0.47479   0.00000  Uiso   1.00
H424   H     0.00246   0.87274   0.02807   0.00000  Uiso   1.00
H425   H     0.28113   0.96024   0.21232   0.00000  Uiso   1.00
H426   H     0.05220   0.70642   0.28769   0.00000  Uiso   1.00
H427   H     0.19445   0.78978   0.30282   0.00000  Uiso   1.00
H428   H     0.13889   0.87687   0.19716   0.00000  Uiso   1.00
H429   H     0.10746   0.78991   0.30288   0.00000  Uiso   1.00
H430   H     0.22588   0.87675   0.19711   0.00000  Uiso   1.00
N431   N     0.11736   0.83334   0.24999   0.00000  Uiso   1.00
N432   N     0.21597   0.83332   0.25001   0.00000  Uiso   1.00
O433   O     0.03958   0.77322   0.25000   0.00000  Uiso   1.00
O434   O     0.29375   0.89345   0.25000   0.00000  Uiso   1.00
O435   O     0.29372   0.77321   0.25000   0.00000  Uiso   1.00
O436   O     0.03961   0.89346   0.25000   0.00000  Uiso   1.00
O437   O     0.01852   0.83334   0.31492   0.00000  Uiso   1.00
O438   O     0.31481   0.83332   0.18508   0.00000  Uiso   1.00
O439   O     0.27267   0.83333   0.31492   0.00000  Uiso   1.00
O440   O     0.06067   0.83333   0.18508   0.00000  Uiso   1.00
H441   H     0.26933   0.81442   0.04381   0.00000  Uiso   1.00
H442   H     0.06837   0.87567   0.45984   0.00000  Uiso   1.00
H443   H     0.18686   0.82373   0.08324   0.00000  Uiso   1.00
H444   H     0.15111   0.86727   0.42050   0.00000  Uiso   1.00
C445   C     0.27319   0.70649   0.20273   0.00000  Uiso   1.00
N446   N     0.24918   0.72212   0.18281   0.00000  Uiso   1.00
C447   C     0.06008   0.96016   0.29733   0.00000  Uiso   1.00
N448   N     0.08405   0.94453   0.31729   0.00000  Uiso   1.00
C449   C     0.33336   0.75409   0.24919   0.00000  Uiso   1.00
C450   C     0.66664   0.91257   0.25081   0.00000  Uiso   1.00
C451   C     0.52855   0.82711   0.04744   0.00000  Uiso   1.00
C452   C     0.47492   0.85870   0.45533   0.00000  Uiso   1.00
C453   C     0.57710   0.82228   0.02485   0.00000  Uiso   1.00
C454   C     0.42653   0.86429   0.47808   0.00000  Uiso   1.00
C455   C     0.63652   0.68695   0.22763   0.00000  Uiso   1.00
C456   C     0.36347   0.97971   0.27239   0.00000  Uiso   1.00
C457   C     0.63695   0.97763   0.22914   0.00000  Uiso   1.00
C458   C     0.36305   0.68903   0.27087   0.00000  Uiso   1.00
C459   C     0.33360   0.95720   0.25115   0.00000  Uiso   1.00
C460   C     0.66639   0.70946   0.24886   0.00000  Uiso   1.00
C461   C     0.51608   0.80919   0.27936   0.00000  Uiso   1.00
C462   C     0.48392   0.85747   0.22064   0.00000  Uiso   1.00
C463   C     0.46647   0.80924   0.27938   0.00000  Uiso   1.00
C464   C     0.53353   0.85742   0.22062   0.00000  Uiso   1.00
C465   C     0.63943   0.83322   0.33608   0.00000  Uiso   1.00
C466   C     0.36058   0.83391   0.16396   0.00000  Uiso   1.00
C467   C     0.62447   0.83251   0.38520   0.00000  Uiso   1.00
C468   C     0.37576   0.83820   0.11510   0.00000  Uiso   1.00
C469   C     0.64163   0.82043   0.45633   0.00000  Uiso   1.00
C470   C     0.36090   0.86103   0.04579   0.00000  Uiso   1.00
C471   C     0.65762   0.82368   0.40993   0.00000  Uiso   1.00
C472   C     0.34382   0.85267   0.09139   0.00000  Uiso   1.00
C473   C     0.57565   0.83936   0.40735   0.00000  Uiso   1.00
C474   C     0.42444   0.83126   0.09269   0.00000  Uiso   1.00
C475   C     0.55876   0.83737   0.45427   0.00000  Uiso   1.00
C476   C     0.44309   0.84104   0.04712   0.00000  Uiso   1.00
C477   C     0.59256   0.82679   0.47860   0.00000  Uiso   1.00
C478   C     0.41010   0.85534   0.02353   0.00000  Uiso   1.00
C479   C     0.50912   0.84426   0.47744   0.00000  Uiso   1.00
C480   C     0.49336   0.83707   0.02448   0.00000  Uiso   1.00
Cu481  Cu    0.38022   0.83334   0.25000   0.00000  Uiso   1.00
Cu482  Cu    0.61978   0.83333   0.25000   0.00000  Uiso   1.00
H483   H     0.44695   0.81807   0.11186   0.00000  Uiso   1.00
H484   H     0.55125   0.84499   0.38697   0.00000  Uiso   1.00
H485   H     0.63940   0.85851   0.10825   0.00000  Uiso   1.00
H486   H     0.36219   0.81816   0.39338   0.00000  Uiso   1.00
H487   H     0.33421   0.81228   0.47479   0.00000  Uiso   1.00
H488   H     0.33580   0.87274   0.02807   0.00000  Uiso   1.00
H489   H     0.61447   0.96024   0.21232   0.00000  Uiso   1.00
H490   H     0.38553   0.70642   0.28769   0.00000  Uiso   1.00
H491   H     0.52778   0.78978   0.30282   0.00000  Uiso   1.00
H492   H     0.47222   0.87687   0.19716   0.00000  Uiso   1.00
H493   H     0.44079   0.78991   0.30288   0.00000  Uiso   1.00
H494   H     0.55921   0.87675   0.19711   0.00000  Uiso   1.00
N495   N     0.45069   0.83334   0.24999   0.00000  Uiso   1.00
N496   N     0.54931   0.83332   0.25001   0.00000  Uiso   1.00
O497   O     0.37291   0.77322   0.25000   0.00000  Uiso   1.00
O498   O     0.62709   0.89345   0.25000   0.00000  Uiso   1.00
O499   O     0.62706   0.77321   0.25000   0.00000  Uiso   1.00
O500   O     0.37294   0.89346   0.25000   0.00000  Uiso   1.00
O501   O     0.35186   0.83334   0.31492   0.00000  Uiso   1.00
O502   O     0.64814   0.83332   0.18508   0.00000  Uiso   1.00
O503   O     0.60600   0.83333   0.31492   0.00000  Uiso   1.00
O504   O     0.39400   0.83333   0.18508   0.00000  Uiso   1.00
H505   H     0.60266   0.81442   0.04381   0.00000  Uiso   1.00
H506   H     0.40170   0.87567   0.45984   0.00000  Uiso   1.00
H507   H     0.52020   0.82373   0.08324   0.00000  Uiso   1.00
H508   H     0.48444   0.86727   0.42050   0.00000  Uiso   1.00
C509   C     0.60653   0.70649   0.20273   0.00000  Uiso   1.00
N510   N     0.58251   0.72212   0.18281   0.00000  Uiso   1.00
C511   C     0.39341   0.96016   0.29733   0.00000  Uiso   1.00
N512   N     0.41739   0.94453   0.31729   0.00000  Uiso   1.00
C513   C     0.66669   0.75409   0.24919   0.00000  Uiso   1.00
C514   C     0.99998   0.91257   0.25081   0.00000  Uiso   1.00
C515   C     0.86188   0.82711   0.04744   0.00000  Uiso   1.00
C516   C     0.80825   0.85870   0.45533   0.00000  Uiso   1.00
C517   C     0.91043   0.82228   0.02485   0.00000  Uiso   1.00
C518   C     0.75986   0.86429   0.47808   0.00000  Uiso   1.00
C519   C     0.96985   0.68695   0.22763   0.00000  Uiso   1.00
C520   C     0.69680   0.97971   0.27239   0.00000  Uiso   1.00
C521   C     0.97028   0.97763   0.22914   0.00000  Uiso   1.00
C522   C     0.69638   0.68903   0.27087   0.00000  Uiso   1.00
C523   C     0.66694   0.95720   0.25115   0.00000  Uiso   1.00
C524   C     0.99973   0.70946   0.24886   0.00000  Uiso   1.00
C525   C     0.84941   0.80919   0.27936   0.00000  Uiso   1.00
C526   C     0.81726   0.85747   0.22064   0.00000  Uiso   1.00
C527   C     0.79980   0.80924   0.27938   0.00000  Uiso   1.00
C528   C     0.86686   0.85742   0.22062   0.00000  Uiso   1.00
C529   C     0.97276   0.83322   0.33608   0.00000  Uiso   1.00
C530   C     0.69391   0.83391   0.16396   0.00000  Uiso   1.00
C531   C     0.95780   0.83251   0.38520   0.00000  Uiso   1.00
C532   C     0.70910   0.83820   0.11510   0.00000  Uiso   1.00
C533   C     0.97497   0.82043   0.45633   0.00000  Uiso   1.00
C534   C     0.69423   0.86103   0.04579   0.00000  Uiso   1.00
C535   C     0.99095   0.82368   0.40993   0.00000  Uiso   1.00
C536   C     0.67715   0.85267   0.09139   0.00000  Uiso   1.00
C537   C     0.90899   0.83936   0.40735   0.00000  Uiso   1.00
C538   C     0.75777   0.83126   0.09269   0.00000  Uiso   1.00
C539   C     0.89209   0.83737   0.45427   0.00000  Uiso   1.00
C540   C     0.77642   0.84104   0.04712   0.00000  Uiso   1.00
C541   C     0.92589   0.82679   0.47860   0.00000  Uiso   1.00
C542   C     0.74344   0.85534   0.02353   0.00000  Uiso   1.00
C543   C     0.84246   0.84426   0.47744   0.00000  Uiso   1.00
C544   C     0.82670   0.83707   0.02448   0.00000  Uiso   1.00
Cu545  Cu    0.71355   0.83334   0.25000   0.00000  Uiso   1.00
Cu546  Cu    0.95311   0.83333   0.25000   0.00000  Uiso   1.00
H547   H     0.78028   0.81807   0.11186   0.00000  Uiso   1.00
H548   H     0.88458   0.84499   0.38697   0.00000  Uiso   1.00
H549   H     0.97273   0.85851   0.10825   0.00000  Uiso   1.00
H550   H     0.69553   0.81816   0.39338   0.00000  Uiso   1.00
H551   H     0.66755   0.81228   0.47479   0.00000  Uiso   1.00
H552   H     0.66913   0.87274   0.02807   0.00000  Uiso   1.00
H553   H     0.94780   0.96024   0.21232   0.00000  Uiso   1.00
H554   H     0.71886   0.70642   0.28769   0.00000  Uiso   1.00
H555   H     0.86112   0.78978   0.30282   0.00000  Uiso   1.00
H556   H     0.80556   0.87687   0.19716   0.00000  Uiso   1.00
H557   H     0.77413   0.78991   0.30288   0.00000  Uiso   1.00
H558   H     0.89254   0.87675   0.19711   0.00000  Uiso   1.00
N559   N     0.78403   0.83334   0.24999   0.00000  Uiso   1.00
N560   N     0.88264   0.83332   0.25001   0.00000  Uiso   1.00
O561   O     0.70625   0.77322   0.25000   0.00000  Uiso   1.00
O562   O     0.96042   0.89345   0.25000   0.00000  Uiso   1.00
O563   O     0.96039   0.77321   0.25000   0.00000  Uiso   1.00
O564   O     0.70628   0.89346   0.25000   0.00000  Uiso   1.00
O565   O     0.68519   0.83334   0.31492   0.00000  Uiso   1.00
O566   O     0.98148   0.83332   0.18508   0.00000  Uiso   1.00
O567   O     0.93933   0.83333   0.31492   0.00000  Uiso   1.00
O568   O     0.72733   0.83333   0.18508   0.00000  Uiso   1.00
H569   H     0.93599   0.81442   0.04381   0.00000  Uiso   1.00
H570   H     0.73504   0.87567   0.45984   0.00000  Uiso   1.00
H571   H     0.85353   0.82373   0.08324   0.00000  Uiso   1.00
H572   H     0.81778   0.86727   0.42050   0.00000  Uiso   1.00
C573   C     0.93986   0.70649   0.20273   0.00000  Uiso   1.00
N574   N     0.91585   0.72212   0.18281   0.00000  Uiso   1.00
C575   C     0.72675   0.96016   0.29733   0.00000  Uiso   1.00
N576   N     0.75072   0.94453   0.31729   0.00000  Uiso   1.00
C577   C     0.00002   0.08743   0.74919   0.00000  Uiso   1.00
C578   C     0.33331   0.24590   0.75081   0.00000  Uiso   1.00
C579   C     0.19522   0.16044   0.54744   0.00000  Uiso   1.00
C580   C     0.14158   0.19204   0.95533   0.00000  Uiso   1.00
C581   C     0.24376   0.15561   0.52485   0.00000  Uiso   1.00
C582   C     0.09319   0.19762   0.97808   0.00000  Uiso   1.00
C583   C     0.30318   0.02028   0.72763   0.00000  Uiso   1.00
C584   C     0.03013   0.31305   0.77239   0.00000  Uiso   1.00
C585   C     0.30361   0.31097   0.72914   0.00000  Uiso   1.00
C586   C     0.02972   0.02236   0.77087   0.00000  Uiso   1.00
C587   C     0.00027   0.29053   0.75115   0.00000  Uiso   1.00
C588   C     0.33306   0.04279   0.74886   0.00000  Uiso   1.00
C589   C     0.18275   0.14253   0.77936   0.00000  Uiso   1.00
C590   C     0.15059   0.19080   0.72064   0.00000  Uiso   1.00
C591   C     0.13314   0.14257   0.77938   0.00000  Uiso   1.00
C592   C     0.20020   0.19076   0.72062   0.00000  Uiso   1.00
C593   C     0.30609   0.16655   0.83608   0.00000  Uiso   1.00
C594   C     0.02724   0.16724   0.66396   0.00000  Uiso   1.00
C595   C     0.29114   0.16585   0.88520   0.00000  Uiso   1.00
C596   C     0.04243   0.17154   0.61510   0.00000  Uiso   1.00
C597   C     0.30830   0.15376   0.95633   0.00000  Uiso   1.00
C598   C     0.02756   0.19436   0.54579   0.00000  Uiso   1.00
C599   C     0.32428   0.15702   0.90993   0.00000  Uiso   1.00
C600   C     0.01049   0.18601   0.59139   0.00000  Uiso   1.00
C601   C     0.24232   0.17269   0.90735   0.00000  Uiso   1.00
C602   C     0.09110   0.16460   0.59269   0.00000  Uiso   1.00
C603   C     0.22543   0.17070   0.95427   0.00000  Uiso   1.00
C604   C     0.10976   0.17437   0.54712   0.00000  Uiso   1.00
C605   C     0.25923   0.16012   0.97860   0.00000  Uiso   1.00
C606   C     0.07677   0.18867   0.52353   0.00000  Uiso   1.00
C607   C     0.17579   0.17759   0.97744   0.00000  Uiso   1.00
C608   C     0.16003   0.17041   0.52448   0.00000  Uiso   1.00
Cu609  Cu    0.04689   0.16667   0.75000   0.00000  Uiso   1.00
Cu610  Cu    0.28645   0.16666   0.75000   0.00000  Uiso   1.00
H611   H     0.11361   0.15141   0.61186   0.00000  Uiso   1.00
H612   H     0.21791   0.17832   0.88697   0.00000  Uiso   1.00
H613   H     0.30606   0.19185   0.60825   0.00000  Uiso   1.00
H614   H     0.02886   0.15149   0.89338   0.00000  Uiso   1.00
H615   H     0.00088   0.14561   0.97479   0.00000  Uiso   1.00
H616   H     0.00246   0.20608   0.52807   0.00000  Uiso   1.00
H617   H     0.28113   0.29357   0.71232   0.00000  Uiso   1.00
H618   H     0.05220   0.03975   0.78769   0.00000  Uiso   1.00
H619   H     0.19445   0.12311   0.80282   0.00000  Uiso   1.00
H620   H     0.13889   0.21021   0.69716   0.00000  Uiso   1.00
H621   H     0.10746   0.12324   0.80288   0.00000  Uiso   1.00
H622   H     0.22588   0.21008   0.69711   0.00000  Uiso   1.00
N623   N     0.11736   0.16668   0.74999   0.00000  Uiso   1.00
N624   N     0.21597   0.16666   0.75001   0.00000  Uiso   1.00
O625   O     0.03958   0.10655   0.75000   0.00000  Uiso   1.00
O626   O     0.29375   0.22678   0.75000   0.00000  Uiso   1.00
O627   O     0.29372   0.10654   0.75000   0.00000  Uiso   1.00
O628   O     0.03961   0.22679   0.75000   0.00000  Uiso   1.00
O629   O     0.01852   0.16668   0.81492   0.00000  Uiso   1.00
O630   O     0.31481   0.16666   0.68508   0.00000  Uiso   1.00
O631   O     0.27267   0.16667   0.81492   0.00000  Uiso   1.00
O632   O     0.06067   0.16667   0.68508   0.00000  Uiso   1.00
H633   H     0.26933   0.14776   0.54381   0.00000  Uiso   1.00
H634   H     0.06837   0.20900   0.95984   0.00000  Uiso   1.00
H635   H     0.18686   0.15707   0.58324   0.00000  Uiso   1.00
H636   H     0.15111   0.20060   0.92050   0.00000  Uiso   1.00
C637   C     0.27319   0.03982   0.70273   0.00000  Uiso   1.00
N638   N     0.24918   0.05545   0.68281   0.00000  Uiso   1.00
C639   C     0.06008   0.29350   0.79733   0.00000  Uiso   1.00
N640   N     0.08405   0.27786   0.81729   0.00000  Uiso   1.00
C641   C     0.33336   0.08743   0.74919   0.00000  Uiso   1.00
C642   C     0.66664   0.24590   0.75081   0.00000  Uiso   1.00
C643   C     0.52855   0.16044   0.54744   0.00000  Uiso   1.00
C644   C     0.47492   0.19204   0.95533   0.00000  Uiso   1.00
C645   C     0.57710   0.15561   0.52485   0.00000  Uiso   1.00
C646   C     0.42653   0.19762   0.97808   0.00000  Uiso   1.00
C647   C     0.63652   0.02028   0.72763   0.00000  Uiso   1.00
C648   C     0.36347   0.31305   0.77239   0.00000  Uiso   1.00
C649   C     0.63695   0.31097   0.72914   0.00000  Uiso   1.00
C650   C     0.36305   0.02236   0.77087   0.00000  Uiso   1.00
C651   C     0.33360   0.29053   0.75115   0.00000  Uiso   1.00
C652   C     0.66639   0.04279   0.74886   0.00000  Uiso   1.00
C653   C     0.51608   0.14253   0.77936   0.00000  Uiso   1.00
C654   C     0.48392   0.19080   0.72064   0.00000  Uiso   1.00
C655   C     0.46647   0.14257   0.77938   0.00000  Uiso   1.00
C656   C     0.53353   0.19076   0.72062   0.00000  Uiso   1.00
C657   C     0.63943   0.16655   0.83608   0.00000  Uiso   1.00
C658   C     0.36058   0.16724   0.66396   0.00000  Uiso   1.00
C659   C     0.62447   0.16585   0.88520   0.00000  Uiso   1.00
C660   C     0.37576   0.17154   0.61510   0.00000  Uiso   1.00
C661   C     0.64163   0.15376   0.95633   0.00000  Uiso   1.00
C662   C     0.36090   0.19436   0.54579   0.00000  Uiso   1.00
C663   C     0.65762   0.15702   0.90993   0.00000  Uiso   1.00
C664   C     0.34382   0.18601   0.59139   0.00000  Uiso   1.00
C665   C     0.57565   0.17269   0.90735   0.00000  Uiso   1.00
C666   C     0.42444   0.16460   0.59269   0.00000  Uiso   1.00
C667   C     0.55876   0.17070   0.95427   0.00000  Uiso   1.00
C668   C     0.44309   0.17437   0.54712   0.00000  Uiso   1.00
C669   C     0.59256   0.16012   0.97860   0.00000  Uiso   1.00
C670   C     0.41010   0.18867   0.52353   0.00000  Uiso   1.00
C671   C     0.50912   0.17759   0.97744   0.00000  Uiso   1.00
C672   C     0.49336   0.17041   0.52448   0.00000  Uiso   1.00
Cu673  Cu    0.38022   0.16667   0.75000   0.00000  Uiso   1.00
Cu674  Cu    0.61978   0.16666   0.75000   0.00000  Uiso   1.00
H675   H     0.44695   0.15141   0.61186   0.00000  Uiso   1.00
H676   H     0.55125   0.17832   0.88697   0.00000  Uiso   1.00
H677   H     0.63940   0.19185   0.60825   0.00000  Uiso   1.00
H678   H     0.36219   0.15149   0.89338   0.00000  Uiso   1.00
H679   H     0.33421   0.14561   0.97479   0.00000  Uiso   1.00
H680   H     0.33580   0.20608   0.52807   0.00000  Uiso   1.00
H681   H     0.61447   0.29357   0.71232   0.00000  Uiso   1.00
H682   H     0.38553   0.03975   0.78769   0.00000  Uiso   1.00
H683   H     0.52778   0.12311   0.80282   0.00000  Uiso   1.00
H684   H     0.47222   0.21021   0.69716   0.00000  Uiso   1.00
H685   H     0.44079   0.12324   0.80288   0.00000  Uiso   1.00
H686   H     0.55921   0.21008   0.69711   0.00000  Uiso   1.00
N687   N     0.45069   0.16668   0.74999   0.00000  Uiso   1.00
N688   N     0.54931   0.16666   0.75001   0.00000  Uiso   1.00
O689   O     0.37291   0.10655   0.75000   0.00000  Uiso   1.00
O690   O     0.62709   0.22678   0.75000   0.00000  Uiso   1.00
O691   O     0.62706   0.10654   0.75000   0.00000  Uiso   1.00
O692   O     0.37294   0.22679   0.75000   0.00000  Uiso   1.00
O693   O     0.35186   0.16668   0.81492   0.00000  Uiso   1.00
O694   O     0.64814   0.16666   0.68508   0.00000  Uiso   1.00
O695   O     0.60600   0.16667   0.81492   0.00000  Uiso   1.00
O696   O     0.39400   0.16667   0.68508   0.00000  Uiso   1.00
H697   H     0.60266   0.14776   0.54381   0.00000  Uiso   1.00
H698   H     0.40170   0.20900   0.95984   0.00000  Uiso   1.00
H699   H     0.52020   0.15707   0.58324   0.00000  Uiso   1.00
H700   H     0.48444   0.20060   0.92050   0.00000  Uiso   1.00
C701   C     0.60653   0.03982   0.70273   0.00000  Uiso   1.00
N702   N     0.58251   0.05545   0.68281   0.00000  Uiso   1.00
C703   C     0.39341   0.29350   0.79733   0.00000  Uiso   1.00
N704   N     0.41739   0.27786   0.81729   0.00000  Uiso   1.00
C705   C     0.66669   0.08743   0.74919   0.00000  Uiso   1.00
C706   C     0.99998   0.24590   0.75081   0.00000  Uiso   1.00
C707   C     0.86188   0.16044   0.54744   0.00000  Uiso   1.00
C708   C     0.80825   0.19204   0.95533   0.00000  Uiso   1.00
C709   C     0.91043   0.15561   0.52485   0.00000  Uiso   1.00
C710   C     0.75986   0.19762   0.97808   0.00000  Uiso   1.00
C711   C     0.96985   0.02028   0.72763   0.00000  Uiso   1.00
C712   C     0.69680   0.31305   0.77239   0.00000  Uiso   1.00
C713   C     0.97028   0.31097   0.72914   0.00000  Uiso   1.00
C714   C     0.69638   0.02236   0.77087   0.00000  Uiso   1.00
C715   C     0.66694   0.29053   0.75115   0.00000  Uiso   1.00
C716   C     0.99973   0.04279   0.74886   0.00000  Uiso   1.00
C717   C     0.84941   0.14253   0.77936   0.00000  Uiso   1.00
C718   C     0.81726   0.19080   0.72064   0.00000  Uiso   1.00
C719   C     0.79980   0.14257   0.77938   0.00000  Uiso   1.00
C720   C     0.86686   0.19076   0.72062   0.00000  Uiso   1.00
C721   C     0.97276   0.16655   0.83608   0.00000  Uiso   1.00
C722   C     0.69391   0.16724   0.66396   0.00000  Uiso   1.00
C723   C     0.95780   0.16585   0.88520   0.00000  Uiso   1.00
C724   C     0.70910   0.17154   0.61510   0.00000  Uiso   1.00
C725   C     0.97497   0.15376   0.95633   0.00000  Uiso   1.00
C726   C     0.69423   0.19436   0.54579   0.00000  Uiso   1.00
C727   C     0.99095   0.15702   0.90993   0.00000  Uiso   1.00
C728   C     0.67715   0.18601   0.59139   0.00000  Uiso   1.00
C729   C     0.90899   0.17269   0.90735   0.00000  Uiso   1.00
C730   C     0.75777   0.16460   0.59269   0.00000  Uiso   1.00
C731   C     0.89209   0.17070   0.95427   0.00000  Uiso   1.00
C732   C     0.77642   0.17437   0.54712   0.00000  Uiso   1.00
C733   C     0.92589   0.16012   0.97860   0.00000  Uiso   1.00
C734   C     0.74344   0.18867   0.52353   0.00000  Uiso   1.00
C735   C     0.84246   0.17759   0.97744   0.00000  Uiso   1.00
C736   C     0.82670   0.17041   0.52448   0.00000  Uiso   1.00
Cu737  Cu    0.71355   0.16667   0.75000   0.00000  Uiso   1.00
Cu738  Cu    0.95311   0.16666   0.75000   0.00000  Uiso   1.00
H739   H     0.78028   0.15141   0.61186   0.00000  Uiso   1.00
H740   H     0.88458   0.17832   0.88697   0.00000  Uiso   1.00
H741   H     0.97273   0.19185   0.60825   0.00000  Uiso   1.00
H742   H     0.69553   0.15149   0.89338   0.00000  Uiso   1.00
H743   H     0.66755   0.14561   0.97479   0.00000  Uiso   1.00
H744   H     0.66913   0.20608   0.52807   0.00000  Uiso   1.00
H745   H     0.94780   0.29357   0.71232   0.00000  Uiso   1.00
H746   H     0.71886   0.03975   0.78769   0.00000  Uiso   1.00
H747   H     0.86112   0.12311   0.80282   0.00000  Uiso   1.00
H748   H     0.80556   0.21021   0.69716   0.00000  Uiso   1.00
H749   H     0.77413   0.12324   0.80288   0.00000  Uiso   1.00
H750   H     0.89254   0.21008   0.69711   0.00000  Uiso   1.00
N751   N     0.78403   0.16668   0.74999   0.00000  Uiso   1.00
N752   N     0.88264   0.16666   0.75001   0.00000  Uiso   1.00
O753   O     0.70625   0.10655   0.75000   0.00000  Uiso   1.00
O754   O     0.96042   0.22678   0.75000   0.00000  Uiso   1.00
O755   O     0.96039   0.10654   0.75000   0.00000  Uiso   1.00
O756   O     0.70628   0.22679   0.75000   0.00000  Uiso   1.00
O757   O     0.68519   0.16668   0.81492   0.00000  Uiso   1.00
O758   O     0.98148   0.16666   0.68508   0.00000  Uiso   1.00
O759   O     0.93933   0.16667   0.81492   0.00000  Uiso   1.00
O760   O     0.72733   0.16667   0.68508   0.00000  Uiso   1.00
H761   H     0.93599   0.14776   0.54381   0.00000  Uiso   1.00
H762   H     0.73504   0.20900   0.95984   0.00000  Uiso   1.00
H763   H     0.85353   0.15707   0.58324   0.00000  Uiso   1.00
H764   H     0.81778   0.20060   0.92050   0.00000  Uiso   1.00
C765   C     0.93986   0.03982   0.70273   0.00000  Uiso   1.00
N766   N     0.91585   0.05545   0.68281   0.00000  Uiso   1.00
C767   C     0.72675   0.29350   0.79733   0.00000  Uiso   1.00
N768   N     0.75072   0.27786   0.81729   0.00000  Uiso   1.00
C769   C     0.00002   0.42076   0.74919   0.00000  Uiso   1.00
C770   C     0.33331   0.57924   0.75081   0.00000  Uiso   1.00
C771   C     0.19522   0.49378   0.54744   0.00000  Uiso   1.00
C772   C     0.14158   0.52537   0.95533   0.00000  Uiso   1.00
C773   C     0.24376   0.48895   0.52485   0.00000  Uiso   1.00
C774   C     0.09319   0.53095   0.97808   0.00000  Uiso   1.00
C775   C     0.30318   0.35361   0.72763   0.00000  Uiso   1.00
C776   C     0.03013   0.64638   0.77239   0.00000  Uiso   1.00
C777   C     0.30361   0.64430   0.72914   0.00000  Uiso   1.00
C778   C     0.02972   0.35569   0.77087   0.00000  Uiso   1.00
C779   C     0.00027   0.62387   0.75115   0.00000  Uiso   1.00
C780   C     0.33306   0.37613   0.74886   0.00000  Uiso   1.00
C781   C     0.18275   0.47586   0.77936   0.00000  Uiso   1.00
C782   C     0.15059   0.52413   0.72064   0.00000  Uiso   1.00
C783   C     0.13314   0.47590   0.77938   0.00000  Uiso   1.00
C784   C     0.20020   0.52409   0.72062   0.00000  Uiso   1.00
C785   C     0.30609   0.49989   0.83608   0.00000  Uiso   1.00
C786   C     0.02724   0.50058   0.66396   0.00000  Uiso   1.00
C787   C     0.29114   0.49918   0.88520   0.00000  Uiso   1.00
C788   C     0.04243   0.50487   0.61510   0.00000  Uiso   1.00
C789   C     0.30830   0.48709   0.95633   0.00000  Uiso   1.00
C790   C     0.02756   0.52770   0.54579   0.00000  Uiso   1.00
C791   C     0.32428   0.49035   0.90993   0.00000  Uiso   1.00
C792   C     0.01049   0.51934   0.59139   0.00000  Uiso   1.00
C793   C     0.24232   0.50603   0.90735   0.00000  Uiso   1.00
C794   C     0.09110   0.49793   0.59269   0.00000  Uiso   1.00
C795   C     0.22543   0.50404   0.95427   0.00000  Uiso   1.00
C796   C     0.10976   0.50771   0.54712   0.00000  Uiso   1.00
C797   C     0.25923   0.49346   0.97860   0.00000  Uiso   1.00
C798   C     0.07677   0.52201   0.52353   0.00000  Uiso   1.00
C799   C     0.17579   0.51093   0.97744   0.00000  Uiso   1.00
C800   C     0.16003   0.50374   0.52448   0.00000  Uiso   1.00
Cu801  Cu    0.04689   0.50001   0.75000   0.00000  Uiso   1.00
Cu802  Cu    0.28645   0.49999   0.75000   0.00000  Uiso   1.00
H803   H     0.11361   0.48474   0.61186   0.00000  Uiso   1.00
H804   H     0.21791   0.51165   0.88697   0.00000  Uiso   1.00
H805   H     0.30606   0.52518   0.60825   0.00000  Uiso   1.00
H806   H     0.02886   0.48483   0.89338   0.00000  Uiso   1.00
H807   H     0.00088   0.47894   0.97479   0.00000  Uiso   1.00
H808   H     0.00246   0.53941   0.52807   0.00000  Uiso   1.00
H809   H     0.28113   0.62691   0.71232   0.00000  Uiso   1.00
H810   H     0.05220   0.37309   0.78769   0.00000  Uiso   1.00
H811   H     0.19445   0.45645   0.80282   0.00000  Uiso   1.00
H812   H     0.13889   0.54354   0.69716   0.00000  Uiso   1.00
H813   H     0.10746   0.45657   0.80288   0.00000  Uiso   1.00
H814   H     0.22588   0.54342   0.69711   0.00000  Uiso   1.00
N815   N     0.11736   0.50001   0.74999   0.00000  Uiso   1.00
N816   N     0.21597   0.49999   0.75001   0.00000  Uiso   1.00
O817   O     0.03958   0.43989   0.75000   0.00000  Uiso   1.00
O818   O     0.29375   0.56011   0.75000   0.00000  Uiso   1.00
O819   O     0.29372   0.43988   0.75000   0.00000  Uiso   1.00
O820   O     0.03961   0.56012   0.75000   0.00000  Uiso   1.00
O821   O     0.01852   0.50001   0.81492   0.00000  Uiso   1.00
O822   O     0.31481   0.49999   0.68508   0.00000  Uiso   1.00
O823   O     0.27267   0.50000   0.81492   0.00000  Uiso   1.00
O824   O     0.06067   0.50000   0.68508   0.00000  Uiso   1.00
H825   H     0.26933   0.48109   0.54381   0.00000  Uiso   1.00
H826   H     0.06837   0.54234   0.95984   0.00000  Uiso   1.00
H827   H     0.18686   0.49040   0.58324   0.00000  Uiso   1.00
H828   H     0.15111   0.53393   0.92050   0.00000  Uiso   1.00
C829   C     0.27319   0.37316   0.70273   0.00000  Uiso   1.00
N830   N     0.24918   0.38879   0.68281   0.00000  Uiso   1.00
C831   C     0.06008   0.62683   0.79733   0.00000  Uiso   1.00
N832   N     0.08405   0.61119   0.81729   0.00000  Uiso   1.00
C833   C     0.33336   0.42076   0.74919   0.00000  Uiso   1.00
C834   C     0.66664   0.57924   0.75081   0.00000  Uiso   1.00
C835   C     0.52855   0.49378   0.54744   0.00000  Uiso   1.00
C836   C     0.47492   0.52537   0.95533   0.00000  Uiso   1.00
C837   C     0.57710   0.48895   0.52485   0.00000  Uiso   1.00
C838   C     0.42653   0.53095   0.97808   0.00000  Uiso   1.00
C839   C     0.63652   0.35361   0.72763   0.00000  Uiso   1.00
C840   C     0.36347   0.64638   0.77239   0.00000  Uiso   1.00
C841   C     0.63695   0.64430   0.72914   0.00000  Uiso   1.00
C842   C     0.36305   0.35569   0.77087   0.00000  Uiso   1.00
C843   C     0.33360   0.62387   0.75115   0.00000  Uiso   1.00
C844   C     0.66639   0.37613   0.74886   0.00000  Uiso   1.00
C845   C     0.51608   0.47586   0.77936   0.00000  Uiso   1.00
C846   C     0.48392   0.52413   0.72064   0.00000  Uiso   1.00
C847   C     0.46647   0.47590   0.77938   0.00000  Uiso   1.00
C848   C     0.53353   0.52409   0.72062   0.00000  Uiso   1.00
C849   C     0.63943   0.49989   0.83608   0.00000  Uiso   1.00
C850   C     0.36058   0.50058   0.66396   0.00000  Uiso   1.00
C851   C     0.62447   0.49918   0.88520   0.00000  Uiso   1.00
C852   C     0.37576   0.50487   0.61510   0.00000  Uiso   1.00
C853   C     0.64163   0.48709   0.95633   0.00000  Uiso   1.00
C854   C     0.36090   0.52770   0.54579   0.00000  Uiso   1.00
C855   C     0.65762   0.49035   0.90993   0.00000  Uiso   1.00
C856   C     0.34382   0.51934   0.59139   0.00000  Uiso   1.00
C857   C     0.57565   0.50603   0.90735   0.00000  Uiso   1.00
C858   C     0.42444   0.49793   0.59269   0.00000  Uiso   1.00
C859   C     0.55876   0.50404   0.95427   0.00000  Uiso   1.00
C860   C     0.44309   0.50771   0.54712   0.00000  Uiso   1.00
C861   C     0.59256   0.49346   0.97860   0.00000  Uiso   1.00
C862   C     0.41010   0.52201   0.52353   0.00000  Uiso   1.00
C863   C     0.50912   0.51093   0.97744   0.00000  Uiso   1.00
C864   C     0.49336   0.50374   0.52448   0.00000  Uiso   1.00
Cu865  Cu    0.38022   0.50001   0.75000   0.00000  Uiso   1.00
Cu866  Cu    0.61978   0.49999   0.75000   0.00000  Uiso   1.00
H867   H     0.44695   0.48474   0.61186   0.00000  Uiso   1.00
H868   H     0.55125   0.51165   0.88697   0.00000  Uiso   1.00
H869   H     0.63940   0.52518   0.60825   0.00000  Uiso   1.00
H870   H     0.36219   0.48483   0.89338   0.00000  Uiso   1.00
H871   H     0.33421   0.47894   0.97479   0.00000  Uiso   1.00
H872   H     0.33580   0.53941   0.52807   0.00000  Uiso   1.00
H873   H     0.61447   0.62691   0.71232   0.00000  Uiso   1.00
H874   H     0.38553   0.37309   0.78769   0.00000  Uiso   1.00
H875   H     0.52778   0.45645   0.80282   0.00000  Uiso   1.00
H876   H     0.47222   0.54354   0.69716   0.00000  Uiso   1.00
H877   H     0.44079   0.45657   0.80288   0.00000  Uiso   1.00
H878   H     0.55921   0.54342   0.69711   0.00000  Uiso   1.00
N879   N     0.45069   0.50001   0.74999   0.00000  Uiso   1.00
N880   N     0.54931   0.49999   0.75001   0.00000  Uiso   1.00
O881   O     0.37291   0.43989   0.75000   0.00000  Uiso   1.00
O882   O     0.62709   0.56011   0.75000   0.00000  Uiso   1.00
O883   O     0.62706   0.43988   0.75000   0.00000  Uiso   1.00
O884   O     0.37294   0.56012   0.75000   0.00000  Uiso   1.00
O885   O     0.35186   0.50001   0.81492   0.00000  Uiso   1.00
O886   O     0.64814   0.49999   0.68508   0.00000  Uiso   1.00
O887   O     0.60600   0.50000   0.81492   0.00000  Uiso   1.00
O888   O     0.39400   0.50000   0.68508   0.00000  Uiso   1.00
H889   H     0.60266   0.48109   0.54381   0.00000  Uiso   1.00
H890   H     0.40170   0.54234   0.95984   0.00000  Uiso   1.00
H891   H     0.52020   0.49040   0.58324   0.00000  Uiso   1.00
H892   H     0.48444   0.53393   0.92050   0.00000  Uiso   1.00
C893   C     0.60653   0.37316   0.70273   0.00000  Uiso   1.00
N894   N     0.58251   0.38879   0.68281   0.00000  Uiso   1.00
C895   C     0.39341   0.62683   0.79733   0.00000  Uiso   1.00
N896   N     0.41739   0.61119   0.81729   0.00000  Uiso   1.00
C897   C     0.66669   0.42076   0.74919   0.00000  Uiso   1.00
C898   C     0.99998   0.57924   0.75081   0.00000  Uiso   1.00
C899   C     0.86188   0.49378   0.54744   0.00000  Uiso   1.00
C900   C     0.80825   0.52537   0.95533   0.00000  Uiso   1.00
C901   C     0.91043   0.48895   0.52485   0.00000  Uiso   1.00
C902   C     0.75986   0.53095   0.97808   0.00000  Uiso   1.00
C903   C     0.96985   0.35361   0.72763   0.00000  Uiso   1.00
C904   C     0.69680   0.64638   0.77239   0.00000  Uiso   1.00
C905   C     0.97028   0.64430   0.72914   0.00000  Uiso   1.00
C906   C     0.69638   0.35569   0.77087   0.00000  Uiso   1.00
C907   C     0.66694   0.62387   0.75115   0.00000  Uiso   1.00
C908   C     0.99973   0.37613   0.74886   0.00000  Uiso   1.00
C909   C     0.84941   0.47586   0.77936   0.00000  Uiso   1.00
C910   C     0.81726   0.52413   0.72064   0.00000  Uiso   1.00
C911   C     0.79980   0.47590   0.77938   0.00000  Uiso   1.00
C912   C     0.86686   0.52409   0.72062   0.00000  Uiso   1.00
C913   C     0.97276   0.49989   0.83608   0.00000  Uiso   1.00
C914   C     0.69391   0.50058   0.66396   0.00000  Uiso   1.00
C915   C     0.95780   0.49918   0.88520   0.00000  Uiso   1.00
C916   C     0.70910   0.50487   0.61510   0.00000  Uiso   1.00
C917   C     0.97497   0.48709   0.95633   0.00000  Uiso   1.00
C918   C     0.69423   0.52770   0.54579   0.00000  Uiso   1.00
C919   C     0.99095   0.49035   0.90993   0.00000  Uiso   1.00
C920   C     0.67715   0.51934   0.59139   0.00000  Uiso   1.00
C921   C     0.90899   0.50603   0.90735   0.00000  Uiso   1.00
C922   C     0.75777   0.49793   0.59269   0.00000  Uiso   1.00
C923   C     0.89209   0.50404   0.95427   0.00000  Uiso   1.00
C924   C     0.77642   0.50771   0.54712   0.00000  Uiso   1.00
C925   C     0.92589   0.49346   0.97860   0.00000  Uiso   1.00
C926   C     0.74344   0.52201   0.52353   0.00000  Uiso   1.00
C927   C     0.84246   0.51093   0.97744   0.00000  Uiso   1.00
C928   C     0.82670   0.50374   0.52448   0.00000  Uiso   1.00
Cu929  Cu    0.71355   0.50001   0.75000   0.00000  Uiso   1.00
Cu930  Cu    0.95311   0.49999   0.75000   0.00000  Uiso   1.00
H931   H     0.78028   0.48474   0.61186   0.00000  Uiso   1.00
H932   H     0.88458   0.51165   0.88697   0.00000  Uiso   1.00
H933   H     0.97273   0.52518   0.60825   0.00000  Uiso   1.00
H934   H     0.69553   0.48483   0.89338   0.00000  Uiso   1.00
H935   H     0.66755   0.47894   0.97479   0.00000  Uiso   1.00
H936   H     0.66913   0.53941   0.52807   0.00000  Uiso   1.00
H937   H     0.94780   0.62691   0.71232   0.00000  Uiso   1.00
H938   H     0.71886   0.37309   0.78769   0.00000  Uiso   1.00
H939   H     0.86112   0.45645   0.80282   0.00000  Uiso   1.00
H940   H     0.80556   0.54354   0.69716   0.00000  Uiso   1.00
H941   H     0.77413   0.45657   0.80288   0.00000  Uiso   1.00
H942   H     0.89254   0.54342   0.69711   0.00000  Uiso   1.00
N943   N     0.78403   0.50001   0.74999   0.00000  Uiso   1.00
N944   N     0.88264   0.49999   0.75001   0.00000  Uiso   1.00
O945   O     0.70625   0.43989   0.75000   0.00000  Uiso   1.00
O946   O     0.96042   0.56011   0.75000   0.00000  Uiso   1.00
O947   O     0.96039   0.43988   0.75000   0.00000  Uiso   1.00
O948   O     0.70628   0.56012   0.75000   0.00000  Uiso   1.00
O949   O     0.68519   0.50001   0.81492   0.00000  Uiso   1.00
O950   O     0.98148   0.49999   0.68508   0.00000  Uiso   1.00
O951   O     0.93933   0.50000   0.81492   0.00000  Uiso   1.00
O952   O     0.72733   0.50000   0.68508   0.00000  Uiso   1.00
H953   H     0.93599   0.48109   0.54381   0.00000  Uiso   1.00
H954   H     0.73504   0.54234   0.95984   0.00000  Uiso   1.00
H955   H     0.85353   0.49040   0.58324   0.00000  Uiso   1.00
H956   H     0.81778   0.53393   0.92050   0.00000  Uiso   1.00
C957   C     0.93986   0.37316   0.70273   0.00000  Uiso   1.00
N958   N     0.91585   0.38879   0.68281   0.00000  Uiso   1.00
C959   C     0.72675   0.62683   0.79733   0.00000  Uiso   1.00
N960   N     0.75072   0.61119   0.81729   0.00000  Uiso   1.00
C961   C     0.00002   0.75409   0.74919   0.00000  Uiso   1.00
C962   C     0.33331   0.91257   0.75081   0.00000  Uiso   1.00
C963   C     0.19522   0.82711   0.54744   0.00000  Uiso   1.00
C964   C     0.14158   0.85870   0.95533   0.00000  Uiso   1.00
C965   C     0.24376   0.82228   0.52485   0.00000  Uiso   1.00
C966   C     0.09319   0.86429   0.97808   0.00000  Uiso   1.00
C967   C     0.30318   0.68695   0.72763   0.00000  Uiso   1.00
C968   C     0.03013   0.97971   0.77239   0.00000  Uiso   1.00
C969   C     0.30361   0.97763   0.72914   0.00000  Uiso   1.00
C970   C     0.02972   0.68903   0.77087   0.00000  Uiso   1.00
C971   C     0.00027   0.95720   0.75115   0.00000  Uiso   1.00
C972   C     0.33306   0.70946   0.74886   0.00000  Uiso   1.00
C973   C     0.18275   0.80919   0.77936   0.00000  Uiso   1.00
C974   C     0.15059   0.85747   0.72064   0.00000  Uiso   1.00
C975   C     0.13314   0.80924   0.77938   0.00000  Uiso   1.00
C976   C     0.20020   0.85742   0.72062   0.00000  Uiso   1.00
C977   C     0.30609   0.83322   0.83608   0.00000  Uiso   1.00
C978   C     0.02724   0.83391   0.66396   0.00000  Uiso   1.00
C979   C     0.29114   0.83251   0.88520   0.00000  Uiso   1.00
C980   C     0.04243   0.83820   0.61510   0.00000  Uiso   1.00
C981   C     0.30830   0.82043   0.95633   0.00000  Uiso   1.00
C982   C     0.02756   0.86103   0.54579   0.00000  Uiso   1.00
C983   C     0.32428   0.82368   0.90993   0.00000  Uiso   1.00
C984   C     0.01049   0.85267   0.59139   0.00000  Uiso   1.00
C985   C     0.24232   0.83936   0.90735   0.00000  Uiso   1.00
C986   C     0.09110   0.83126   0.59269   0.00000  Uiso   1.00
C987   C     0.22543   0.83737   0.95427   0.00000  Uiso   1.00
C988   C     0.10976   0.84104   0.54712   0.00000  Uiso   1.00
C989   C     0.25923   0.82679   0.97860   0.00000  Uiso   1.00
C990   C     0.07677   0.85534   0.52353   0.00000  Uiso   1.00
C991   C     0.17579   0.84426   0.97744   0.00000  Uiso   1.00
C992   C     0.16003   0.83707   0.52448   0.00000  Uiso   1.00
Cu993  Cu    0.04689   0.83334   0.75000   0.00000  Uiso   1.00
Cu994  Cu    0.28645   0.83333   0.75000   0.00000  Uiso   1.00
H995   H     0.11361   0.81807   0.61186   0.00000  Uiso   1.00
H996   H     0.21791   0.84499   0.88697   0.00000  Uiso   1.00
H997   H     0.30606   0.85851   0.60825   0.00000  Uiso   1.00
H998   H     0.02886   0.81816   0.89338   0.00000  Uiso   1.00
H999   H     0.00088   0.81228   0.97479   0.00000  Uiso   1.00
H1000  H     0.00246   0.87274   0.52807   0.00000  Uiso   1.00
H1001  H     0.28113   0.96024   0.71232   0.00000  Uiso   1.00
H1002  H     0.05220   0.70642   0.78769   0.00000  Uiso   1.00
H1003  H     0.19445   0.78978   0.80282   0.00000  Uiso   1.00
H1004  H     0.13889   0.87687   0.69716   0.00000  Uiso   1.00
H1005  H     0.10746   0.78991   0.80288   0.00000  Uiso   1.00
H1006  H     0.22588   0.87675   0.69711   0.00000  Uiso   1.00
N1007  N     0.11736   0.83334   0.74999   0.00000  Uiso   1.00
N1008  N     0.21597   0.83332   0.75001   0.00000  Uiso   1.00
O1009  O     0.03958   0.77322   0.75000   0.00000  Uiso   1.00
O1010  O     0.29375   0.89345   0.75000   0.00000  Uiso   1.00
O1011  O     0.29372   0.77321   0.75000   0.00000  Uiso   1.00
O1012  O     0.03961   0.89346   0.75000   0.00000  Uiso   1.00
O1013  O     0.01852   0.83334   0.81492   0.00000  Uiso   1.00
O1014  O     0.31481   0.83332   0.68508   0.00000  Uiso   1.00
O1015  O     0.27267   0.83333   0.81492   0.00000  Uiso   1.00
O1016  O     0.06067   0.83333   0.68508   0.00000  Uiso   1.00
H1017  H     0.26933   0.81442   0.54381   0.00000  Uiso   1.00
H1018  H     0.06837   0.87567   0.95984   0.00000  Uiso   1.00
H1019  H     0.18686   0.82373   0.58324   0.00000  Uiso   1.00
H1020  H     0.15111   0.86727   0.92050   0.00000  Uiso   1.00
C1021  C     0.27319   0.70649   0.70273   0.00000  Uiso   1.00
N1022  N     0.24918   0.72212   0.68281   0.00000  Uiso   1.00
C1023  C     0.06008   0.96016   0.79733   0.00000  Uiso   1.00
N1024  N     0.08405   0.94453   0.81729   0.00000  Uiso   1.00
C1025  C     0.33336   0.75409   0.74919   0.00000  Uiso   1.00
C1026  C     0.66664   0.91257   0.75081   0.00000  Uiso   1.00
C1027  C     0.52855   0.82711   0.54744   0.00000  Uiso   1.00
C1028  C     0.47492   0.85870   0.95533   0.00000  Uiso   1.00
C1029  C     0.57710   0.82228   0.52485   0.00000  Uiso   1.00
C1030  C     0.42653   0.86429   0.97808   0.00000  Uiso   1.00
C1031  C     0.63652   0.68695   0.72763   0.00000  Uiso   1.00
C1032  C     0.36347   0.97971   0.77239   0.00000  Uiso   1.00
C1033  C     0.63695   0.97763   0.72914   0.00000  Uiso   1.00
C1034  C     0.36305   0.68903   0.77087   0.00000  Uiso   1.00
C1035  C     0.33360   0.95720   0.75115   0.00000  Uiso   1.00
C1036  C     0.66639   0.70946   0.74886   0.00000  Uiso   1.00
C1037  C     0.51608   0.80919   0.77936   0.00000  Uiso   1.00
C1038  C     0.48392   0.85747   0.72064   0.00000  Uiso   1.00
C1039  C     0.46647   0.80924   0.77938   0.00000  Uiso   1.00
C1040  C     0.53353   0.85742   0.72062   0.00000  Uiso   1.00
C1041  C     0.63943   0.83322   0.83608   0.00000  Uiso   1.00
C1042  C     0.36058   0.83391   0.66396   0.00000  Uiso   1.00
C1043  C     0.62447   0.83251   0.88520   0.00000  Uiso   1.00
C1044  C     0.37576   0.83820   0.61510   0.00000  Uiso   1.00
C1045  C     0.64163   0.82043   0.95633   0.00000  Uiso   1.00
C1046  C     0.36090   0.86103   0.54579   0.00000  Uiso   1.00
C1047  C     0.65762   0.82368   0.90993   0.00000  Uiso   1.00
C1048  C     0.34382   0.85267   0.59139   0.00000  Uiso   1.00
C1049  C     0.57565   0.83936   0.90735   0.00000  Uiso   1.00
C1050  C     0.42444   0.83126   0.59269   0.00000  Uiso   1.00
C1051  C     0.55876   0.83737   0.95427   0.00000  Uiso   1.00
C1052  C     0.44309   0.84104   0.54712   0.00000  Uiso   1.00
C1053  C     0.59256   0.82679   0.97860   0.00000  Uiso   1.00
C1054  C     0.41010   0.85534   0.52353   0.00000  Uiso   1.00
C1055  C     0.50912   0.84426   0.97744   0.00000  Uiso   1.00
C1056  C     0.49336   0.83707   0.52448   0.00000  Uiso   1.00
Cu1057 Cu    0.38022   0.83334   0.75000   0.00000  Uiso   1.00
Cu1058 Cu    0.61978   0.83333   0.75000   0.00000  Uiso   1.00
H1059  H     0.44695   0.81807   0.61186   0.00000  Uiso   1.00
H1060  H     0.55125   0.84499   0.88697   0.00000  Uiso   1.00
H1061  H     0.63940   0.85851   0.60825   0.00000  Uiso   1.00
H1062  H     0.36219   0.81816   0.89338   0.00000  Uiso   1.00
H1063  H     0.33421   0.81228   0.97479   0.00000  Uiso   1.00
H1064  H     0.33580   0.87274   0.52807   0.00000  Uiso   1.00
H1065  H     0.61447   0.96024   0.71232   0.00000  Uiso   1.00
H1066  H     0.38553   0.70642   0.78769   0.00000  Uiso   1.00
H1067  H     0.52778   0.78978   0.80282   0.00000  Uiso   1.00
H1068  H     0.47222   0.87687   0.69716   0.00000  Uiso   1.00
H1069  H     0.44079   0.78991   0.80288   0.00000  Uiso   1.00
H1070  H     0.55921   0.87675   0.69711   0.00000  Uiso   1.00
N1071  N     0.45069   0.83334   0.74999   0.00000  Uiso   1.00
N1072  N     0.54931   0.83332   0.75001   0.00000  Uiso   1.00
O1073  O     0.37291   0.77322   0.75000   0.00000  Uiso   1.00
O1074  O     0.62709   0.89345   0.75000   0.00000  Uiso   1.00
O1075  O     0.62706   0.77321   0.75000   0.00000  Uiso   1.00
O1076  O     0.37294   0.89346   0.75000   0.00000  Uiso   1.00
O1077  O     0.35186   0.83334   0.81492   0.00000  Uiso   1.00
O1078  O     0.64814   0.83332   0.68508   0.00000  Uiso   1.00
O1079  O     0.60600   0.83333   0.81492   0.00000  Uiso   1.00
O1080  O     0.39400   0.83333   0.68508   0.00000  Uiso   1.00
H1081  H     0.60266   0.81442   0.54381   0.00000  Uiso   1.00
H1082  H     0.40170   0.87567   0.95984   0.00000  Uiso   1.00
H1083  H     0.52020   0.82373   0.58324   0.00000  Uiso   1.00
H1084  H     0.48444   0.86727   0.92050   0.00000  Uiso   1.00
C1085  C     0.60653   0.70649   0.70273   0.00000  Uiso   1.00
N1086  N     0.58251   0.72212   0.68281   0.00000  Uiso   1.00
C1087  C     0.39341   0.96016   0.79733   0.00000  Uiso   1.00
N1088  N     0.41739   0.94453   0.81729   0.00000  Uiso   1.00
C1089  C     0.66669   0.75409   0.74919   0.00000  Uiso   1.00
C1090  C     0.99998   0.91257   0.75081   0.00000  Uiso   1.00
C1091  C     0.86188   0.82711   0.54744   0.00000  Uiso   1.00
C1092  C     0.80825   0.85870   0.95533   0.00000  Uiso   1.00
C1093  C     0.91043   0.82228   0.52485   0.00000  Uiso   1.00
C1094  C     0.75986   0.86429   0.97808   0.00000  Uiso   1.00
C1095  C     0.96985   0.68695   0.72763   0.00000  Uiso   1.00
C1096  C     0.69680   0.97971   0.77239   0.00000  Uiso   1.00
C1097  C     0.97028   0.97763   0.72914   0.00000  Uiso   1.00
C1098  C     0.69638   0.68903   0.77087   0.00000  Uiso   1.00
C1099  C     0.66694   0.95720   0.75115   0.00000  Uiso   1.00
C1100  C     0.99973   0.70946   0.74886   0.00000  Uiso   1.00
C1101  C     0.84941   0.80919   0.77936   0.00000  Uiso   1.00
C1102  C     0.81726   0.85747   0.72064   0.00000  Uiso   1.00
C1103  C     0.79980   0.80924   0.77938   0.00000  Uiso   1.00
C1104  C     0.86686   0.85742   0.72062   0.00000  Uiso   1.00
C1105  C     0.97276   0.83322   0.83608   0.00000  Uiso   1.00
C1106  C     0.69391   0.83391   0.66396   0.00000  Uiso   1.00
C1107  C     0.95780   0.83251   0.88520   0.00000  Uiso   1.00
C1108  C     0.70910   0.83820   0.61510   0.00000  Uiso   1.00
C1109  C     0.97497   0.82043   0.95633   0.00000  Uiso   1.00
C1110  C     0.69423   0.86103   0.54579   0.00000  Uiso   1.00
C1111  C     0.99095   0.82368   0.90993   0.00000  Uiso   1.00
C1112  C     0.67715   0.85267   0.59139   0.00000  Uiso   1.00
C1113  C     0.90899   0.83936   0.90735   0.00000  Uiso   1.00
C1114  C     0.75777   0.83126   0.59269   0.00000  Uiso   1.00
C1115  C     0.89209   0.83737   0.95427   0.00000  Uiso   1.00
C1116  C     0.77642   0.84104   0.54712   0.00000  Uiso   1.00
C1117  C     0.92589   0.82679   0.97860   0.00000  Uiso   1.00
C1118  C     0.74344   0.85534   0.52353   0.00000  Uiso   1.00
C1119  C     0.84246   0.84426   0.97744   0.00000  Uiso   1.00
C1120  C     0.82670   0.83707   0.52448   0.00000  Uiso   1.00
Cu1121 Cu    0.71355   0.83334   0.75000   0.00000  Uiso   1.00
Cu1122 Cu    0.95311   0.83333   0.75000   0.00000  Uiso   1.00
H1123  H     0.78028   0.81807   0.61186   0.00000  Uiso   1.00
H1124  H     0.88458   0.84499   0.88697   0.00000  Uiso   1.00
H1125  H     0.97273   0.85851   0.60825   0.00000  Uiso   1.00
H1126  H     0.69553   0.81816   0.89338   0.00000  Uiso   1.00
H1127  H     0.66755   0.81228   0.97479   0.00000  Uiso   1.00
H1128  H     0.66913   0.87274   0.52807   0.00000  Uiso   1.00
H1129  H     0.94780   0.96024   0.71232   0.00000  Uiso   1.00
H1130  H     0.71886   0.70642   0.78769   0.00000  Uiso   1.00
H1131  H     0.86112   0.78978   0.80282   0.00000  Uiso   1.00
H1132  H     0.80556   0.87687   0.69716   0.00000  Uiso   1.00
H1133  H     0.77413   0.78991   0.80288   0.00000  Uiso   1.00
H1134  H     0.89254   0.87675   0.69711   0.00000  Uiso   1.00
N1135  N     0.78403   0.83334   0.74999   0.00000  Uiso   1.00
N1136  N     0.88264   0.83332   0.75001   0.00000  Uiso   1.00
O1137  O     0.70625   0.77322   0.75000   0.00000  Uiso   1.00
O1138  O     0.96042   0.89345   0.75000   0.00000  Uiso   1.00
O1139  O     0.96039   0.77321   0.75000   0.00000  Uiso   1.00
O1140  O     0.70628   0.89346   0.75000   0.00000  Uiso   1.00
O1141  O     0.68519   0.83334   0.81492   0.00000  Uiso   1.00
O1142  O     0.98148   0.83332   0.68508   0.00000  Uiso   1.00
O1143  O     0.93933   0.83333   0.81492   0.00000  Uiso   1.00
O1144  O     0.72733   0.83333   0.68508   0.00000  Uiso   1.00
H1145  H     0.93599   0.81442   0.54381   0.00000  Uiso   1.00
H1146  H     0.73504   0.87567   0.95984   0.00000  Uiso   1.00
H1147  H     0.85353   0.82373   0.58324   0.00000  Uiso   1.00
H1148  H     0.81778   0.86727   0.92050   0.00000  Uiso   1.00
C1149  C     0.93986   0.70649   0.70273   0.00000  Uiso   1.00
N1150  N     0.91585   0.72212   0.68281   0.00000  Uiso   1.00
C1151  C     0.72675   0.96016   0.79733   0.00000  Uiso   1.00
N1152  N     0.75072   0.94453   0.81729   0.00000  Uiso   1.00
loop_
_geom_bond_atom_site_label_1
_geom_bond_atom_site_label_2
_geom_bond_distance
_geom_bond_site_symmetry_2
_ccdc_geom_bond_type
C1     O49     1.292   .     A
C1     C140    1.450   1_455 S
C1     O179    1.289   1_455 S
C2     O50     1.292   .     A
C2     C75     1.450   .     S
C2     O116    1.289   .     S
C3     C32     1.417   .     A
C3     C5      1.386   .     A
C3     H59     1.076   .     S
C4     H60     1.076   .     S
C4     C31     1.417   .     A
C4     C6      1.387   .     A
C5     H57     1.084   .     S
C5     C605    1.390   1_554 S
C6     H58     1.084   .     S
C6     C606    1.390   .     S
C7     C12     1.410   .     A
C7     C61     1.446   .     S
C7     C393    1.386   1_545 S
C8     C11     1.410   .     A
C8     C63     1.446   .     S
C8     C202    1.386   .     S
C9     H41     1.085   .     S
C9     C199    1.386   .     S
C9     C75     1.399   .     S
C10    H42     1.085   .     S
C10    C392    1.386   1_545 S
C10    C140    1.399   1_455 S
C11    C137    1.399   1_455 S
C11    C130    1.450   1_455 S
C12    C65     1.450   .     S
C12    C74     1.399   .     S
C13    N48     1.367   .     A
C13    H43     1.082   .     S
C13    C15     1.417   .     A
C14    N47     1.367   .     A
C14    C16     1.417   .     A
C14    H44     1.082   .     S
C15    N47     1.367   .     A
C15    H45     1.082   .     S
C16    N48     1.367   .     A
C16    H46     1.082   .     S
C17    O55     1.295   .     A
C17    C19     1.467   .     S
C17    O117    1.296   .     S
C18    O56     1.294   .     A
C18    C20     1.466   .     S
C18    O182    1.296   1_455 S
C19    C23     1.399   .     A
C19    C25     1.399   .     A
C20    C26     1.398   .     A
C20    C24     1.399   .     A
C21    C29     1.404   .     A
C21    C23     1.391   .     A
C21    H103    1.083   .     S
C22    H40     1.084   .     S
C22    C24     1.392   .     A
C22    C30     1.404   .     A
C23    H102    1.083   .     S
C24    H165    1.083   1_455 S
C25    C27     1.405   .     A
C25    H36     1.075   .     S
C26    C28     1.405   .     A
C26    H35     1.075   .     S
C27    C29     1.418   .     A
C27    C31     1.427   .     A
C28    C30     1.418   .     A
C28    C32     1.426   .     A
C29    C581    1.390   .     S
C30    C582    1.390   1_554 S
C31    C608    1.424   .     S
C32    C607    1.424   1_554 S
Cu33   O56     1.944   .     S
Cu33   O52     1.965   .     S
Cu33   O53     1.958   .     S
Cu33   N47     2.013   .     S
Cu33   O49     1.963   .     S
Cu33   Cu162   2.678   1_455 S
Cu34   O55     1.944   .     S
Cu34   O51     1.965   .     S
Cu34   O54     1.958   .     S
Cu34   O50     1.963   .     S
Cu34   N48     2.013   .     S
Cu34   Cu97    2.678   .     S
H37    C88     1.083   .     S
H38    C151    1.083   1_455 S
H39    C149    1.083   1_455 S
O51    C65     1.289   .     S
O52    C130    1.289   1_455 S
O53    C145    1.296   1_455 S
O54    C82     1.296   .     S
C61    N62     1.157   .     T
C63    N64     1.157   .     T
C65    O113    1.292   .     A
C66    O114    1.292   .     A
C66    C139    1.450   .     S
C66    O180    1.289   .     S
C67    C96     1.417   .     A
C67    C69     1.386   .     A
C67    H123    1.076   .     S
C68    H124    1.076   .     S
C68    C95     1.417   .     A
C68    C70     1.387   .     A
C69    H121    1.084   .     S
C69    C669    1.390   1_554 S
C70    H122    1.084   .     S
C70    C670    1.390   .     S
C71    C76     1.410   .     A
C71    C125    1.446   .     S
C71    C457    1.386   1_545 S
C72    C75     1.410   .     A
C72    C127    1.446   .     S
C72    C266    1.386   .     S
C73    H105    1.085   .     S
C73    C263    1.386   .     S
C73    C139    1.399   .     S
C74    H106    1.085   .     S
C74    C456    1.386   1_545 S
C76    C129    1.450   .     S
C76    C138    1.399   .     S
C77    N112    1.367   .     A
C77    H107    1.082   .     S
C77    C79     1.417   .     A
C78    N111    1.367   .     A
C78    C80     1.417   .     A
C78    H108    1.082   .     S
C79    N111    1.367   .     A
C79    H109    1.082   .     S
C80    N112    1.367   .     A
C80    H110    1.082   .     S
C81    O119    1.295   .     A
C81    C83     1.467   .     S
C81    O181    1.296   .     S
C82    O120    1.294   .     A
C82    C84     1.466   .     S
C83    C87     1.399   .     A
C83    C89     1.399   .     A
C84    C90     1.398   .     A
C84    C88     1.399   .     A
C85    C93     1.404   .     A
C85    C87     1.391   .     A
C85    H167    1.083   .     S
C86    H104    1.084   .     S
C86    C88     1.392   .     A
C86    C94     1.404   .     A
C87    H166    1.083   .     S
C89    C91     1.405   .     A
C89    H100    1.075   .     S
C90    C92     1.405   .     A
C90    H99     1.075   .     S
C91    C93     1.418   .     A
C91    C95     1.427   .     A
C92    C94     1.418   .     A
C92    C96     1.426   .     A
C93    C645    1.390   .     S
C94    C646    1.390   1_554 S
C95    C672    1.424   .     S
C96    C671    1.424   1_554 S
Cu97   O120    1.944   .     S
Cu97   O116    1.965   .     S
Cu97   O117    1.958   .     S
Cu97   N111    2.013   .     S
Cu97   O113    1.963   .     S
Cu98   O119    1.944   .     S
Cu98   O115    1.965   .     S
Cu98   O118    1.958   .     S
Cu98   O114    1.963   .     S
Cu98   N112    2.013   .     S
Cu98   Cu161   2.678   .     S
H101   C152    1.083   .     S
O115   C129    1.289   .     S
O118   C146    1.296   .     S
C125   N126    1.157   .     T
C127   N128    1.157   .     T
C129   O177    1.292   .     A
C130   O178    1.292   .     A
C130   C11     1.450   1_655 S
C130   O52     1.289   1_655 S
C131   C160    1.417   .     A
C131   C133    1.386   .     A
C131   H187    1.076   .     S
C132   H188    1.076   .     S
C132   C159    1.417   .     A
C132   C134    1.387   .     A
C133   H185    1.084   .     S
C133   C733    1.390   1_554 S
C134   H186    1.084   .     S
C134   C734    1.390   .     S
C135   C140    1.410   .     A
C135   C189    1.446   .     S
C135   C521    1.386   1_545 S
C136   C139    1.410   .     A
C136   C191    1.446   .     S
C136   C330    1.386   .     S
C137   H169    1.085   .     S
C137   C327    1.386   .     S
C137   C11     1.399   1_655 S
C138   H170    1.085   .     S
C138   C520    1.386   1_545 S
C140   C1      1.450   1_655 S
C140   C10     1.399   1_655 S
C141   N176    1.367   .     A
C141   H171    1.082   .     S
C141   C143    1.417   .     A
C142   N175    1.367   .     A
C142   C144    1.417   .     A
C142   H172    1.082   .     S
C143   N175    1.367   .     A
C143   H173    1.082   .     S
C144   N176    1.367   .     A
C144   H174    1.082   .     S
C145   O183    1.295   .     A
C145   C147    1.467   .     S
C145   O53     1.296   1_655 S
C146   O184    1.294   .     A
C146   C148    1.466   .     S
C147   C151    1.399   .     A
C147   C153    1.399   .     A
C148   C154    1.398   .     A
C148   C152    1.399   .     A
C149   C157    1.404   .     A
C149   C151    1.391   .     A
C149   H39     1.083   1_655 S
C150   H168    1.084   .     S
C150   C152    1.392   .     A
C150   C158    1.404   .     A
C151   H38     1.083   1_655 S
C153   C155    1.405   .     A
C153   H164    1.075   .     S
C154   C156    1.405   .     A
C154   H163    1.075   .     S
C155   C157    1.418   .     A
C155   C159    1.427   .     A
C156   C158    1.418   .     A
C156   C160    1.426   .     A
C157   C709    1.390   .     S
C158   C710    1.390   1_554 S
C159   C736    1.424   .     S
C160   C735    1.424   1_554 S
Cu161  O184    1.944   .     S
Cu161  O180    1.965   .     S
Cu161  O181    1.958   .     S
Cu161  N175    2.013   .     S
Cu161  O177    1.963   .     S
Cu162  O183    1.944   .     S
Cu162  O179    1.965   .     S
Cu162  O182    1.958   .     S
Cu162  O178    1.963   .     S
Cu162  N176    2.013   .     S
Cu162  Cu33    2.678   1_655 S
H165   C24     1.083   1_655 S
O179   C1      1.289   1_655 S
O182   C18     1.296   1_655 S
C189   N190    1.157   .     T
C191   N192    1.157   .     T
C193   O241    1.292   .     A
C193   C332    1.450   1_455 S
C193   O371    1.289   1_455 S
C194   O242    1.292   .     A
C194   C267    1.450   .     S
C194   O308    1.289   .     S
C195   C224    1.417   .     A
C195   C197    1.386   .     A
C195   H251    1.076   .     S
C196   H252    1.076   .     S
C196   C223    1.417   .     A
C196   C198    1.387   .     A
C197   H249    1.084   .     S
C197   C797    1.390   1_554 S
C198   H250    1.084   .     S
C198   C798    1.390   .     S
C199   C204    1.410   .     A
C199   C253    1.446   .     S
C200   C203    1.410   .     A
C200   C255    1.446   .     S
C200   C394    1.386   .     S
C201   H233    1.085   .     S
C201   C391    1.386   .     S
C201   C267    1.399   .     S
C202   H234    1.085   .     S
C202   C332    1.399   1_455 S
C203   C329    1.399   1_455 S
C203   C322    1.450   1_455 S
C204   C257    1.450   .     S
C204   C266    1.399   .     S
C205   N240    1.367   .     A
C205   H235    1.082   .     S
C205   C207    1.417   .     A
C206   N239    1.367   .     A
C206   C208    1.417   .     A
C206   H236    1.082   .     S
C207   N239    1.367   .     A
C207   H237    1.082   .     S
C208   N240    1.367   .     A
C208   H238    1.082   .     S
C209   O247    1.295   .     A
C209   C211    1.467   .     S
C209   O309    1.296   .     S
C210   O248    1.294   .     A
C210   C212    1.466   .     S
C210   O374    1.296   1_455 S
C211   C215    1.399   .     A
C211   C217    1.399   .     A
C212   C218    1.398   .     A
C212   C216    1.399   .     A
C213   C221    1.404   .     A
C213   C215    1.391   .     A
C213   H295    1.083   .     S
C214   H232    1.084   .     S
C214   C216    1.392   .     A
C214   C222    1.404   .     A
C215   H294    1.083   .     S
C216   H357    1.083   1_455 S
C217   C219    1.405   .     A
C217   H228    1.075   .     S
C218   C220    1.405   .     A
C218   H227    1.075   .     S
C219   C221    1.418   .     A
C219   C223    1.427   .     A
C220   C222    1.418   .     A
C220   C224    1.426   .     A
C221   C773    1.390   .     S
C222   C774    1.390   1_554 S
C223   C800    1.424   .     S
C224   C799    1.424   1_554 S
Cu225  O248    1.944   .     S
Cu225  O244    1.965   .     S
Cu225  O245    1.958   .     S
Cu225  N239    2.013   .     S
Cu225  O241    1.963   .     S
Cu225  Cu354   2.678   1_455 S
Cu226  O247    1.944   .     S
Cu226  O243    1.965   .     S
Cu226  O246    1.958   .     S
Cu226  O242    1.963   .     S
Cu226  N240    2.013   .     S
Cu226  Cu289   2.678   .     S
H229   C280    1.083   .     S
H230   C343    1.083   1_455 S
H231   C341    1.083   1_455 S
O243   C257    1.289   .     S
O244   C322    1.289   1_455 S
O245   C337    1.296   1_455 S
O246   C274    1.296   .     S
C253   N254    1.157   .     T
C255   N256    1.157   .     T
C257   O305    1.292   .     A
C258   O306    1.292   .     A
C258   C331    1.450   .     S
C258   O372    1.289   .     S
C259   C288    1.417   .     A
C259   C261    1.386   .     A
C259   H315    1.076   .     S
C260   H316    1.076   .     S
C260   C287    1.417   .     A
C260   C262    1.387   .     A
C261   H313    1.084   .     S
C261   C861    1.390   1_554 S
C262   H314    1.084   .     S
C262   C862    1.390   .     S
C263   C268    1.410   .     A
C263   C317    1.446   .     S
C264   C267    1.410   .     A
C264   C319    1.446   .     S
C264   C458    1.386   .     S
C265   H297    1.085   .     S
C265   C455    1.386   .     S
C265   C331    1.399   .     S
C266   H298    1.085   .     S
C268   C321    1.450   .     S
C268   C330    1.399   .     S
C269   N304    1.367   .     A
C269   H299    1.082   .     S
C269   C271    1.417   .     A
C270   N303    1.367   .     A
C270   C272    1.417   .     A
C270   H300    1.082   .     S
C271   N303    1.367   .     A
C271   H301    1.082   .     S
C272   N304    1.367   .     A
C272   H302    1.082   .     S
C273   O311    1.295   .     A
C273   C275    1.467   .     S
C273   O373    1.296   .     S
C274   O312    1.294   .     A
C274   C276    1.466   .     S
C275   C279    1.399   .     A
C275   C281    1.399   .     A
C276   C282    1.398   .     A
C276   C280    1.399   .     A
C277   C285    1.404   .     A
C277   C279    1.391   .     A
C277   H359    1.083   .     S
C278   H296    1.084   .     S
C278   C280    1.392   .     A
C278   C286    1.404   .     A
C279   H358    1.083   .     S
C281   C283    1.405   .     A
C281   H292    1.075   .     S
C282   C284    1.405   .     A
C282   H291    1.075   .     S
C283   C285    1.418   .     A
C283   C287    1.427   .     A
C284   C286    1.418   .     A
C284   C288    1.426   .     A
C285   C837    1.390   .     S
C286   C838    1.390   1_554 S
C287   C864    1.424   .     S
C288   C863    1.424   1_554 S
Cu289  O312    1.944   .     S
Cu289  O308    1.965   .     S
Cu289  O309    1.958   .     S
Cu289  N303    2.013   .     S
Cu289  O305    1.963   .     S
Cu290  O311    1.944   .     S
Cu290  O307    1.965   .     S
Cu290  O310    1.958   .     S
Cu290  O306    1.963   .     S
Cu290  N304    2.013   .     S
Cu290  Cu353   2.678   .     S
H293   C344    1.083   .     S
O307   C321    1.289   .     S
O310   C338    1.296   .     S
C317   N318    1.157   .     T
C319   N320    1.157   .     T
C321   O369    1.292   .     A
C322   O370    1.292   .     A
C322   C203    1.450   1_655 S
C322   O244    1.289   1_655 S
C323   C352    1.417   .     A
C323   C325    1.386   .     A
C323   H379    1.076   .     S
C324   H380    1.076   .     S
C324   C351    1.417   .     A
C324   C326    1.387   .     A
C325   H377    1.084   .     S
C325   C925    1.390   1_554 S
C326   H378    1.084   .     S
C326   C926    1.390   .     S
C327   C332    1.410   .     A
C327   C381    1.446   .     S
C328   C331    1.410   .     A
C328   C383    1.446   .     S
C328   C522    1.386   .     S
C329   H361    1.085   .     S
C329   C519    1.386   .     S
C329   C203    1.399   1_655 S
C330   H362    1.085   .     S
C332   C193    1.450   1_655 S
C332   C202    1.399   1_655 S
C333   N368    1.367   .     A
C333   H363    1.082   .     S
C333   C335    1.417   .     A
C334   N367    1.367   .     A
C334   C336    1.417   .     A
C334   H364    1.082   .     S
C335   N367    1.367   .     A
C335   H365    1.082   .     S
C336   N368    1.367   .     A
C336   H366    1.082   .     S
C337   O375    1.295   .     A
C337   C339    1.467   .     S
C337   O245    1.296   1_655 S
C338   O376    1.294   .     A
C338   C340    1.466   .     S
C339   C343    1.399   .     A
C339   C345    1.399   .     A
C340   C346    1.398   .     A
C340   C344    1.399   .     A
C341   C349    1.404   .     A
C341   C343    1.391   .     A
C341   H231    1.083   1_655 S
C342   H360    1.084   .     S
C342   C344    1.392   .     A
C342   C350    1.404   .     A
C343   H230    1.083   1_655 S
C345   C347    1.405   .     A
C345   H356    1.075   .     S
C346   C348    1.405   .     A
C346   H355    1.075   .     S
C347   C349    1.418   .     A
C347   C351    1.427   .     A
C348   C350    1.418   .     A
C348   C352    1.426   .     A
C349   C901    1.390   .     S
C350   C902    1.390   1_554 S
C351   C928    1.424   .     S
C352   C927    1.424   1_554 S
Cu353  O376    1.944   .     S
Cu353  O372    1.965   .     S
Cu353  O373    1.958   .     S
Cu353  N367    2.013   .     S
Cu353  O369    1.963   .     S
Cu354  O375    1.944   .     S
Cu354  O371    1.965   .     S
Cu354  O374    1.958   .     S
Cu354  O370    1.963   .     S
Cu354  N368    2.013   .     S
Cu354  Cu225   2.678   1_655 S
H357   C216    1.083   1_655 S
O371   C193    1.289   1_655 S
O374   C210    1.296   1_655 S
C381   N382    1.157   .     T
C383   N384    1.157   .     T
C385   O433    1.292   .     A
C385   C524    1.450   1_455 S
C385   O563    1.289   1_455 S
C386   O434    1.292   .     A
C386   C459    1.450   .     S
C386   O500    1.289   .     S
C387   C416    1.417   .     A
C387   C389    1.386   .     A
C387   H443    1.076   .     S
C388   H444    1.076   .     S
C388   C415    1.417   .     A
C388   C390    1.387   .     A
C389   H441    1.084   .     S
C389   C989    1.390   1_554 S
C390   H442    1.084   .     S
C390   C990    1.390   .     S
C391   C396    1.410   .     A
C391   C445    1.446   .     S
C392   C395    1.410   .     A
C392   C447    1.446   .     S
C392   C10     1.386   1_565 S
C393   H425    1.085   .     S
C393   C7      1.386   1_565 S
C393   C459    1.399   .     S
C394   H426    1.085   .     S
C394   C524    1.399   1_455 S
C395   C521    1.399   1_455 S
C395   C514    1.450   1_455 S
C396   C449    1.450   .     S
C396   C458    1.399   .     S
C397   N432    1.367   .     A
C397   H427    1.082   .     S
C397   C399    1.417   .     A
C398   N431    1.367   .     A
C398   C400    1.417   .     A
C398   H428    1.082   .     S
C399   N431    1.367   .     A
C399   H429    1.082   .     S
C400   N432    1.367   .     A
C400   H430    1.082   .     S
C401   O439    1.295   .     A
C401   C403    1.467   .     S
C401   O501    1.296   .     S
C402   O440    1.294   .     A
C402   C404    1.466   .     S
C402   O566    1.296   1_455 S
C403   C407    1.399   .     A
C403   C409    1.399   .     A
C404   C410    1.398   .     A
C404   C408    1.399   .     A
C405   C413    1.404   .     A
C405   C407    1.391   .     A
C405   H487    1.083   .     S
C406   H424    1.084   .     S
C406   C408    1.392   .     A
C406   C414    1.404   .     A
C407   H486    1.083   .     S
C408   H549    1.083   1_455 S
C409   C411    1.405   .     A
C409   H420    1.075   .     S
C410   C412    1.405   .     A
C410   H419    1.075   .     S
C411   C413    1.418   .     A
C411   C415    1.427   .     A
C412   C414    1.418   .     A
C412   C416    1.426   .     A
C413   C965    1.390   .     S
C414   C966    1.390   1_554 S
C415   C992    1.424   .     S
C416   C991    1.424   1_554 S
Cu417  O440    1.944   .     S
Cu417  O436    1.965   .     S
Cu417  O437    1.958   .     S
Cu417  N431    2.013   .     S
Cu417  O433    1.963   .     S
Cu417  Cu546   2.678   1_455 S
Cu418  O439    1.944   .     S
Cu418  O435    1.965   .     S
Cu418  O438    1.958   .     S
Cu418  O434    1.963   .     S
Cu418  N432    2.013   .     S
Cu418  Cu481   2.678   .     S
H421   C472    1.083   .     S
H422   C535    1.083   1_455 S
H423   C533    1.083   1_455 S
O435   C449    1.289   .     S
O436   C514    1.289   1_455 S
O437   C529    1.296   1_455 S
O438   C466    1.296   .     S
C445   N446    1.157   .     T
C447   N448    1.157   .     T
C449   O497    1.292   .     A
C450   O498    1.292   .     A
C450   C523    1.450   .     S
C450   O564    1.289   .     S
C451   C480    1.417   .     A
C451   C453    1.386   .     A
C451   H507    1.076   .     S
C452   H508    1.076   .     S
C452   C479    1.417   .     A
C452   C454    1.387   .     A
C453   H505    1.084   .     S
C453   C1053   1.390   1_554 S
C454   H506    1.084   .     S
C454   C1054   1.390   .     S
C455   C460    1.410   .     A
C455   C509    1.446   .     S
C456   C459    1.410   .     A
C456   C511    1.446   .     S
C456   C74     1.386   1_565 S
C457   H489    1.085   .     S
C457   C71     1.386   1_565 S
C457   C523    1.399   .     S
C458   H490    1.085   .     S
C460   C513    1.450   .     S
C460   C522    1.399   .     S
C461   N496    1.367   .     A
C461   H491    1.082   .     S
C461   C463    1.417   .     A
C462   N495    1.367   .     A
C462   C464    1.417   .     A
C462   H492    1.082   .     S
C463   N495    1.367   .     A
C463   H493    1.082   .     S
C464   N496    1.367   .     A
C464   H494    1.082   .     S
C465   O503    1.295   .     A
C465   C467    1.467   .     S
C465   O565    1.296   .     S
C466   O504    1.294   .     A
C466   C468    1.466   .     S
C467   C471    1.399   .     A
C467   C473    1.399   .     A
C468   C474    1.398   .     A
C468   C472    1.399   .     A
C469   C477    1.404   .     A
C469   C471    1.391   .     A
C469   H551    1.083   .     S
C470   H488    1.084   .     S
C470   C472    1.392   .     A
C470   C478    1.404   .     A
C471   H550    1.083   .     S
C473   C475    1.405   .     A
C473   H484    1.075   .     S
C474   C476    1.405   .     A
C474   H483    1.075   .     S
C475   C477    1.418   .     A
C475   C479    1.427   .     A
C476   C478    1.418   .     A
C476   C480    1.426   .     A
C477   C1029   1.390   .     S
C478   C1030   1.390   1_554 S
C479   C1056   1.424   .     S
C480   C1055   1.424   1_554 S
Cu481  O504    1.944   .     S
Cu481  O500    1.965   .     S
Cu481  O501    1.958   .     S
Cu481  N495    2.013   .     S
Cu481  O497    1.963   .     S
Cu482  O503    1.944   .     S
Cu482  O499    1.965   .     S
Cu482  O502    1.958   .     S
Cu482  O498    1.963   .     S
Cu482  N496    2.013   .     S
Cu482  Cu545   2.678   .     S
H485   C536    1.083   .     S
O499   C513    1.289   .     S
O502   C530    1.296   .     S
C509   N510    1.157   .     T
C511   N512    1.157   .     T
C513   O561    1.292   .     A
C514   O562    1.292   .     A
C514   C395    1.450   1_655 S
C514   O436    1.289   1_655 S
C515   C544    1.417   .     A
C515   C517    1.386   .     A
C515   H571    1.076   .     S
C516   H572    1.076   .     S
C516   C543    1.417   .     A
C516   C518    1.387   .     A
C517   H569    1.084   .     S
C517   C1117   1.390   1_554 S
C518   H570    1.084   .     S
C518   C1118   1.390   .     S
C519   C524    1.410   .     A
C519   C573    1.446   .     S
C520   C523    1.410   .     A
C520   C575    1.446   .     S
C520   C138    1.386   1_565 S
C521   H553    1.085   .     S
C521   C135    1.386   1_565 S
C521   C395    1.399   1_655 S
C522   H554    1.085   .     S
C524   C385    1.450   1_655 S
C524   C394    1.399   1_655 S
C525   N560    1.367   .     A
C525   H555    1.082   .     S
C525   C527    1.417   .     A
C526   N559    1.367   .     A
C526   C528    1.417   .     A
C526   H556    1.082   .     S
C527   N559    1.367   .     A
C527   H557    1.082   .     S
C528   N560    1.367   .     A
C528   H558    1.082   .     S
C529   O567    1.295   .     A
C529   C531    1.467   .     S
C529   O437    1.296   1_655 S
C530   O568    1.294   .     A
C530   C532    1.466   .     S
C531   C535    1.399   .     A
C531   C537    1.399   .     A
C532   C538    1.398   .     A
C532   C536    1.399   .     A
C533   C541    1.404   .     A
C533   C535    1.391   .     A
C533   H423    1.083   1_655 S
C534   H552    1.084   .     S
C534   C536    1.392   .     A
C534   C542    1.404   .     A
C535   H422    1.083   1_655 S
C537   C539    1.405   .     A
C537   H548    1.075   .     S
C538   C540    1.405   .     A
C538   H547    1.075   .     S
C539   C541    1.418   .     A
C539   C543    1.427   .     A
C540   C542    1.418   .     A
C540   C544    1.426   .     A
C541   C1093   1.390   .     S
C542   C1094   1.390   1_554 S
C543   C1120   1.424   .     S
C544   C1119   1.424   1_554 S
Cu545  O568    1.944   .     S
Cu545  O564    1.965   .     S
Cu545  O565    1.958   .     S
Cu545  N559    2.013   .     S
Cu545  O561    1.963   .     S
Cu546  O567    1.944   .     S
Cu546  O563    1.965   .     S
Cu546  O566    1.958   .     S
Cu546  O562    1.963   .     S
Cu546  N560    2.013   .     S
Cu546  Cu417   2.678   1_655 S
H549   C408    1.083   1_655 S
O563   C385    1.289   1_655 S
O566   C402    1.296   1_655 S
C573   N574    1.157   .     T
C575   N576    1.157   .     T
C577   O625    1.292   .     A
C577   C716    1.450   1_455 S
C577   O755    1.289   1_455 S
C578   O626    1.292   .     A
C578   C651    1.450   .     S
C578   O692    1.289   .     S
C579   C608    1.417   .     A
C579   C581    1.386   .     A
C579   H635    1.076   .     S
C580   H636    1.076   .     S
C580   C607    1.417   .     A
C580   C582    1.387   .     A
C581   H633    1.084   .     S
C582   H634    1.084   .     S
C582   C30     1.390   1_556 S
C583   C588    1.410   .     A
C583   C637    1.446   .     S
C583   C969    1.386   1_545 S
C584   C587    1.410   .     A
C584   C639    1.446   .     S
C584   C778    1.386   .     S
C585   H617    1.085   .     S
C585   C775    1.386   .     S
C585   C651    1.399   .     S
C586   H618    1.085   .     S
C586   C968    1.386   1_545 S
C586   C716    1.399   1_455 S
C587   C713    1.399   1_455 S
C587   C706    1.450   1_455 S
C588   C641    1.450   .     S
C588   C650    1.399   .     S
C589   N624    1.367   .     A
C589   H619    1.082   .     S
C589   C591    1.417   .     A
C590   N623    1.367   .     A
C590   C592    1.417   .     A
C590   H620    1.082   .     S
C591   N623    1.367   .     A
C591   H621    1.082   .     S
C592   N624    1.367   .     A
C592   H622    1.082   .     S
C593   O631    1.295   .     A
C593   C595    1.467   .     S
C593   O693    1.296   .     S
C594   O632    1.294   .     A
C594   C596    1.466   .     S
C594   O758    1.296   1_455 S
C595   C599    1.399   .     A
C595   C601    1.399   .     A
C596   C602    1.398   .     A
C596   C600    1.399   .     A
C597   C605    1.404   .     A
C597   C599    1.391   .     A
C597   H679    1.083   .     S
C598   H616    1.084   .     S
C598   C600    1.392   .     A
C598   C606    1.404   .     A
C599   H678    1.083   .     S
C600   H741    1.083   1_455 S
C601   C603    1.405   .     A
C601   H612    1.075   .     S
C602   C604    1.405   .     A
C602   H611    1.075   .     S
C603   C605    1.418   .     A
C603   C607    1.427   .     A
C604   C606    1.418   .     A
C604   C608    1.426   .     A
C605   C5      1.390   1_556 S
C607   C32     1.424   1_556 S
Cu609  O632    1.944   .     S
Cu609  O628    1.965   .     S
Cu609  O629    1.958   .     S
Cu609  N623    2.013   .     S
Cu609  O625    1.963   .     S
Cu609  Cu738   2.678   1_455 S
Cu610  O631    1.944   .     S
Cu610  O627    1.965   .     S
Cu610  O630    1.958   .     S
Cu610  O626    1.963   .     S
Cu610  N624    2.013   .     S
Cu610  Cu673   2.678   .     S
H613   C664    1.083   .     S
H614   C727    1.083   1_455 S
H615   C725    1.083   1_455 S
O627   C641    1.289   .     S
O628   C706    1.289   1_455 S
O629   C721    1.296   1_455 S
O630   C658    1.296   .     S
C637   N638    1.157   .     T
C639   N640    1.157   .     T
C641   O689    1.292   .     A
C642   O690    1.292   .     A
C642   C715    1.450   .     S
C642   O756    1.289   .     S
C643   C672    1.417   .     A
C643   C645    1.386   .     A
C643   H699    1.076   .     S
C644   H700    1.076   .     S
C644   C671    1.417   .     A
C644   C646    1.387   .     A
C645   H697    1.084   .     S
C646   H698    1.084   .     S
C646   C94     1.390   1_556 S
C647   C652    1.410   .     A
C647   C701    1.446   .     S
C647   C1033   1.386   1_545 S
C648   C651    1.410   .     A
C648   C703    1.446   .     S
C648   C842    1.386   .     S
C649   H681    1.085   .     S
C649   C839    1.386   .     S
C649   C715    1.399   .     S
C650   H682    1.085   .     S
C650   C1032   1.386   1_545 S
C652   C705    1.450   .     S
C652   C714    1.399   .     S
C653   N688    1.367   .     A
C653   H683    1.082   .     S
C653   C655    1.417   .     A
C654   N687    1.367   .     A
C654   C656    1.417   .     A
C654   H684    1.082   .     S
C655   N687    1.367   .     A
C655   H685    1.082   .     S
C656   N688    1.367   .     A
C656   H686    1.082   .     S
C657   O695    1.295   .     A
C657   C659    1.467   .     S
C657   O757    1.296   .     S
C658   O696    1.294   .     A
C658   C660    1.466   .     S
C659   C663    1.399   .     A
C659   C665    1.399   .     A
C660   C666    1.398   .     A
C660   C664    1.399   .     A
C661   C669    1.404   .     A
C661   C663    1.391   .     A
C661   H743    1.083   .     S
C662   H680    1.084   .     S
C662   C664    1.392   .     A
C662   C670    1.404   .     A
C663   H742    1.083   .     S
C665   C667    1.405   .     A
C665   H676    1.075   .     S
C666   C668    1.405   .     A
C666   H675    1.075   .     S
C667   C669    1.418   .     A
C667   C671    1.427   .     A
C668   C670    1.418   .     A
C668   C672    1.426   .     A
C669   C69     1.390   1_556 S
C671   C96     1.424   1_556 S
Cu673  O696    1.944   .     S
Cu673  O692    1.965   .     S
Cu673  O693    1.958   .     S
Cu673  N687    2.013   .     S
Cu673  O689    1.963   .     S
Cu674  O695    1.944   .     S
Cu674  O691    1.965   .     S
Cu674  O694    1.958   .     S
Cu674  O690    1.963   .     S
Cu674  N688    2.013   .     S
Cu674  Cu737   2.678   .     S
H677   C728    1.083   .     S
O691   C705    1.289   .     S
O694   C722    1.296   .     S
C701   N702    1.157   .     T
C703   N704    1.157   .     T
C705   O753    1.292   .     A
C706   O754    1.292   .     A
C706   C587    1.450   1_655 S
C706   O628    1.289   1_655 S
C707   C736    1.417   .     A
C707   C709    1.386   .     A
C707   H763    1.076   .     S
C708   H764    1.076   .     S
C708   C735    1.417   .     A
C708   C710    1.387   .     A
C709   H761    1.084   .     S
C710   H762    1.084   .     S
C710   C158    1.390   1_556 S
C711   C716    1.410   .     A
C711   C765    1.446   .     S
C711   C1097   1.386   1_545 S
C712   C715    1.410   .     A
C712   C767    1.446   .     S
C712   C906    1.386   .     S
C713   H745    1.085   .     S
C713   C903    1.386   .     S
C713   C587    1.399   1_655 S
C714   H746    1.085   .     S
C714   C1096   1.386   1_545 S
C716   C577    1.450   1_655 S
C716   C586    1.399   1_655 S
C717   N752    1.367   .     A
C717   H747    1.082   .     S
C717   C719    1.417   .     A
C718   N751    1.367   .     A
C718   C720    1.417   .     A
C718   H748    1.082   .     S
C719   N751    1.367   .     A
C719   H749    1.082   .     S
C720   N752    1.367   .     A
C720   H750    1.082   .     S
C721   O759    1.295   .     A
C721   C723    1.467   .     S
C721   O629    1.296   1_655 S
C722   O760    1.294   .     A
C722   C724    1.466   .     S
C723   C727    1.399   .     A
C723   C729    1.399   .     A
C724   C730    1.398   .     A
C724   C728    1.399   .     A
C725   C733    1.404   .     A
C725   C727    1.391   .     A
C725   H615    1.083   1_655 S
C726   H744    1.084   .     S
C726   C728    1.392   .     A
C726   C734    1.404   .     A
C727   H614    1.083   1_655 S
C729   C731    1.405   .     A
C729   H740    1.075   .     S
C730   C732    1.405   .     A
C730   H739    1.075   .     S
C731   C733    1.418   .     A
C731   C735    1.427   .     A
C732   C734    1.418   .     A
C732   C736    1.426   .     A
C733   C133    1.390   1_556 S
C735   C160    1.424   1_556 S
Cu737  O760    1.944   .     S
Cu737  O756    1.965   .     S
Cu737  O757    1.958   .     S
Cu737  N751    2.013   .     S
Cu737  O753    1.963   .     S
Cu738  O759    1.944   .     S
Cu738  O755    1.965   .     S
Cu738  O758    1.958   .     S
Cu738  O754    1.963   .     S
Cu738  N752    2.013   .     S
Cu738  Cu609   2.678   1_655 S
H741   C600    1.083   1_655 S
O755   C577    1.289   1_655 S
O758   C594    1.296   1_655 S
C765   N766    1.157   .     T
C767   N768    1.157   .     T
C769   O817    1.292   .     A
C769   C908    1.450   1_455 S
C769   O947    1.289   1_455 S
C770   O818    1.292   .     A
C770   C843    1.450   .     S
C770   O884    1.289   .     S
C771   C800    1.417   .     A
C771   C773    1.386   .     A
C771   H827    1.076   .     S
C772   H828    1.076   .     S
C772   C799    1.417   .     A
C772   C774    1.387   .     A
C773   H825    1.084   .     S
C774   H826    1.084   .     S
C774   C222    1.390   1_556 S
C775   C780    1.410   .     A
C775   C829    1.446   .     S
C776   C779    1.410   .     A
C776   C831    1.446   .     S
C776   C970    1.386   .     S
C777   H809    1.085   .     S
C777   C967    1.386   .     S
C777   C843    1.399   .     S
C778   H810    1.085   .     S
C778   C908    1.399   1_455 S
C779   C905    1.399   1_455 S
C779   C898    1.450   1_455 S
C780   C833    1.450   .     S
C780   C842    1.399   .     S
C781   N816    1.367   .     A
C781   H811    1.082   .     S
C781   C783    1.417   .     A
C782   N815    1.367   .     A
C782   C784    1.417   .     A
C782   H812    1.082   .     S
C783   N815    1.367   .     A
C783   H813    1.082   .     S
C784   N816    1.367   .     A
C784   H814    1.082   .     S
C785   O823    1.295   .     A
C785   C787    1.467   .     S
C785   O885    1.296   .     S
C786   O824    1.294   .     A
C786   C788    1.466   .     S
C786   O950    1.296   1_455 S
C787   C791    1.399   .     A
C787   C793    1.399   .     A
C788   C794    1.398   .     A
C788   C792    1.399   .     A
C789   C797    1.404   .     A
C789   C791    1.391   .     A
C789   H871    1.083   .     S
C790   H808    1.084   .     S
C790   C792    1.392   .     A
C790   C798    1.404   .     A
C791   H870    1.083   .     S
C792   H933    1.083   1_455 S
C793   C795    1.405   .     A
C793   H804    1.075   .     S
C794   C796    1.405   .     A
C794   H803    1.075   .     S
C795   C797    1.418   .     A
C795   C799    1.427   .     A
C796   C798    1.418   .     A
C796   C800    1.426   .     A
C797   C197    1.390   1_556 S
C799   C224    1.424   1_556 S
Cu801  O824    1.944   .     S
Cu801  O820    1.965   .     S
Cu801  O821    1.958   .     S
Cu801  N815    2.013   .     S
Cu801  O817    1.963   .     S
Cu801  Cu930   2.678   1_455 S
Cu802  O823    1.944   .     S
Cu802  O819    1.965   .     S
Cu802  O822    1.958   .     S
Cu802  O818    1.963   .     S
Cu802  N816    2.013   .     S
Cu802  Cu865   2.678   .     S
H805   C856    1.083   .     S
H806   C919    1.083   1_455 S
H807   C917    1.083   1_455 S
O819   C833    1.289   .     S
O820   C898    1.289   1_455 S
O821   C913    1.296   1_455 S
O822   C850    1.296   .     S
C829   N830    1.157   .     T
C831   N832    1.157   .     T
C833   O881    1.292   .     A
C834   O882    1.292   .     A
C834   C907    1.450   .     S
C834   O948    1.289   .     S
C835   C864    1.417   .     A
C835   C837    1.386   .     A
C835   H891    1.076   .     S
C836   H892    1.076   .     S
C836   C863    1.417   .     A
C836   C838    1.387   .     A
C837   H889    1.084   .     S
C838   H890    1.084   .     S
C838   C286    1.390   1_556 S
C839   C844    1.410   .     A
C839   C893    1.446   .     S
C840   C843    1.410   .     A
C840   C895    1.446   .     S
C840   C1034   1.386   .     S
C841   H873    1.085   .     S
C841   C1031   1.386   .     S
C841   C907    1.399   .     S
C842   H874    1.085   .     S
C844   C897    1.450   .     S
C844   C906    1.399   .     S
C845   N880    1.367   .     A
C845   H875    1.082   .     S
C845   C847    1.417   .     A
C846   N879    1.367   .     A
C846   C848    1.417   .     A
C846   H876    1.082   .     S
C847   N879    1.367   .     A
C847   H877    1.082   .     S
C848   N880    1.367   .     A
C848   H878    1.082   .     S
C849   O887    1.295   .     A
C849   C851    1.467   .     S
C849   O949    1.296   .     S
C850   O888    1.294   .     A
C850   C852    1.466   .     S
C851   C855    1.399   .     A
C851   C857    1.399   .     A
C852   C858    1.398   .     A
C852   C856    1.399   .     A
C853   C861    1.404   .     A
C853   C855    1.391   .     A
C853   H935    1.083   .     S
C854   H872    1.084   .     S
C854   C856    1.392   .     A
C854   C862    1.404   .     A
C855   H934    1.083   .     S
C857   C859    1.405   .     A
C857   H868    1.075   .     S
C858   C860    1.405   .     A
C858   H867    1.075   .     S
C859   C861    1.418   .     A
C859   C863    1.427   .     A
C860   C862    1.418   .     A
C860   C864    1.426   .     A
C861   C261    1.390   1_556 S
C863   C288    1.424   1_556 S
Cu865  O888    1.944   .     S
Cu865  O884    1.965   .     S
Cu865  O885    1.958   .     S
Cu865  N879    2.013   .     S
Cu865  O881    1.963   .     S
Cu866  O887    1.944   .     S
Cu866  O883    1.965   .     S
Cu866  O886    1.958   .     S
Cu866  O882    1.963   .     S
Cu866  N880    2.013   .     S
Cu866  Cu929   2.678   .     S
H869   C920    1.083   .     S
O883   C897    1.289   .     S
O886   C914    1.296   .     S
C893   N894    1.157   .     T
C895   N896    1.157   .     T
C897   O945    1.292   .     A
C898   O946    1.292   .     A
C898   C779    1.450   1_655 S
C898   O820    1.289   1_655 S
C899   C928    1.417   .     A
C899   C901    1.386   .     A
C899   H955    1.076   .     S
C900   H956    1.076   .     S
C900   C927    1.417   .     A
C900   C902    1.387   .     A
C901   H953    1.084   .     S
C902   H954    1.084   .     S
C902   C350    1.390   1_556 S
C903   C908    1.410   .     A
C903   C957    1.446   .     S
C904   C907    1.410   .     A
C904   C959    1.446   .     S
C904   C1098   1.386   .     S
C905   H937    1.085   .     S
C905   C1095   1.386   .     S
C905   C779    1.399   1_655 S
C906   H938    1.085   .     S
C908   C769    1.450   1_655 S
C908   C778    1.399   1_655 S
C909   N944    1.367   .     A
C909   H939    1.082   .     S
C909   C911    1.417   .     A
C910   N943    1.367   .     A
C910   C912    1.417   .     A
C910   H940    1.082   .     S
C911   N943    1.367   .     A
C911   H941    1.082   .     S
C912   N944    1.367   .     A
C912   H942    1.082   .     S
C913   O951    1.295   .     A
C913   C915    1.467   .     S
C913   O821    1.296   1_655 S
C914   O952    1.294   .     A
C914   C916    1.466   .     S
C915   C919    1.399   .     A
C915   C921    1.399   .     A
C916   C922    1.398   .     A
C916   C920    1.399   .     A
C917   C925    1.404   .     A
C917   C919    1.391   .     A
C917   H807    1.083   1_655 S
C918   H936    1.084   .     S
C918   C920    1.392   .     A
C918   C926    1.404   .     A
C919   H806    1.083   1_655 S
C921   C923    1.405   .     A
C921   H932    1.075   .     S
C922   C924    1.405   .     A
C922   H931    1.075   .     S
C923   C925    1.418   .     A
C923   C927    1.427   .     A
C924   C926    1.418   .     A
C924   C928    1.426   .     A
C925   C325    1.390   1_556 S
C927   C352    1.424   1_556 S
Cu929  O952    1.944   .     S
Cu929  O948    1.965   .     S
Cu929  O949    1.958   .     S
Cu929  N943    2.013   .     S
Cu929  O945    1.963   .     S
Cu930  O951    1.944   .     S
Cu930  O947    1.965   .     S
Cu930  O950    1.958   .     S
Cu930  O946    1.963   .     S
Cu930  N944    2.013   .     S
Cu930  Cu801   2.678   1_655 S
H933   C792    1.083   1_655 S
O947   C769    1.289   1_655 S
O950   C786    1.296   1_655 S
C957   N958    1.157   .     T
C959   N960    1.157   .     T
C961   O1009   1.292   .     A
C961   C1100   1.450   1_455 S
C961   O1139   1.289   1_455 S
C962   O1010   1.292   .     A
C962   C1035   1.450   .     S
C962   O1076   1.289   .     S
C963   C992    1.417   .     A
C963   C965    1.386   .     A
C963   H1019   1.076   .     S
C964   H1020   1.076   .     S
C964   C991    1.417   .     A
C964   C966    1.387   .     A
C965   H1017   1.084   .     S
C966   H1018   1.084   .     S
C966   C414    1.390   1_556 S
C967   C972    1.410   .     A
C967   C1021   1.446   .     S
C968   C971    1.410   .     A
C968   C1023   1.446   .     S
C968   C586    1.386   1_565 S
C969   H1001   1.085   .     S
C969   C583    1.386   1_565 S
C969   C1035   1.399   .     S
C970   H1002   1.085   .     S
C970   C1100   1.399   1_455 S
C971   C1097   1.399   1_455 S
C971   C1090   1.450   1_455 S
C972   C1025   1.450   .     S
C972   C1034   1.399   .     S
C973   N1008   1.367   .     A
C973   H1003   1.082   .     S
C973   C975    1.417   .     A
C974   N1007   1.367   .     A
C974   C976    1.417   .     A
C974   H1004   1.082   .     S
C975   N1007   1.367   .     A
C975   H1005   1.082   .     S
C976   N1008   1.367   .     A
C976   H1006   1.082   .     S
C977   O1015   1.295   .     A
C977   C979    1.467   .     S
C977   O1077   1.296   .     S
C978   O1016   1.294   .     A
C978   C980    1.466   .     S
C978   O1142   1.296   1_455 S
C979   C983    1.399   .     A
C979   C985    1.399   .     A
C980   C986    1.398   .     A
C980   C984    1.399   .     A
C981   C989    1.404   .     A
C981   C983    1.391   .     A
C981   H1063   1.083   .     S
C982   H1000   1.084   .     S
C982   C984    1.392   .     A
C982   C990    1.404   .     A
C983   H1062   1.083   .     S
C984   H1125   1.083   1_455 S
C985   C987    1.405   .     A
C985   H996    1.075   .     S
C986   C988    1.405   .     A
C986   H995    1.075   .     S
C987   C989    1.418   .     A
C987   C991    1.427   .     A
C988   C990    1.418   .     A
C988   C992    1.426   .     A
C989   C389    1.390   1_556 S
C991   C416    1.424   1_556 S
Cu993  O1016   1.944   .     S
Cu993  O1012   1.965   .     S
Cu993  O1013   1.958   .     S
Cu993  N1007   2.013   .     S
Cu993  O1009   1.963   .     S
Cu993  Cu1122  2.678   1_455 S
Cu994  O1015   1.944   .     S
Cu994  O1011   1.965   .     S
Cu994  O1014   1.958   .     S
Cu994  O1010   1.963   .     S
Cu994  N1008   2.013   .     S
Cu994  Cu1057  2.678   .     S
H997   C1048   1.083   .     S
H998   C1111   1.083   1_455 S
H999   C1109   1.083   1_455 S
O1011  C1025   1.289   .     S
O1012  C1090   1.289   1_455 S
O1013  C1105   1.296   1_455 S
O1014  C1042   1.296   .     S
C1021  N1022   1.157   .     T
C1023  N1024   1.157   .     T
C1025  O1073   1.292   .     A
C1026  O1074   1.292   .     A
C1026  C1099   1.450   .     S
C1026  O1140   1.289   .     S
C1027  C1056   1.417   .     A
C1027  C1029   1.386   .     A
C1027  H1083   1.076   .     S
C1028  H1084   1.076   .     S
C1028  C1055   1.417   .     A
C1028  C1030   1.387   .     A
C1029  H1081   1.084   .     S
C1030  H1082   1.084   .     S
C1030  C478    1.390   1_556 S
C1031  C1036   1.410   .     A
C1031  C1085   1.446   .     S
C1032  C1035   1.410   .     A
C1032  C1087   1.446   .     S
C1032  C650    1.386   1_565 S
C1033  H1065   1.085   .     S
C1033  C647    1.386   1_565 S
C1033  C1099   1.399   .     S
C1034  H1066   1.085   .     S
C1036  C1089   1.450   .     S
C1036  C1098   1.399   .     S
C1037  N1072   1.367   .     A
C1037  H1067   1.082   .     S
C1037  C1039   1.417   .     A
C1038  N1071   1.367   .     A
C1038  C1040   1.417   .     A
C1038  H1068   1.082   .     S
C1039  N1071   1.367   .     A
C1039  H1069   1.082   .     S
C1040  N1072   1.367   .     A
C1040  H1070   1.082   .     S
C1041  O1079   1.295   .     A
C1041  C1043   1.467   .     S
C1041  O1141   1.296   .     S
C1042  O1080   1.294   .     A
C1042  C1044   1.466   .     S
C1043  C1047   1.399   .     A
C1043  C1049   1.399   .     A
C1044  C1050   1.398   .     A
C1044  C1048   1.399   .     A
C1045  C1053   1.404   .     A
C1045  C1047   1.391   .     A
C1045  H1127   1.083   .     S
C1046  H1064   1.084   .     S
C1046  C1048   1.392   .     A
C1046  C1054   1.404   .     A
C1047  H1126   1.083   .     S
C1049  C1051   1.405   .     A
C1049  H1060   1.075   .     S
C1050  C1052   1.405   .     A
C1050  H1059   1.075   .     S
C1051  C1053   1.418   .     A
C1051  C1055   1.427   .     A
C1052  C1054   1.418   .     A
C1052  C1056   1.426   .     A
C1053  C453    1.390   1_556 S
C1055  C480    1.424   1_556 S
Cu1057 O1080   1.944   .     S
Cu1057 O1076   1.965   .     S
Cu1057 O1077   1.958   .     S
Cu1057 N1071   2.013   .     S
Cu1057 O1073   1.963   .     S
Cu1058 O1079   1.944   .     S
Cu1058 O1075   1.965   .     S
Cu1058 O1078   1.958   .     S
Cu1058 O1074   1.963   .     S
Cu1058 N1072   2.013   .     S
Cu1058 Cu1121  2.678   .     S
H1061  C1112   1.083   .     S
O1075  C1089   1.289   .     S
O1078  C1106   1.296   .     S
C1085  N1086   1.157   .     T
C1087  N1088   1.157   .     T
C1089  O1137   1.292   .     A
C1090  O1138   1.292   .     A
C1090  C971    1.450   1_655 S
C1090  O1012   1.289   1_655 S
C1091  C1120   1.417   .     A
C1091  C1093   1.386   .     A
C1091  H1147   1.076   .     S
C1092  H1148   1.076   .     S
C1092  C1119   1.417   .     A
C1092  C1094   1.387   .     A
C1093  H1145   1.084   .     S
C1094  H1146   1.084   .     S
C1094  C542    1.390   1_556 S
C1095  C1100   1.410   .     A
C1095  C1149   1.446   .     S
C1096  C1099   1.410   .     A
C1096  C1151   1.446   .     S
C1096  C714    1.386   1_565 S
C1097  H1129   1.085   .     S
C1097  C711    1.386   1_565 S
C1097  C971    1.399   1_655 S
C1098  H1130   1.085   .     S
C1100  C961    1.450   1_655 S
C1100  C970    1.399   1_655 S
C1101  N1136   1.367   .     A
C1101  H1131   1.082   .     S
C1101  C1103   1.417   .     A
C1102  N1135   1.367   .     A
C1102  C1104   1.417   .     A
C1102  H1132   1.082   .     S
C1103  N1135   1.367   .     A
C1103  H1133   1.082   .     S
C1104  N1136   1.367   .     A
C1104  H1134   1.082   .     S
C1105  O1143   1.295   .     A
C1105  C1107   1.467   .     S
C1105  O1013   1.296   1_655 S
C1106  O1144   1.294   .     A
C1106  C1108   1.466   .     S
C1107  C1111   1.399   .     A
C1107  C1113   1.399   .     A
C1108  C1114   1.398   .     A
C1108  C1112   1.399   .     A
C1109  C1117   1.404   .     A
C1109  C1111   1.391   .     A
C1109  H999    1.083   1_655 S
C1110  H1128   1.084   .     S
C1110  C1112   1.392   .     A
C1110  C1118   1.404   .     A
C1111  H998    1.083   1_655 S
C1113  C1115   1.405   .     A
C1113  H1124   1.075   .     S
C1114  C1116   1.405   .     A
C1114  H1123   1.075   .     S
C1115  C1117   1.418   .     A
C1115  C1119   1.427   .     A
C1116  C1118   1.418   .     A
C1116  C1120   1.426   .     A
C1117  C517    1.390   1_556 S
C1119  C544    1.424   1_556 S
Cu1121 O1144   1.944   .     S
Cu1121 O1140   1.965   .     S
Cu1121 O1141   1.958   .     S
Cu1121 N1135   2.013   .     S
Cu1121 O1137   1.963   .     S
Cu1122 O1143   1.944   .     S
Cu1122 O1139   1.965   .     S
Cu1122 O1142   1.958   .     S
Cu1122 O1138   1.963   .     S
Cu1122 N1136   2.013   .     S
Cu1122 Cu993   2.678   1_655 S
H1125  C984    1.083   1_655 S
O1139  C961    1.289   1_655 S
O1142  C978    1.296   1_655 S
C1149  N1150   1.157   .     T
C1151  N1152   1.157   .     T
