data_str_m2_o1_o5_pcu_sym.45
_audit_creation_date              2020-01-03
_audit_creation_method            'Materials Studio'
_symmetry_space_group_name_H-M    'P1'
_symmetry_Int_Tables_number       1
_symmetry_cell_setting            triclinic
loop_
_symmetry_equiv_pos_as_xyz
  x,y,z
_cell_length_a                    32.6978
_cell_length_b                    29.1482
_cell_length_c                    27.2258
_cell_angle_alpha                 89.9394
_cell_angle_beta                  92.6685
_cell_angle_gamma                 89.6523
loop_
_atom_site_label
_atom_site_type_symbol
_atom_site_fract_x
_atom_site_fract_y
_atom_site_fract_z
_atom_site_U_iso_or_equiv
_atom_site_adp_type
_atom_site_occupancy
C1     C     0.08768   0.16681   0.16609   0.00000  Uiso   1.00
C2     C     0.02137   0.20658   0.17913   0.00000  Uiso   1.00
C3     C     0.29071   0.16704   0.16240   0.00000  Uiso   1.00
C4     C     0.04312   0.16719   0.16483   0.00000  Uiso   1.00
C5     C     0.15514   0.02387   0.12538   0.00000  Uiso   1.00
C6     C     0.18344   0.30843   0.20578   0.00000  Uiso   1.00
C7     C     0.18098   0.02419   0.20715   0.00000  Uiso   1.00
C8     C     0.14954   0.30869   0.12793   0.00000  Uiso   1.00
C9     C     0.05064   0.09708   0.08060   0.00000  Uiso   1.00
C10    C     0.01274   0.09868   0.04521   0.00000  Uiso   1.00
C11    C     0.02529   0.09742   0.32540   0.00000  Uiso   1.00
C12    C     0.24584   0.16664   0.16521   0.00000  Uiso   1.00
C13    C     0.28109   0.26416   0.12020   0.00000  Uiso   1.00
C14    C     0.31492   0.28974   0.09482   0.00000  Uiso   1.00
C15    C     0.30124   0.30308   0.04243   0.00000  Uiso   1.00
C16    C     0.29142   0.06206   0.19279   0.00000  Uiso   1.00
C17    C     0.33195   0.03982   0.21122   0.00000  Uiso   1.00
C18    C     0.32453   0.00697   0.25322   0.00000  Uiso   1.00
C19    C     0.05578   0.23492   0.24881   0.00000  Uiso   1.00
C20    C     0.02240   0.22254   0.28445   0.00000  Uiso   1.00
C21    C     0.03969   0.22254   0.00421   0.00000  Uiso   1.00
C22    C     0.15969   0.04246   0.07595   0.00000  Uiso   1.00
C23    C     0.16646   0.16669   0.07373   0.00000  Uiso   1.00
C24    C     0.20507   0.28440   0.24721   0.00000  Uiso   1.00
C25    C     0.19817   0.04731   0.25149   0.00000  Uiso   1.00
C26    C     0.12418   0.28500   0.08916   0.00000  Uiso   1.00
C27    C     0.16668   0.16665   0.25959   0.00000  Uiso   1.00
C28    C     0.16642   0.16670   0.02188   0.00000  Uiso   1.00
C29    C     0.16650   0.16666   0.31143   0.00000  Uiso   1.00
C30    C     0.02137   0.12834   0.14786   0.00000  Uiso   1.00
C31    C     0.31268   0.20863   0.16873   0.00000  Uiso   1.00
C32    C     0.31281   0.12621   0.15382   0.00000  Uiso   1.00
Cu33   Cu    0.16667   0.21355   0.16667   0.00000  Uiso   1.00
Cu34   Cu    0.16667   0.11978   0.16667   0.00000  Uiso   1.00
H35    H     0.06963   0.06742   0.07016   0.00000  Uiso   1.00
H36    H     0.32253   0.32149   0.11518   0.00000  Uiso   1.00
H37    H     0.00951   0.26795   0.09419   0.00000  Uiso   1.00
H38    H     0.29187   0.27231   0.02081   0.00000  Uiso   1.00
H39    H     0.32714   0.31971   0.02465   0.00000  Uiso   1.00
H40    H     0.27513   0.32763   0.04266   0.00000  Uiso   1.00
H41    H     0.26786   0.03494   0.18803   0.00000  Uiso   1.00
H42    H     0.28141   0.08602   0.22173   0.00000  Uiso   1.00
H43    H     0.01326   0.02077   0.18164   0.00000  Uiso   1.00
H44    H     0.02027   0.06672   0.22456   0.00000  Uiso   1.00
H45    H     0.30741   0.02441   0.28217   0.00000  Uiso   1.00
H46    H     0.06945   0.12842   0.07625   0.00000  Uiso   1.00
H47    H     0.02091   0.32764   0.26939   0.00000  Uiso   1.00
H48    H     0.30623   0.31091   0.23923   0.00000  Uiso   1.00
H49    H     0.07192   0.26610   0.26259   0.00000  Uiso   1.00
H50    H     0.07912   0.20715   0.24983   0.00000  Uiso   1.00
H51    H     0.32992   0.24719   0.28090   0.00000  Uiso   1.00
H52    H     0.01019   0.18794   0.27547   0.00000  Uiso   1.00
H53    H     0.06716   0.20003   0.00835   0.00000  Uiso   1.00
H54    H     0.01619   0.20986   0.02892   0.00000  Uiso   1.00
H55    H     0.04848   0.25787   0.01539   0.00000  Uiso   1.00
H56    H     0.13334   0.04922   0.05144   0.00000  Uiso   1.00
H57    H     0.32606   0.06895   0.05213   0.00000  Uiso   1.00
H58    H     0.19266   0.28517   0.28348   0.00000  Uiso   1.00
H59    H     0.22108   0.07345   0.24866   0.00000  Uiso   1.00
H60    H     0.10266   0.25905   0.09923   0.00000  Uiso   1.00
H61    H     0.32839   0.13071   0.05105   0.00000  Uiso   1.00
H62    H     0.04775   0.12468   0.31835   0.00000  Uiso   1.00
H63    H     0.33117   0.10275   0.30049   0.00000  Uiso   1.00
H64    H     0.03965   0.06381   0.31751   0.00000  Uiso   1.00
H65    H     0.25429   0.28759   0.12246   0.00000  Uiso   1.00
H66    H     0.27061   0.23460   0.09692   0.00000  Uiso   1.00
N67    N     0.16667   0.28402   0.16667   0.00000  Uiso   1.00
N68    N     0.16667   0.04931   0.16667   0.00000  Uiso   1.00
O69    O     0.10655   0.20625   0.16666   0.00000  Uiso   1.00
O70    O     0.29373   0.25128   0.16895   0.00000  Uiso   1.00
O71    O     0.29391   0.08429   0.14676   0.00000  Uiso   1.00
O72    O     0.04024   0.24478   0.20021   0.00000  Uiso   1.00
O73    O     0.19401   0.04819   0.06126   0.00000  Uiso   1.00
O74    O     0.23750   0.26475   0.24168   0.00000  Uiso   1.00
O75    O     0.18587   0.03807   0.29191   0.00000  Uiso   1.00
O76    O     0.12711   0.29359   0.04556   0.00000  Uiso   1.00
O77    O     0.22679   0.12709   0.16667   0.00000  Uiso   1.00
O78    O     0.22679   0.20625   0.16667   0.00000  Uiso   1.00
O79    O     0.10655   0.12709   0.16666   0.00000  Uiso   1.00
O80    O     0.16667   0.20625   0.09613   0.00000  Uiso   1.00
O81    O     0.16667   0.12708   0.23720   0.00000  Uiso   1.00
O82    O     0.16667   0.20625   0.23720   0.00000  Uiso   1.00
O83    O     0.16667   0.12708   0.09613   0.00000  Uiso   1.00
O84    O     0.04065   0.08982   0.12999   0.00000  Uiso   1.00
C85    C     0.42101   0.16681   0.16609   0.00000  Uiso   1.00
C86    C     0.35471   0.20658   0.17913   0.00000  Uiso   1.00
C87    C     0.62404   0.16704   0.16240   0.00000  Uiso   1.00
C88    C     0.37645   0.16719   0.16483   0.00000  Uiso   1.00
C89    C     0.48847   0.02387   0.12538   0.00000  Uiso   1.00
C90    C     0.51678   0.30843   0.20578   0.00000  Uiso   1.00
C91    C     0.51431   0.02419   0.20715   0.00000  Uiso   1.00
C92    C     0.48288   0.30869   0.12793   0.00000  Uiso   1.00
C93    C     0.38398   0.09708   0.08060   0.00000  Uiso   1.00
C94    C     0.34608   0.09868   0.04521   0.00000  Uiso   1.00
C95    C     0.35862   0.09742   0.32540   0.00000  Uiso   1.00
C96    C     0.57917   0.16664   0.16521   0.00000  Uiso   1.00
C97    C     0.61442   0.26416   0.12020   0.00000  Uiso   1.00
C98    C     0.64825   0.28974   0.09482   0.00000  Uiso   1.00
C99    C     0.63458   0.30308   0.04243   0.00000  Uiso   1.00
C100   C     0.62476   0.06206   0.19279   0.00000  Uiso   1.00
C101   C     0.66528   0.03982   0.21122   0.00000  Uiso   1.00
C102   C     0.65787   0.00697   0.25322   0.00000  Uiso   1.00
C103   C     0.38911   0.23492   0.24881   0.00000  Uiso   1.00
C104   C     0.35573   0.22254   0.28445   0.00000  Uiso   1.00
C105   C     0.37303   0.22254   0.00421   0.00000  Uiso   1.00
C106   C     0.49303   0.04246   0.07595   0.00000  Uiso   1.00
C107   C     0.49979   0.16669   0.07373   0.00000  Uiso   1.00
C108   C     0.53840   0.28440   0.24721   0.00000  Uiso   1.00
C109   C     0.53151   0.04731   0.25149   0.00000  Uiso   1.00
C110   C     0.45751   0.28500   0.08916   0.00000  Uiso   1.00
C111   C     0.50001   0.16665   0.25959   0.00000  Uiso   1.00
C112   C     0.49975   0.16670   0.02188   0.00000  Uiso   1.00
C113   C     0.49983   0.16666   0.31143   0.00000  Uiso   1.00
C114   C     0.35470   0.12834   0.14786   0.00000  Uiso   1.00
C115   C     0.64601   0.20863   0.16873   0.00000  Uiso   1.00
C116   C     0.64614   0.12621   0.15382   0.00000  Uiso   1.00
Cu117  Cu    0.50000   0.21355   0.16667   0.00000  Uiso   1.00
Cu118  Cu    0.50000   0.11978   0.16667   0.00000  Uiso   1.00
H119   H     0.40296   0.06742   0.07016   0.00000  Uiso   1.00
H120   H     0.65586   0.32149   0.11518   0.00000  Uiso   1.00
H121   H     0.34284   0.26795   0.09419   0.00000  Uiso   1.00
H122   H     0.62520   0.27231   0.02081   0.00000  Uiso   1.00
H123   H     0.66047   0.31971   0.02465   0.00000  Uiso   1.00
H124   H     0.60846   0.32763   0.04266   0.00000  Uiso   1.00
H125   H     0.60119   0.03494   0.18803   0.00000  Uiso   1.00
H126   H     0.61474   0.08602   0.22173   0.00000  Uiso   1.00
H127   H     0.34660   0.02077   0.18164   0.00000  Uiso   1.00
H128   H     0.35360   0.06672   0.22456   0.00000  Uiso   1.00
H129   H     0.64074   0.02441   0.28217   0.00000  Uiso   1.00
H130   H     0.40279   0.12842   0.07625   0.00000  Uiso   1.00
H131   H     0.35424   0.32764   0.26939   0.00000  Uiso   1.00
H132   H     0.63957   0.31091   0.23923   0.00000  Uiso   1.00
H133   H     0.40525   0.26610   0.26259   0.00000  Uiso   1.00
H134   H     0.41246   0.20715   0.24983   0.00000  Uiso   1.00
H135   H     0.66325   0.24719   0.28090   0.00000  Uiso   1.00
H136   H     0.34353   0.18794   0.27547   0.00000  Uiso   1.00
H137   H     0.40049   0.20003   0.00835   0.00000  Uiso   1.00
H138   H     0.34953   0.20986   0.02892   0.00000  Uiso   1.00
H139   H     0.38181   0.25787   0.01539   0.00000  Uiso   1.00
H140   H     0.46668   0.04922   0.05144   0.00000  Uiso   1.00
H141   H     0.65939   0.06895   0.05213   0.00000  Uiso   1.00
H142   H     0.52599   0.28517   0.28348   0.00000  Uiso   1.00
H143   H     0.55441   0.07345   0.24866   0.00000  Uiso   1.00
H144   H     0.43599   0.25905   0.09923   0.00000  Uiso   1.00
H145   H     0.66172   0.13071   0.05105   0.00000  Uiso   1.00
H146   H     0.38109   0.12468   0.31835   0.00000  Uiso   1.00
H147   H     0.66450   0.10275   0.30049   0.00000  Uiso   1.00
H148   H     0.37298   0.06381   0.31751   0.00000  Uiso   1.00
H149   H     0.58762   0.28759   0.12246   0.00000  Uiso   1.00
H150   H     0.60394   0.23460   0.09692   0.00000  Uiso   1.00
N151   N     0.50000   0.28402   0.16667   0.00000  Uiso   1.00
N152   N     0.50000   0.04931   0.16667   0.00000  Uiso   1.00
O153   O     0.43988   0.20625   0.16666   0.00000  Uiso   1.00
O154   O     0.62706   0.25128   0.16895   0.00000  Uiso   1.00
O155   O     0.62724   0.08429   0.14676   0.00000  Uiso   1.00
O156   O     0.37358   0.24478   0.20021   0.00000  Uiso   1.00
O157   O     0.52735   0.04819   0.06126   0.00000  Uiso   1.00
O158   O     0.57083   0.26475   0.24168   0.00000  Uiso   1.00
O159   O     0.51920   0.03807   0.29191   0.00000  Uiso   1.00
O160   O     0.46045   0.29359   0.04556   0.00000  Uiso   1.00
O161   O     0.56012   0.12709   0.16667   0.00000  Uiso   1.00
O162   O     0.56012   0.20625   0.16667   0.00000  Uiso   1.00
O163   O     0.43988   0.12709   0.16666   0.00000  Uiso   1.00
O164   O     0.50000   0.20625   0.09613   0.00000  Uiso   1.00
O165   O     0.50000   0.12708   0.23720   0.00000  Uiso   1.00
O166   O     0.50000   0.20625   0.23720   0.00000  Uiso   1.00
O167   O     0.50000   0.12708   0.09613   0.00000  Uiso   1.00
O168   O     0.37398   0.08982   0.12999   0.00000  Uiso   1.00
C169   C     0.75435   0.16681   0.16609   0.00000  Uiso   1.00
C170   C     0.68804   0.20658   0.17913   0.00000  Uiso   1.00
C171   C     0.95738   0.16704   0.16240   0.00000  Uiso   1.00
C172   C     0.70978   0.16719   0.16483   0.00000  Uiso   1.00
C173   C     0.82180   0.02387   0.12538   0.00000  Uiso   1.00
C174   C     0.85011   0.30843   0.20578   0.00000  Uiso   1.00
C175   C     0.84764   0.02419   0.20715   0.00000  Uiso   1.00
C176   C     0.81621   0.30869   0.12793   0.00000  Uiso   1.00
C177   C     0.71731   0.09708   0.08060   0.00000  Uiso   1.00
C178   C     0.67941   0.09868   0.04521   0.00000  Uiso   1.00
C179   C     0.69195   0.09742   0.32540   0.00000  Uiso   1.00
C180   C     0.91250   0.16664   0.16521   0.00000  Uiso   1.00
C181   C     0.94776   0.26416   0.12020   0.00000  Uiso   1.00
C182   C     0.98158   0.28974   0.09482   0.00000  Uiso   1.00
C183   C     0.96791   0.30308   0.04243   0.00000  Uiso   1.00
C184   C     0.95809   0.06206   0.19279   0.00000  Uiso   1.00
C185   C     0.99861   0.03982   0.21122   0.00000  Uiso   1.00
C186   C     0.99120   0.00697   0.25322   0.00000  Uiso   1.00
C187   C     0.72244   0.23492   0.24881   0.00000  Uiso   1.00
C188   C     0.68906   0.22254   0.28445   0.00000  Uiso   1.00
C189   C     0.70636   0.22254   0.00421   0.00000  Uiso   1.00
C190   C     0.82636   0.04246   0.07595   0.00000  Uiso   1.00
C191   C     0.83312   0.16669   0.07373   0.00000  Uiso   1.00
C192   C     0.87174   0.28440   0.24721   0.00000  Uiso   1.00
C193   C     0.86484   0.04731   0.25149   0.00000  Uiso   1.00
C194   C     0.79085   0.28500   0.08916   0.00000  Uiso   1.00
C195   C     0.83334   0.16665   0.25959   0.00000  Uiso   1.00
C196   C     0.83309   0.16670   0.02188   0.00000  Uiso   1.00
C197   C     0.83317   0.16666   0.31143   0.00000  Uiso   1.00
C198   C     0.68803   0.12834   0.14786   0.00000  Uiso   1.00
C199   C     0.97934   0.20863   0.16873   0.00000  Uiso   1.00
C200   C     0.97947   0.12621   0.15382   0.00000  Uiso   1.00
Cu201  Cu    0.83333   0.21355   0.16667   0.00000  Uiso   1.00
Cu202  Cu    0.83333   0.11978   0.16667   0.00000  Uiso   1.00
H203   H     0.73630   0.06742   0.07016   0.00000  Uiso   1.00
H204   H     0.98920   0.32149   0.11518   0.00000  Uiso   1.00
H205   H     0.67617   0.26795   0.09419   0.00000  Uiso   1.00
H206   H     0.95853   0.27231   0.02081   0.00000  Uiso   1.00
H207   H     0.99380   0.31971   0.02465   0.00000  Uiso   1.00
H208   H     0.94180   0.32763   0.04266   0.00000  Uiso   1.00
H209   H     0.93453   0.03494   0.18803   0.00000  Uiso   1.00
H210   H     0.94808   0.08602   0.22173   0.00000  Uiso   1.00
H211   H     0.67993   0.02077   0.18164   0.00000  Uiso   1.00
H212   H     0.68693   0.06672   0.22456   0.00000  Uiso   1.00
H213   H     0.97408   0.02441   0.28217   0.00000  Uiso   1.00
H214   H     0.73612   0.12842   0.07625   0.00000  Uiso   1.00
H215   H     0.68758   0.32764   0.26939   0.00000  Uiso   1.00
H216   H     0.97290   0.31091   0.23923   0.00000  Uiso   1.00
H217   H     0.73859   0.26610   0.26259   0.00000  Uiso   1.00
H218   H     0.74579   0.20715   0.24983   0.00000  Uiso   1.00
H219   H     0.99659   0.24719   0.28090   0.00000  Uiso   1.00
H220   H     0.67686   0.18794   0.27547   0.00000  Uiso   1.00
H221   H     0.73382   0.20003   0.00835   0.00000  Uiso   1.00
H222   H     0.68286   0.20986   0.02892   0.00000  Uiso   1.00
H223   H     0.71515   0.25787   0.01539   0.00000  Uiso   1.00
H224   H     0.80001   0.04922   0.05144   0.00000  Uiso   1.00
H225   H     0.99272   0.06895   0.05213   0.00000  Uiso   1.00
H226   H     0.85932   0.28517   0.28348   0.00000  Uiso   1.00
H227   H     0.88775   0.07345   0.24866   0.00000  Uiso   1.00
H228   H     0.76933   0.25905   0.09923   0.00000  Uiso   1.00
H229   H     0.99505   0.13071   0.05105   0.00000  Uiso   1.00
H230   H     0.71442   0.12468   0.31835   0.00000  Uiso   1.00
H231   H     0.99784   0.10275   0.30049   0.00000  Uiso   1.00
H232   H     0.70632   0.06381   0.31751   0.00000  Uiso   1.00
H233   H     0.92096   0.28759   0.12246   0.00000  Uiso   1.00
H234   H     0.93727   0.23460   0.09692   0.00000  Uiso   1.00
N235   N     0.83333   0.28402   0.16667   0.00000  Uiso   1.00
N236   N     0.83333   0.04931   0.16667   0.00000  Uiso   1.00
O237   O     0.77321   0.20625   0.16666   0.00000  Uiso   1.00
O238   O     0.96039   0.25128   0.16895   0.00000  Uiso   1.00
O239   O     0.96058   0.08429   0.14676   0.00000  Uiso   1.00
O240   O     0.70691   0.24478   0.20021   0.00000  Uiso   1.00
O241   O     0.86068   0.04819   0.06126   0.00000  Uiso   1.00
O242   O     0.90416   0.26475   0.24168   0.00000  Uiso   1.00
O243   O     0.85253   0.03807   0.29191   0.00000  Uiso   1.00
O244   O     0.79378   0.29359   0.04556   0.00000  Uiso   1.00
O245   O     0.89345   0.12709   0.16667   0.00000  Uiso   1.00
O246   O     0.89345   0.20625   0.16667   0.00000  Uiso   1.00
O247   O     0.77321   0.12709   0.16666   0.00000  Uiso   1.00
O248   O     0.83333   0.20625   0.09613   0.00000  Uiso   1.00
O249   O     0.83333   0.12708   0.23720   0.00000  Uiso   1.00
O250   O     0.83333   0.20625   0.23720   0.00000  Uiso   1.00
O251   O     0.83333   0.12708   0.09613   0.00000  Uiso   1.00
O252   O     0.70732   0.08982   0.12999   0.00000  Uiso   1.00
C253   C     0.08768   0.50015   0.16609   0.00000  Uiso   1.00
C254   C     0.02137   0.53991   0.17913   0.00000  Uiso   1.00
C255   C     0.29071   0.50038   0.16240   0.00000  Uiso   1.00
C256   C     0.04312   0.50052   0.16483   0.00000  Uiso   1.00
C257   C     0.15514   0.35720   0.12538   0.00000  Uiso   1.00
C258   C     0.18344   0.64177   0.20578   0.00000  Uiso   1.00
C259   C     0.18098   0.35752   0.20715   0.00000  Uiso   1.00
C260   C     0.14954   0.64203   0.12793   0.00000  Uiso   1.00
C261   C     0.05064   0.43041   0.08060   0.00000  Uiso   1.00
C262   C     0.01274   0.43201   0.04521   0.00000  Uiso   1.00
C263   C     0.02529   0.43075   0.32540   0.00000  Uiso   1.00
C264   C     0.24584   0.49997   0.16521   0.00000  Uiso   1.00
C265   C     0.28109   0.59749   0.12020   0.00000  Uiso   1.00
C266   C     0.31492   0.62307   0.09482   0.00000  Uiso   1.00
C267   C     0.30124   0.63641   0.04243   0.00000  Uiso   1.00
C268   C     0.29142   0.39540   0.19279   0.00000  Uiso   1.00
C269   C     0.33195   0.37316   0.21122   0.00000  Uiso   1.00
C270   C     0.32453   0.34030   0.25322   0.00000  Uiso   1.00
C271   C     0.05578   0.56825   0.24881   0.00000  Uiso   1.00
C272   C     0.02240   0.55588   0.28445   0.00000  Uiso   1.00
C273   C     0.03969   0.55588   0.00421   0.00000  Uiso   1.00
C274   C     0.15969   0.37580   0.07595   0.00000  Uiso   1.00
C275   C     0.16646   0.50002   0.07373   0.00000  Uiso   1.00
C276   C     0.20507   0.61774   0.24721   0.00000  Uiso   1.00
C277   C     0.19817   0.38064   0.25149   0.00000  Uiso   1.00
C278   C     0.12418   0.61833   0.08916   0.00000  Uiso   1.00
C279   C     0.16668   0.49999   0.25959   0.00000  Uiso   1.00
C280   C     0.16642   0.50003   0.02188   0.00000  Uiso   1.00
C281   C     0.16650   0.49999   0.31143   0.00000  Uiso   1.00
C282   C     0.02137   0.46167   0.14786   0.00000  Uiso   1.00
C283   C     0.31268   0.54196   0.16873   0.00000  Uiso   1.00
C284   C     0.31281   0.45954   0.15382   0.00000  Uiso   1.00
Cu285  Cu    0.16667   0.54689   0.16667   0.00000  Uiso   1.00
Cu286  Cu    0.16667   0.45311   0.16667   0.00000  Uiso   1.00
H287   H     0.06963   0.40076   0.07016   0.00000  Uiso   1.00
H288   H     0.32253   0.65482   0.11518   0.00000  Uiso   1.00
H289   H     0.00951   0.60128   0.09419   0.00000  Uiso   1.00
H290   H     0.29187   0.60564   0.02081   0.00000  Uiso   1.00
H291   H     0.32714   0.65304   0.02465   0.00000  Uiso   1.00
H292   H     0.27513   0.66096   0.04266   0.00000  Uiso   1.00
H293   H     0.26786   0.36828   0.18803   0.00000  Uiso   1.00
H294   H     0.28141   0.41935   0.22173   0.00000  Uiso   1.00
H295   H     0.01326   0.35411   0.18164   0.00000  Uiso   1.00
H296   H     0.02027   0.40005   0.22456   0.00000  Uiso   1.00
H297   H     0.30741   0.35774   0.28217   0.00000  Uiso   1.00
H298   H     0.06945   0.46175   0.07625   0.00000  Uiso   1.00
H299   H     0.02091   0.66097   0.26939   0.00000  Uiso   1.00
H300   H     0.30623   0.64424   0.23923   0.00000  Uiso   1.00
H301   H     0.07192   0.59944   0.26259   0.00000  Uiso   1.00
H302   H     0.07912   0.54048   0.24983   0.00000  Uiso   1.00
H303   H     0.32992   0.58052   0.28090   0.00000  Uiso   1.00
H304   H     0.01019   0.52128   0.27547   0.00000  Uiso   1.00
H305   H     0.06716   0.53336   0.00835   0.00000  Uiso   1.00
H306   H     0.01619   0.54319   0.02892   0.00000  Uiso   1.00
H307   H     0.04848   0.59120   0.01539   0.00000  Uiso   1.00
H308   H     0.13334   0.38255   0.05144   0.00000  Uiso   1.00
H309   H     0.32606   0.40228   0.05213   0.00000  Uiso   1.00
H310   H     0.19266   0.61850   0.28348   0.00000  Uiso   1.00
H311   H     0.22108   0.40678   0.24866   0.00000  Uiso   1.00
H312   H     0.10266   0.59238   0.09923   0.00000  Uiso   1.00
H313   H     0.32839   0.46404   0.05105   0.00000  Uiso   1.00
H314   H     0.04775   0.45802   0.31835   0.00000  Uiso   1.00
H315   H     0.33117   0.43609   0.30049   0.00000  Uiso   1.00
H316   H     0.03965   0.39714   0.31751   0.00000  Uiso   1.00
H317   H     0.25429   0.62092   0.12246   0.00000  Uiso   1.00
H318   H     0.27061   0.56793   0.09692   0.00000  Uiso   1.00
N319   N     0.16667   0.61736   0.16667   0.00000  Uiso   1.00
N320   N     0.16667   0.38264   0.16667   0.00000  Uiso   1.00
O321   O     0.10655   0.53958   0.16666   0.00000  Uiso   1.00
O322   O     0.29373   0.58462   0.16895   0.00000  Uiso   1.00
O323   O     0.29391   0.41762   0.14676   0.00000  Uiso   1.00
O324   O     0.04024   0.57811   0.20021   0.00000  Uiso   1.00
O325   O     0.19401   0.38153   0.06126   0.00000  Uiso   1.00
O326   O     0.23750   0.59809   0.24168   0.00000  Uiso   1.00
O327   O     0.18587   0.37140   0.29191   0.00000  Uiso   1.00
O328   O     0.12711   0.62692   0.04556   0.00000  Uiso   1.00
O329   O     0.22679   0.46042   0.16667   0.00000  Uiso   1.00
O330   O     0.22679   0.53958   0.16667   0.00000  Uiso   1.00
O331   O     0.10655   0.46042   0.16666   0.00000  Uiso   1.00
O332   O     0.16667   0.53959   0.09613   0.00000  Uiso   1.00
O333   O     0.16667   0.46041   0.23720   0.00000  Uiso   1.00
O334   O     0.16667   0.53959   0.23720   0.00000  Uiso   1.00
O335   O     0.16667   0.46041   0.09613   0.00000  Uiso   1.00
O336   O     0.04065   0.42315   0.12999   0.00000  Uiso   1.00
C337   C     0.42101   0.50015   0.16609   0.00000  Uiso   1.00
C338   C     0.35471   0.53991   0.17913   0.00000  Uiso   1.00
C339   C     0.62404   0.50038   0.16240   0.00000  Uiso   1.00
C340   C     0.37645   0.50052   0.16483   0.00000  Uiso   1.00
C341   C     0.48847   0.35720   0.12538   0.00000  Uiso   1.00
C342   C     0.51678   0.64177   0.20578   0.00000  Uiso   1.00
C343   C     0.51431   0.35752   0.20715   0.00000  Uiso   1.00
C344   C     0.48288   0.64203   0.12793   0.00000  Uiso   1.00
C345   C     0.38398   0.43041   0.08060   0.00000  Uiso   1.00
C346   C     0.34608   0.43201   0.04521   0.00000  Uiso   1.00
C347   C     0.35862   0.43075   0.32540   0.00000  Uiso   1.00
C348   C     0.57917   0.49997   0.16521   0.00000  Uiso   1.00
C349   C     0.61442   0.59749   0.12020   0.00000  Uiso   1.00
C350   C     0.64825   0.62307   0.09482   0.00000  Uiso   1.00
C351   C     0.63458   0.63641   0.04243   0.00000  Uiso   1.00
C352   C     0.62476   0.39540   0.19279   0.00000  Uiso   1.00
C353   C     0.66528   0.37316   0.21122   0.00000  Uiso   1.00
C354   C     0.65787   0.34030   0.25322   0.00000  Uiso   1.00
C355   C     0.38911   0.56825   0.24881   0.00000  Uiso   1.00
C356   C     0.35573   0.55588   0.28445   0.00000  Uiso   1.00
C357   C     0.37303   0.55588   0.00421   0.00000  Uiso   1.00
C358   C     0.49303   0.37580   0.07595   0.00000  Uiso   1.00
C359   C     0.49979   0.50002   0.07373   0.00000  Uiso   1.00
C360   C     0.53840   0.61774   0.24721   0.00000  Uiso   1.00
C361   C     0.53151   0.38064   0.25149   0.00000  Uiso   1.00
C362   C     0.45751   0.61833   0.08916   0.00000  Uiso   1.00
C363   C     0.50001   0.49999   0.25959   0.00000  Uiso   1.00
C364   C     0.49975   0.50003   0.02188   0.00000  Uiso   1.00
C365   C     0.49983   0.49999   0.31143   0.00000  Uiso   1.00
C366   C     0.35470   0.46167   0.14786   0.00000  Uiso   1.00
C367   C     0.64601   0.54196   0.16873   0.00000  Uiso   1.00
C368   C     0.64614   0.45954   0.15382   0.00000  Uiso   1.00
Cu369  Cu    0.50000   0.54689   0.16667   0.00000  Uiso   1.00
Cu370  Cu    0.50000   0.45311   0.16667   0.00000  Uiso   1.00
H371   H     0.40296   0.40076   0.07016   0.00000  Uiso   1.00
H372   H     0.65586   0.65482   0.11518   0.00000  Uiso   1.00
H373   H     0.34284   0.60128   0.09419   0.00000  Uiso   1.00
H374   H     0.62520   0.60564   0.02081   0.00000  Uiso   1.00
H375   H     0.66047   0.65304   0.02465   0.00000  Uiso   1.00
H376   H     0.60846   0.66096   0.04266   0.00000  Uiso   1.00
H377   H     0.60119   0.36828   0.18803   0.00000  Uiso   1.00
H378   H     0.61474   0.41935   0.22173   0.00000  Uiso   1.00
H379   H     0.34660   0.35411   0.18164   0.00000  Uiso   1.00
H380   H     0.35360   0.40005   0.22456   0.00000  Uiso   1.00
H381   H     0.64074   0.35774   0.28217   0.00000  Uiso   1.00
H382   H     0.40279   0.46175   0.07625   0.00000  Uiso   1.00
H383   H     0.35424   0.66097   0.26939   0.00000  Uiso   1.00
H384   H     0.63957   0.64424   0.23923   0.00000  Uiso   1.00
H385   H     0.40525   0.59944   0.26259   0.00000  Uiso   1.00
H386   H     0.41246   0.54048   0.24983   0.00000  Uiso   1.00
H387   H     0.66325   0.58052   0.28090   0.00000  Uiso   1.00
H388   H     0.34353   0.52128   0.27547   0.00000  Uiso   1.00
H389   H     0.40049   0.53336   0.00835   0.00000  Uiso   1.00
H390   H     0.34953   0.54319   0.02892   0.00000  Uiso   1.00
H391   H     0.38181   0.59120   0.01539   0.00000  Uiso   1.00
H392   H     0.46668   0.38255   0.05144   0.00000  Uiso   1.00
H393   H     0.65939   0.40228   0.05213   0.00000  Uiso   1.00
H394   H     0.52599   0.61850   0.28348   0.00000  Uiso   1.00
H395   H     0.55441   0.40678   0.24866   0.00000  Uiso   1.00
H396   H     0.43599   0.59238   0.09923   0.00000  Uiso   1.00
H397   H     0.66172   0.46404   0.05105   0.00000  Uiso   1.00
H398   H     0.38109   0.45802   0.31835   0.00000  Uiso   1.00
H399   H     0.66450   0.43609   0.30049   0.00000  Uiso   1.00
H400   H     0.37298   0.39714   0.31751   0.00000  Uiso   1.00
H401   H     0.58762   0.62092   0.12246   0.00000  Uiso   1.00
H402   H     0.60394   0.56793   0.09692   0.00000  Uiso   1.00
N403   N     0.50000   0.61736   0.16667   0.00000  Uiso   1.00
N404   N     0.50000   0.38264   0.16667   0.00000  Uiso   1.00
O405   O     0.43988   0.53958   0.16666   0.00000  Uiso   1.00
O406   O     0.62706   0.58462   0.16895   0.00000  Uiso   1.00
O407   O     0.62724   0.41762   0.14676   0.00000  Uiso   1.00
O408   O     0.37358   0.57811   0.20021   0.00000  Uiso   1.00
O409   O     0.52735   0.38153   0.06126   0.00000  Uiso   1.00
O410   O     0.57083   0.59809   0.24168   0.00000  Uiso   1.00
O411   O     0.51920   0.37140   0.29191   0.00000  Uiso   1.00
O412   O     0.46045   0.62692   0.04556   0.00000  Uiso   1.00
O413   O     0.56012   0.46042   0.16667   0.00000  Uiso   1.00
O414   O     0.56012   0.53958   0.16667   0.00000  Uiso   1.00
O415   O     0.43988   0.46042   0.16666   0.00000  Uiso   1.00
O416   O     0.50000   0.53959   0.09613   0.00000  Uiso   1.00
O417   O     0.50000   0.46041   0.23720   0.00000  Uiso   1.00
O418   O     0.50000   0.53959   0.23720   0.00000  Uiso   1.00
O419   O     0.50000   0.46041   0.09613   0.00000  Uiso   1.00
O420   O     0.37398   0.42315   0.12999   0.00000  Uiso   1.00
C421   C     0.75435   0.50015   0.16609   0.00000  Uiso   1.00
C422   C     0.68804   0.53991   0.17913   0.00000  Uiso   1.00
C423   C     0.95738   0.50038   0.16240   0.00000  Uiso   1.00
C424   C     0.70978   0.50052   0.16483   0.00000  Uiso   1.00
C425   C     0.82180   0.35720   0.12538   0.00000  Uiso   1.00
C426   C     0.85011   0.64177   0.20578   0.00000  Uiso   1.00
C427   C     0.84764   0.35752   0.20715   0.00000  Uiso   1.00
C428   C     0.81621   0.64203   0.12793   0.00000  Uiso   1.00
C429   C     0.71731   0.43041   0.08060   0.00000  Uiso   1.00
C430   C     0.67941   0.43201   0.04521   0.00000  Uiso   1.00
C431   C     0.69195   0.43075   0.32540   0.00000  Uiso   1.00
C432   C     0.91250   0.49997   0.16521   0.00000  Uiso   1.00
C433   C     0.94776   0.59749   0.12020   0.00000  Uiso   1.00
C434   C     0.98158   0.62307   0.09482   0.00000  Uiso   1.00
C435   C     0.96791   0.63641   0.04243   0.00000  Uiso   1.00
C436   C     0.95809   0.39540   0.19279   0.00000  Uiso   1.00
C437   C     0.99861   0.37316   0.21122   0.00000  Uiso   1.00
C438   C     0.99120   0.34030   0.25322   0.00000  Uiso   1.00
C439   C     0.72244   0.56825   0.24881   0.00000  Uiso   1.00
C440   C     0.68906   0.55588   0.28445   0.00000  Uiso   1.00
C441   C     0.70636   0.55588   0.00421   0.00000  Uiso   1.00
C442   C     0.82636   0.37580   0.07595   0.00000  Uiso   1.00
C443   C     0.83312   0.50002   0.07373   0.00000  Uiso   1.00
C444   C     0.87174   0.61774   0.24721   0.00000  Uiso   1.00
C445   C     0.86484   0.38064   0.25149   0.00000  Uiso   1.00
C446   C     0.79085   0.61833   0.08916   0.00000  Uiso   1.00
C447   C     0.83334   0.49999   0.25959   0.00000  Uiso   1.00
C448   C     0.83309   0.50003   0.02188   0.00000  Uiso   1.00
C449   C     0.83317   0.49999   0.31143   0.00000  Uiso   1.00
C450   C     0.68803   0.46167   0.14786   0.00000  Uiso   1.00
C451   C     0.97934   0.54196   0.16873   0.00000  Uiso   1.00
C452   C     0.97947   0.45954   0.15382   0.00000  Uiso   1.00
Cu453  Cu    0.83333   0.54689   0.16667   0.00000  Uiso   1.00
Cu454  Cu    0.83333   0.45311   0.16667   0.00000  Uiso   1.00
H455   H     0.73630   0.40076   0.07016   0.00000  Uiso   1.00
H456   H     0.98920   0.65482   0.11518   0.00000  Uiso   1.00
H457   H     0.67617   0.60128   0.09419   0.00000  Uiso   1.00
H458   H     0.95853   0.60564   0.02081   0.00000  Uiso   1.00
H459   H     0.99380   0.65304   0.02465   0.00000  Uiso   1.00
H460   H     0.94180   0.66096   0.04266   0.00000  Uiso   1.00
H461   H     0.93453   0.36828   0.18803   0.00000  Uiso   1.00
H462   H     0.94808   0.41935   0.22173   0.00000  Uiso   1.00
H463   H     0.67993   0.35411   0.18164   0.00000  Uiso   1.00
H464   H     0.68693   0.40005   0.22456   0.00000  Uiso   1.00
H465   H     0.97408   0.35774   0.28217   0.00000  Uiso   1.00
H466   H     0.73612   0.46175   0.07625   0.00000  Uiso   1.00
H467   H     0.68758   0.66097   0.26939   0.00000  Uiso   1.00
H468   H     0.97290   0.64424   0.23923   0.00000  Uiso   1.00
H469   H     0.73859   0.59944   0.26259   0.00000  Uiso   1.00
H470   H     0.74579   0.54048   0.24983   0.00000  Uiso   1.00
H471   H     0.99659   0.58052   0.28090   0.00000  Uiso   1.00
H472   H     0.67686   0.52128   0.27547   0.00000  Uiso   1.00
H473   H     0.73382   0.53336   0.00835   0.00000  Uiso   1.00
H474   H     0.68286   0.54319   0.02892   0.00000  Uiso   1.00
H475   H     0.71515   0.59120   0.01539   0.00000  Uiso   1.00
H476   H     0.80001   0.38255   0.05144   0.00000  Uiso   1.00
H477   H     0.99272   0.40228   0.05213   0.00000  Uiso   1.00
H478   H     0.85932   0.61850   0.28348   0.00000  Uiso   1.00
H479   H     0.88775   0.40678   0.24866   0.00000  Uiso   1.00
H480   H     0.76933   0.59238   0.09923   0.00000  Uiso   1.00
H481   H     0.99505   0.46404   0.05105   0.00000  Uiso   1.00
H482   H     0.71442   0.45802   0.31835   0.00000  Uiso   1.00
H483   H     0.99784   0.43609   0.30049   0.00000  Uiso   1.00
H484   H     0.70632   0.39714   0.31751   0.00000  Uiso   1.00
H485   H     0.92096   0.62092   0.12246   0.00000  Uiso   1.00
H486   H     0.93727   0.56793   0.09692   0.00000  Uiso   1.00
N487   N     0.83333   0.61736   0.16667   0.00000  Uiso   1.00
N488   N     0.83333   0.38264   0.16667   0.00000  Uiso   1.00
O489   O     0.77321   0.53958   0.16666   0.00000  Uiso   1.00
O490   O     0.96039   0.58462   0.16895   0.00000  Uiso   1.00
O491   O     0.96058   0.41762   0.14676   0.00000  Uiso   1.00
O492   O     0.70691   0.57811   0.20021   0.00000  Uiso   1.00
O493   O     0.86068   0.38153   0.06126   0.00000  Uiso   1.00
O494   O     0.90416   0.59809   0.24168   0.00000  Uiso   1.00
O495   O     0.85253   0.37140   0.29191   0.00000  Uiso   1.00
O496   O     0.79378   0.62692   0.04556   0.00000  Uiso   1.00
O497   O     0.89345   0.46042   0.16667   0.00000  Uiso   1.00
O498   O     0.89345   0.53958   0.16667   0.00000  Uiso   1.00
O499   O     0.77321   0.46042   0.16666   0.00000  Uiso   1.00
O500   O     0.83333   0.53959   0.09613   0.00000  Uiso   1.00
O501   O     0.83333   0.46041   0.23720   0.00000  Uiso   1.00
O502   O     0.83333   0.53959   0.23720   0.00000  Uiso   1.00
O503   O     0.83333   0.46041   0.09613   0.00000  Uiso   1.00
O504   O     0.70732   0.42315   0.12999   0.00000  Uiso   1.00
C505   C     0.08768   0.83348   0.16609   0.00000  Uiso   1.00
C506   C     0.02137   0.87325   0.17913   0.00000  Uiso   1.00
C507   C     0.29071   0.83371   0.16240   0.00000  Uiso   1.00
C508   C     0.04312   0.83385   0.16483   0.00000  Uiso   1.00
C509   C     0.15514   0.69054   0.12538   0.00000  Uiso   1.00
C510   C     0.18344   0.97510   0.20578   0.00000  Uiso   1.00
C511   C     0.18098   0.69085   0.20715   0.00000  Uiso   1.00
C512   C     0.14954   0.97536   0.12793   0.00000  Uiso   1.00
C513   C     0.05064   0.76374   0.08060   0.00000  Uiso   1.00
C514   C     0.01274   0.76534   0.04521   0.00000  Uiso   1.00
C515   C     0.02529   0.76409   0.32540   0.00000  Uiso   1.00
C516   C     0.24584   0.83331   0.16521   0.00000  Uiso   1.00
C517   C     0.28109   0.93083   0.12020   0.00000  Uiso   1.00
C518   C     0.31492   0.95640   0.09482   0.00000  Uiso   1.00
C519   C     0.30124   0.96974   0.04243   0.00000  Uiso   1.00
C520   C     0.29142   0.72873   0.19279   0.00000  Uiso   1.00
C521   C     0.33195   0.70649   0.21122   0.00000  Uiso   1.00
C522   C     0.32453   0.67364   0.25322   0.00000  Uiso   1.00
C523   C     0.05578   0.90158   0.24881   0.00000  Uiso   1.00
C524   C     0.02240   0.88921   0.28445   0.00000  Uiso   1.00
C525   C     0.03969   0.88921   0.00421   0.00000  Uiso   1.00
C526   C     0.15969   0.70913   0.07595   0.00000  Uiso   1.00
C527   C     0.16646   0.83335   0.07373   0.00000  Uiso   1.00
C528   C     0.20507   0.95107   0.24721   0.00000  Uiso   1.00
C529   C     0.19817   0.71397   0.25149   0.00000  Uiso   1.00
C530   C     0.12418   0.95167   0.08916   0.00000  Uiso   1.00
C531   C     0.16668   0.83332   0.25959   0.00000  Uiso   1.00
C532   C     0.16642   0.83337   0.02188   0.00000  Uiso   1.00
C533   C     0.16650   0.83333   0.31143   0.00000  Uiso   1.00
C534   C     0.02137   0.79501   0.14786   0.00000  Uiso   1.00
C535   C     0.31268   0.87529   0.16873   0.00000  Uiso   1.00
C536   C     0.31281   0.79288   0.15382   0.00000  Uiso   1.00
Cu537  Cu    0.16667   0.88022   0.16667   0.00000  Uiso   1.00
Cu538  Cu    0.16667   0.78645   0.16667   0.00000  Uiso   1.00
H539   H     0.06963   0.73409   0.07016   0.00000  Uiso   1.00
H540   H     0.32253   0.98815   0.11518   0.00000  Uiso   1.00
H541   H     0.00951   0.93461   0.09419   0.00000  Uiso   1.00
H542   H     0.29187   0.93898   0.02081   0.00000  Uiso   1.00
H543   H     0.32714   0.98637   0.02465   0.00000  Uiso   1.00
H544   H     0.27513   0.99430   0.04266   0.00000  Uiso   1.00
H545   H     0.26786   0.70161   0.18803   0.00000  Uiso   1.00
H546   H     0.28141   0.75268   0.22173   0.00000  Uiso   1.00
H547   H     0.01326   0.68744   0.18164   0.00000  Uiso   1.00
H548   H     0.02027   0.73338   0.22456   0.00000  Uiso   1.00
H549   H     0.30741   0.69107   0.28217   0.00000  Uiso   1.00
H550   H     0.06945   0.79508   0.07625   0.00000  Uiso   1.00
H551   H     0.02091   0.99431   0.26939   0.00000  Uiso   1.00
H552   H     0.30623   0.97757   0.23923   0.00000  Uiso   1.00
H553   H     0.07192   0.93277   0.26259   0.00000  Uiso   1.00
H554   H     0.07912   0.87382   0.24983   0.00000  Uiso   1.00
H555   H     0.32992   0.91386   0.28090   0.00000  Uiso   1.00
H556   H     0.01019   0.85461   0.27547   0.00000  Uiso   1.00
H557   H     0.06716   0.86670   0.00835   0.00000  Uiso   1.00
H558   H     0.01619   0.87652   0.02892   0.00000  Uiso   1.00
H559   H     0.04848   0.92454   0.01539   0.00000  Uiso   1.00
H560   H     0.13334   0.71589   0.05144   0.00000  Uiso   1.00
H561   H     0.32606   0.73561   0.05213   0.00000  Uiso   1.00
H562   H     0.19266   0.95184   0.28348   0.00000  Uiso   1.00
H563   H     0.22108   0.74011   0.24866   0.00000  Uiso   1.00
H564   H     0.10266   0.92572   0.09923   0.00000  Uiso   1.00
H565   H     0.32839   0.79737   0.05105   0.00000  Uiso   1.00
H566   H     0.04775   0.79135   0.31835   0.00000  Uiso   1.00
H567   H     0.33117   0.76942   0.30049   0.00000  Uiso   1.00
H568   H     0.03965   0.73048   0.31751   0.00000  Uiso   1.00
H569   H     0.25429   0.95425   0.12246   0.00000  Uiso   1.00
H570   H     0.27061   0.90126   0.09692   0.00000  Uiso   1.00
N571   N     0.16667   0.95069   0.16667   0.00000  Uiso   1.00
N572   N     0.16667   0.71598   0.16667   0.00000  Uiso   1.00
O573   O     0.10655   0.87291   0.16666   0.00000  Uiso   1.00
O574   O     0.29373   0.91795   0.16895   0.00000  Uiso   1.00
O575   O     0.29391   0.75095   0.14676   0.00000  Uiso   1.00
O576   O     0.04024   0.91144   0.20021   0.00000  Uiso   1.00
O577   O     0.19401   0.71486   0.06126   0.00000  Uiso   1.00
O578   O     0.23750   0.93142   0.24168   0.00000  Uiso   1.00
O579   O     0.18587   0.70474   0.29191   0.00000  Uiso   1.00
O580   O     0.12711   0.96025   0.04556   0.00000  Uiso   1.00
O581   O     0.22679   0.79375   0.16667   0.00000  Uiso   1.00
O582   O     0.22679   0.87291   0.16667   0.00000  Uiso   1.00
O583   O     0.10655   0.79375   0.16666   0.00000  Uiso   1.00
O584   O     0.16667   0.87292   0.09613   0.00000  Uiso   1.00
O585   O     0.16667   0.79375   0.23720   0.00000  Uiso   1.00
O586   O     0.16667   0.87292   0.23720   0.00000  Uiso   1.00
O587   O     0.16667   0.79375   0.09613   0.00000  Uiso   1.00
O588   O     0.04065   0.75649   0.12999   0.00000  Uiso   1.00
C589   C     0.42101   0.83348   0.16609   0.00000  Uiso   1.00
C590   C     0.35471   0.87325   0.17913   0.00000  Uiso   1.00
C591   C     0.62404   0.83371   0.16240   0.00000  Uiso   1.00
C592   C     0.37645   0.83385   0.16483   0.00000  Uiso   1.00
C593   C     0.48847   0.69054   0.12538   0.00000  Uiso   1.00
C594   C     0.51678   0.97510   0.20578   0.00000  Uiso   1.00
C595   C     0.51431   0.69085   0.20715   0.00000  Uiso   1.00
C596   C     0.48288   0.97536   0.12793   0.00000  Uiso   1.00
C597   C     0.38398   0.76374   0.08060   0.00000  Uiso   1.00
C598   C     0.34608   0.76534   0.04521   0.00000  Uiso   1.00
C599   C     0.35862   0.76409   0.32540   0.00000  Uiso   1.00
C600   C     0.57917   0.83331   0.16521   0.00000  Uiso   1.00
C601   C     0.61442   0.93083   0.12020   0.00000  Uiso   1.00
C602   C     0.64825   0.95640   0.09482   0.00000  Uiso   1.00
C603   C     0.63458   0.96974   0.04243   0.00000  Uiso   1.00
C604   C     0.62476   0.72873   0.19279   0.00000  Uiso   1.00
C605   C     0.66528   0.70649   0.21122   0.00000  Uiso   1.00
C606   C     0.65787   0.67364   0.25322   0.00000  Uiso   1.00
C607   C     0.38911   0.90158   0.24881   0.00000  Uiso   1.00
C608   C     0.35573   0.88921   0.28445   0.00000  Uiso   1.00
C609   C     0.37303   0.88921   0.00421   0.00000  Uiso   1.00
C610   C     0.49303   0.70913   0.07595   0.00000  Uiso   1.00
C611   C     0.49979   0.83335   0.07373   0.00000  Uiso   1.00
C612   C     0.53840   0.95107   0.24721   0.00000  Uiso   1.00
C613   C     0.53151   0.71397   0.25149   0.00000  Uiso   1.00
C614   C     0.45751   0.95167   0.08916   0.00000  Uiso   1.00
C615   C     0.50001   0.83332   0.25959   0.00000  Uiso   1.00
C616   C     0.49975   0.83337   0.02188   0.00000  Uiso   1.00
C617   C     0.49983   0.83333   0.31143   0.00000  Uiso   1.00
C618   C     0.35470   0.79501   0.14786   0.00000  Uiso   1.00
C619   C     0.64601   0.87529   0.16873   0.00000  Uiso   1.00
C620   C     0.64614   0.79288   0.15382   0.00000  Uiso   1.00
Cu621  Cu    0.50000   0.88022   0.16667   0.00000  Uiso   1.00
Cu622  Cu    0.50000   0.78645   0.16667   0.00000  Uiso   1.00
H623   H     0.40296   0.73409   0.07016   0.00000  Uiso   1.00
H624   H     0.65586   0.98815   0.11518   0.00000  Uiso   1.00
H625   H     0.34284   0.93461   0.09419   0.00000  Uiso   1.00
H626   H     0.62520   0.93898   0.02081   0.00000  Uiso   1.00
H627   H     0.66047   0.98637   0.02465   0.00000  Uiso   1.00
H628   H     0.60846   0.99430   0.04266   0.00000  Uiso   1.00
H629   H     0.60119   0.70161   0.18803   0.00000  Uiso   1.00
H630   H     0.61474   0.75268   0.22173   0.00000  Uiso   1.00
H631   H     0.34660   0.68744   0.18164   0.00000  Uiso   1.00
H632   H     0.35360   0.73338   0.22456   0.00000  Uiso   1.00
H633   H     0.64074   0.69107   0.28217   0.00000  Uiso   1.00
H634   H     0.40279   0.79508   0.07625   0.00000  Uiso   1.00
H635   H     0.35424   0.99431   0.26939   0.00000  Uiso   1.00
H636   H     0.63957   0.97757   0.23923   0.00000  Uiso   1.00
H637   H     0.40525   0.93277   0.26259   0.00000  Uiso   1.00
H638   H     0.41246   0.87382   0.24983   0.00000  Uiso   1.00
H639   H     0.66325   0.91386   0.28090   0.00000  Uiso   1.00
H640   H     0.34353   0.85461   0.27547   0.00000  Uiso   1.00
H641   H     0.40049   0.86670   0.00835   0.00000  Uiso   1.00
H642   H     0.34953   0.87652   0.02892   0.00000  Uiso   1.00
H643   H     0.38181   0.92454   0.01539   0.00000  Uiso   1.00
H644   H     0.46668   0.71589   0.05144   0.00000  Uiso   1.00
H645   H     0.65939   0.73561   0.05213   0.00000  Uiso   1.00
H646   H     0.52599   0.95184   0.28348   0.00000  Uiso   1.00
H647   H     0.55441   0.74011   0.24866   0.00000  Uiso   1.00
H648   H     0.43599   0.92572   0.09923   0.00000  Uiso   1.00
H649   H     0.66172   0.79737   0.05105   0.00000  Uiso   1.00
H650   H     0.38109   0.79135   0.31835   0.00000  Uiso   1.00
H651   H     0.66450   0.76942   0.30049   0.00000  Uiso   1.00
H652   H     0.37298   0.73048   0.31751   0.00000  Uiso   1.00
H653   H     0.58762   0.95425   0.12246   0.00000  Uiso   1.00
H654   H     0.60394   0.90126   0.09692   0.00000  Uiso   1.00
N655   N     0.50000   0.95069   0.16667   0.00000  Uiso   1.00
N656   N     0.50000   0.71598   0.16667   0.00000  Uiso   1.00
O657   O     0.43988   0.87291   0.16666   0.00000  Uiso   1.00
O658   O     0.62706   0.91795   0.16895   0.00000  Uiso   1.00
O659   O     0.62724   0.75095   0.14676   0.00000  Uiso   1.00
O660   O     0.37358   0.91144   0.20021   0.00000  Uiso   1.00
O661   O     0.52735   0.71486   0.06126   0.00000  Uiso   1.00
O662   O     0.57083   0.93142   0.24168   0.00000  Uiso   1.00
O663   O     0.51920   0.70474   0.29191   0.00000  Uiso   1.00
O664   O     0.46045   0.96025   0.04556   0.00000  Uiso   1.00
O665   O     0.56012   0.79375   0.16667   0.00000  Uiso   1.00
O666   O     0.56012   0.87291   0.16667   0.00000  Uiso   1.00
O667   O     0.43988   0.79375   0.16666   0.00000  Uiso   1.00
O668   O     0.50000   0.87292   0.09613   0.00000  Uiso   1.00
O669   O     0.50000   0.79375   0.23720   0.00000  Uiso   1.00
O670   O     0.50000   0.87292   0.23720   0.00000  Uiso   1.00
O671   O     0.50000   0.79375   0.09613   0.00000  Uiso   1.00
O672   O     0.37398   0.75649   0.12999   0.00000  Uiso   1.00
C673   C     0.75435   0.83348   0.16609   0.00000  Uiso   1.00
C674   C     0.68804   0.87325   0.17913   0.00000  Uiso   1.00
C675   C     0.95738   0.83371   0.16240   0.00000  Uiso   1.00
C676   C     0.70978   0.83385   0.16483   0.00000  Uiso   1.00
C677   C     0.82180   0.69054   0.12538   0.00000  Uiso   1.00
C678   C     0.85011   0.97510   0.20578   0.00000  Uiso   1.00
C679   C     0.84764   0.69085   0.20715   0.00000  Uiso   1.00
C680   C     0.81621   0.97536   0.12793   0.00000  Uiso   1.00
C681   C     0.71731   0.76374   0.08060   0.00000  Uiso   1.00
C682   C     0.67941   0.76534   0.04521   0.00000  Uiso   1.00
C683   C     0.69195   0.76409   0.32540   0.00000  Uiso   1.00
C684   C     0.91250   0.83331   0.16521   0.00000  Uiso   1.00
C685   C     0.94776   0.93083   0.12020   0.00000  Uiso   1.00
C686   C     0.98158   0.95640   0.09482   0.00000  Uiso   1.00
C687   C     0.96791   0.96974   0.04243   0.00000  Uiso   1.00
C688   C     0.95809   0.72873   0.19279   0.00000  Uiso   1.00
C689   C     0.99861   0.70649   0.21122   0.00000  Uiso   1.00
C690   C     0.99120   0.67364   0.25322   0.00000  Uiso   1.00
C691   C     0.72244   0.90158   0.24881   0.00000  Uiso   1.00
C692   C     0.68906   0.88921   0.28445   0.00000  Uiso   1.00
C693   C     0.70636   0.88921   0.00421   0.00000  Uiso   1.00
C694   C     0.82636   0.70913   0.07595   0.00000  Uiso   1.00
C695   C     0.83312   0.83335   0.07373   0.00000  Uiso   1.00
C696   C     0.87174   0.95107   0.24721   0.00000  Uiso   1.00
C697   C     0.86484   0.71397   0.25149   0.00000  Uiso   1.00
C698   C     0.79085   0.95167   0.08916   0.00000  Uiso   1.00
C699   C     0.83334   0.83332   0.25959   0.00000  Uiso   1.00
C700   C     0.83309   0.83337   0.02188   0.00000  Uiso   1.00
C701   C     0.83317   0.83333   0.31143   0.00000  Uiso   1.00
C702   C     0.68803   0.79501   0.14786   0.00000  Uiso   1.00
C703   C     0.97934   0.87529   0.16873   0.00000  Uiso   1.00
C704   C     0.97947   0.79288   0.15382   0.00000  Uiso   1.00
Cu705  Cu    0.83333   0.88022   0.16667   0.00000  Uiso   1.00
Cu706  Cu    0.83333   0.78645   0.16667   0.00000  Uiso   1.00
H707   H     0.73630   0.73409   0.07016   0.00000  Uiso   1.00
H708   H     0.98920   0.98815   0.11518   0.00000  Uiso   1.00
H709   H     0.67617   0.93461   0.09419   0.00000  Uiso   1.00
H710   H     0.95853   0.93898   0.02081   0.00000  Uiso   1.00
H711   H     0.99380   0.98637   0.02465   0.00000  Uiso   1.00
H712   H     0.94180   0.99430   0.04266   0.00000  Uiso   1.00
H713   H     0.93453   0.70161   0.18803   0.00000  Uiso   1.00
H714   H     0.94808   0.75268   0.22173   0.00000  Uiso   1.00
H715   H     0.67993   0.68744   0.18164   0.00000  Uiso   1.00
H716   H     0.68693   0.73338   0.22456   0.00000  Uiso   1.00
H717   H     0.97408   0.69107   0.28217   0.00000  Uiso   1.00
H718   H     0.73612   0.79508   0.07625   0.00000  Uiso   1.00
H719   H     0.68758   0.99431   0.26939   0.00000  Uiso   1.00
H720   H     0.97290   0.97757   0.23923   0.00000  Uiso   1.00
H721   H     0.73859   0.93277   0.26259   0.00000  Uiso   1.00
H722   H     0.74579   0.87382   0.24983   0.00000  Uiso   1.00
H723   H     0.99659   0.91386   0.28090   0.00000  Uiso   1.00
H724   H     0.67686   0.85461   0.27547   0.00000  Uiso   1.00
H725   H     0.73382   0.86670   0.00835   0.00000  Uiso   1.00
H726   H     0.68286   0.87652   0.02892   0.00000  Uiso   1.00
H727   H     0.71515   0.92454   0.01539   0.00000  Uiso   1.00
H728   H     0.80001   0.71589   0.05144   0.00000  Uiso   1.00
H729   H     0.99272   0.73561   0.05213   0.00000  Uiso   1.00
H730   H     0.85932   0.95184   0.28348   0.00000  Uiso   1.00
H731   H     0.88775   0.74011   0.24866   0.00000  Uiso   1.00
H732   H     0.76933   0.92572   0.09923   0.00000  Uiso   1.00
H733   H     0.99505   0.79737   0.05105   0.00000  Uiso   1.00
H734   H     0.71442   0.79135   0.31835   0.00000  Uiso   1.00
H735   H     0.99784   0.76942   0.30049   0.00000  Uiso   1.00
H736   H     0.70632   0.73048   0.31751   0.00000  Uiso   1.00
H737   H     0.92096   0.95425   0.12246   0.00000  Uiso   1.00
H738   H     0.93727   0.90126   0.09692   0.00000  Uiso   1.00
N739   N     0.83333   0.95069   0.16667   0.00000  Uiso   1.00
N740   N     0.83333   0.71598   0.16667   0.00000  Uiso   1.00
O741   O     0.77321   0.87291   0.16666   0.00000  Uiso   1.00
O742   O     0.96039   0.91795   0.16895   0.00000  Uiso   1.00
O743   O     0.96058   0.75095   0.14676   0.00000  Uiso   1.00
O744   O     0.70691   0.91144   0.20021   0.00000  Uiso   1.00
O745   O     0.86068   0.71486   0.06126   0.00000  Uiso   1.00
O746   O     0.90416   0.93142   0.24168   0.00000  Uiso   1.00
O747   O     0.85253   0.70474   0.29191   0.00000  Uiso   1.00
O748   O     0.79378   0.96025   0.04556   0.00000  Uiso   1.00
O749   O     0.89345   0.79375   0.16667   0.00000  Uiso   1.00
O750   O     0.89345   0.87291   0.16667   0.00000  Uiso   1.00
O751   O     0.77321   0.79375   0.16666   0.00000  Uiso   1.00
O752   O     0.83333   0.87292   0.09613   0.00000  Uiso   1.00
O753   O     0.83333   0.79375   0.23720   0.00000  Uiso   1.00
O754   O     0.83333   0.87292   0.23720   0.00000  Uiso   1.00
O755   O     0.83333   0.79375   0.09613   0.00000  Uiso   1.00
O756   O     0.70732   0.75649   0.12999   0.00000  Uiso   1.00
C757   C     0.08768   0.16681   0.49942   0.00000  Uiso   1.00
C758   C     0.02137   0.20658   0.51246   0.00000  Uiso   1.00
C759   C     0.29071   0.16704   0.49573   0.00000  Uiso   1.00
C760   C     0.04312   0.16719   0.49816   0.00000  Uiso   1.00
C761   C     0.15514   0.02387   0.45871   0.00000  Uiso   1.00
C762   C     0.18344   0.30843   0.53911   0.00000  Uiso   1.00
C763   C     0.18098   0.02419   0.54049   0.00000  Uiso   1.00
C764   C     0.14954   0.30869   0.46126   0.00000  Uiso   1.00
C765   C     0.05064   0.09708   0.41394   0.00000  Uiso   1.00
C766   C     0.01274   0.09868   0.37855   0.00000  Uiso   1.00
C767   C     0.02529   0.09742   0.65873   0.00000  Uiso   1.00
C768   C     0.24584   0.16664   0.49855   0.00000  Uiso   1.00
C769   C     0.28109   0.26416   0.45353   0.00000  Uiso   1.00
C770   C     0.31492   0.28974   0.42815   0.00000  Uiso   1.00
C771   C     0.30124   0.30308   0.37577   0.00000  Uiso   1.00
C772   C     0.29142   0.06206   0.52612   0.00000  Uiso   1.00
C773   C     0.33195   0.03982   0.54455   0.00000  Uiso   1.00
C774   C     0.32453   0.00697   0.58656   0.00000  Uiso   1.00
C775   C     0.05578   0.23492   0.58214   0.00000  Uiso   1.00
C776   C     0.02240   0.22254   0.61779   0.00000  Uiso   1.00
C777   C     0.03969   0.22254   0.33754   0.00000  Uiso   1.00
C778   C     0.15969   0.04246   0.40928   0.00000  Uiso   1.00
C779   C     0.16646   0.16669   0.40706   0.00000  Uiso   1.00
C780   C     0.20507   0.28440   0.58054   0.00000  Uiso   1.00
C781   C     0.19817   0.04731   0.58482   0.00000  Uiso   1.00
C782   C     0.12418   0.28500   0.42249   0.00000  Uiso   1.00
C783   C     0.16668   0.16665   0.59293   0.00000  Uiso   1.00
C784   C     0.16642   0.16670   0.35521   0.00000  Uiso   1.00
C785   C     0.16650   0.16666   0.64477   0.00000  Uiso   1.00
C786   C     0.02137   0.12834   0.48119   0.00000  Uiso   1.00
C787   C     0.31268   0.20863   0.50207   0.00000  Uiso   1.00
C788   C     0.31281   0.12621   0.48715   0.00000  Uiso   1.00
Cu789  Cu    0.16667   0.21355   0.50000   0.00000  Uiso   1.00
Cu790  Cu    0.16667   0.11978   0.50000   0.00000  Uiso   1.00
H791   H     0.06963   0.06742   0.40349   0.00000  Uiso   1.00
H792   H     0.32253   0.32149   0.44852   0.00000  Uiso   1.00
H793   H     0.00951   0.26795   0.42752   0.00000  Uiso   1.00
H794   H     0.29187   0.27231   0.35414   0.00000  Uiso   1.00
H795   H     0.32714   0.31971   0.35798   0.00000  Uiso   1.00
H796   H     0.27513   0.32763   0.37599   0.00000  Uiso   1.00
H797   H     0.26786   0.03494   0.52136   0.00000  Uiso   1.00
H798   H     0.28141   0.08602   0.55506   0.00000  Uiso   1.00
H799   H     0.01326   0.02077   0.51497   0.00000  Uiso   1.00
H800   H     0.02027   0.06672   0.55789   0.00000  Uiso   1.00
H801   H     0.30741   0.02441   0.61550   0.00000  Uiso   1.00
H802   H     0.06945   0.12842   0.40958   0.00000  Uiso   1.00
H803   H     0.02091   0.32764   0.60272   0.00000  Uiso   1.00
H804   H     0.30623   0.31091   0.57256   0.00000  Uiso   1.00
H805   H     0.07192   0.26610   0.59592   0.00000  Uiso   1.00
H806   H     0.07912   0.20715   0.58317   0.00000  Uiso   1.00
H807   H     0.32992   0.24719   0.61423   0.00000  Uiso   1.00
H808   H     0.01019   0.18794   0.60880   0.00000  Uiso   1.00
H809   H     0.06716   0.20003   0.34168   0.00000  Uiso   1.00
H810   H     0.01619   0.20986   0.36225   0.00000  Uiso   1.00
H811   H     0.04848   0.25787   0.34873   0.00000  Uiso   1.00
H812   H     0.13334   0.04922   0.38477   0.00000  Uiso   1.00
H813   H     0.32606   0.06895   0.38547   0.00000  Uiso   1.00
H814   H     0.19266   0.28517   0.61681   0.00000  Uiso   1.00
H815   H     0.22108   0.07345   0.58200   0.00000  Uiso   1.00
H816   H     0.10266   0.25905   0.43256   0.00000  Uiso   1.00
H817   H     0.32839   0.13071   0.38438   0.00000  Uiso   1.00
H818   H     0.04775   0.12468   0.65169   0.00000  Uiso   1.00
H819   H     0.33117   0.10275   0.63382   0.00000  Uiso   1.00
H820   H     0.03965   0.06381   0.65084   0.00000  Uiso   1.00
H821   H     0.25429   0.28759   0.45580   0.00000  Uiso   1.00
H822   H     0.27061   0.23460   0.43026   0.00000  Uiso   1.00
N823   N     0.16667   0.28402   0.50000   0.00000  Uiso   1.00
N824   N     0.16667   0.04931   0.50000   0.00000  Uiso   1.00
O825   O     0.10655   0.20625   0.50000   0.00000  Uiso   1.00
O826   O     0.29373   0.25128   0.50229   0.00000  Uiso   1.00
O827   O     0.29391   0.08429   0.48009   0.00000  Uiso   1.00
O828   O     0.04024   0.24478   0.53354   0.00000  Uiso   1.00
O829   O     0.19401   0.04819   0.39459   0.00000  Uiso   1.00
O830   O     0.23750   0.26475   0.57501   0.00000  Uiso   1.00
O831   O     0.18587   0.03807   0.62525   0.00000  Uiso   1.00
O832   O     0.12711   0.29359   0.37890   0.00000  Uiso   1.00
O833   O     0.22679   0.12709   0.50000   0.00000  Uiso   1.00
O834   O     0.22679   0.20625   0.50000   0.00000  Uiso   1.00
O835   O     0.10655   0.12709   0.50000   0.00000  Uiso   1.00
O836   O     0.16667   0.20625   0.42946   0.00000  Uiso   1.00
O837   O     0.16667   0.12708   0.57054   0.00000  Uiso   1.00
O838   O     0.16667   0.20625   0.57054   0.00000  Uiso   1.00
O839   O     0.16667   0.12708   0.42946   0.00000  Uiso   1.00
O840   O     0.04065   0.08982   0.46333   0.00000  Uiso   1.00
C841   C     0.42101   0.16681   0.49942   0.00000  Uiso   1.00
C842   C     0.35471   0.20658   0.51246   0.00000  Uiso   1.00
C843   C     0.62404   0.16704   0.49573   0.00000  Uiso   1.00
C844   C     0.37645   0.16719   0.49816   0.00000  Uiso   1.00
C845   C     0.48847   0.02387   0.45871   0.00000  Uiso   1.00
C846   C     0.51678   0.30843   0.53911   0.00000  Uiso   1.00
C847   C     0.51431   0.02419   0.54049   0.00000  Uiso   1.00
C848   C     0.48288   0.30869   0.46126   0.00000  Uiso   1.00
C849   C     0.38398   0.09708   0.41394   0.00000  Uiso   1.00
C850   C     0.34608   0.09868   0.37855   0.00000  Uiso   1.00
C851   C     0.35862   0.09742   0.65873   0.00000  Uiso   1.00
C852   C     0.57917   0.16664   0.49855   0.00000  Uiso   1.00
C853   C     0.61442   0.26416   0.45353   0.00000  Uiso   1.00
C854   C     0.64825   0.28974   0.42815   0.00000  Uiso   1.00
C855   C     0.63458   0.30308   0.37577   0.00000  Uiso   1.00
C856   C     0.62476   0.06206   0.52612   0.00000  Uiso   1.00
C857   C     0.66528   0.03982   0.54455   0.00000  Uiso   1.00
C858   C     0.65787   0.00697   0.58656   0.00000  Uiso   1.00
C859   C     0.38911   0.23492   0.58214   0.00000  Uiso   1.00
C860   C     0.35573   0.22254   0.61779   0.00000  Uiso   1.00
C861   C     0.37303   0.22254   0.33754   0.00000  Uiso   1.00
C862   C     0.49303   0.04246   0.40928   0.00000  Uiso   1.00
C863   C     0.49979   0.16669   0.40706   0.00000  Uiso   1.00
C864   C     0.53840   0.28440   0.58054   0.00000  Uiso   1.00
C865   C     0.53151   0.04731   0.58482   0.00000  Uiso   1.00
C866   C     0.45751   0.28500   0.42249   0.00000  Uiso   1.00
C867   C     0.50001   0.16665   0.59293   0.00000  Uiso   1.00
C868   C     0.49975   0.16670   0.35521   0.00000  Uiso   1.00
C869   C     0.49983   0.16666   0.64477   0.00000  Uiso   1.00
C870   C     0.35470   0.12834   0.48119   0.00000  Uiso   1.00
C871   C     0.64601   0.20863   0.50207   0.00000  Uiso   1.00
C872   C     0.64614   0.12621   0.48715   0.00000  Uiso   1.00
Cu873  Cu    0.50000   0.21355   0.50000   0.00000  Uiso   1.00
Cu874  Cu    0.50000   0.11978   0.50000   0.00000  Uiso   1.00
H875   H     0.40296   0.06742   0.40349   0.00000  Uiso   1.00
H876   H     0.65586   0.32149   0.44852   0.00000  Uiso   1.00
H877   H     0.34284   0.26795   0.42752   0.00000  Uiso   1.00
H878   H     0.62520   0.27231   0.35414   0.00000  Uiso   1.00
H879   H     0.66047   0.31971   0.35798   0.00000  Uiso   1.00
H880   H     0.60846   0.32763   0.37599   0.00000  Uiso   1.00
H881   H     0.60119   0.03494   0.52136   0.00000  Uiso   1.00
H882   H     0.61474   0.08602   0.55506   0.00000  Uiso   1.00
H883   H     0.34660   0.02077   0.51497   0.00000  Uiso   1.00
H884   H     0.35360   0.06672   0.55789   0.00000  Uiso   1.00
H885   H     0.64074   0.02441   0.61550   0.00000  Uiso   1.00
H886   H     0.40279   0.12842   0.40958   0.00000  Uiso   1.00
H887   H     0.35424   0.32764   0.60272   0.00000  Uiso   1.00
H888   H     0.63957   0.31091   0.57256   0.00000  Uiso   1.00
H889   H     0.40525   0.26610   0.59592   0.00000  Uiso   1.00
H890   H     0.41246   0.20715   0.58317   0.00000  Uiso   1.00
H891   H     0.66325   0.24719   0.61423   0.00000  Uiso   1.00
H892   H     0.34353   0.18794   0.60880   0.00000  Uiso   1.00
H893   H     0.40049   0.20003   0.34168   0.00000  Uiso   1.00
H894   H     0.34953   0.20986   0.36225   0.00000  Uiso   1.00
H895   H     0.38181   0.25787   0.34873   0.00000  Uiso   1.00
H896   H     0.46668   0.04922   0.38477   0.00000  Uiso   1.00
H897   H     0.65939   0.06895   0.38547   0.00000  Uiso   1.00
H898   H     0.52599   0.28517   0.61681   0.00000  Uiso   1.00
H899   H     0.55441   0.07345   0.58200   0.00000  Uiso   1.00
H900   H     0.43599   0.25905   0.43256   0.00000  Uiso   1.00
H901   H     0.66172   0.13071   0.38438   0.00000  Uiso   1.00
H902   H     0.38109   0.12468   0.65169   0.00000  Uiso   1.00
H903   H     0.66450   0.10275   0.63382   0.00000  Uiso   1.00
H904   H     0.37298   0.06381   0.65084   0.00000  Uiso   1.00
H905   H     0.58762   0.28759   0.45580   0.00000  Uiso   1.00
H906   H     0.60394   0.23460   0.43026   0.00000  Uiso   1.00
N907   N     0.50000   0.28402   0.50000   0.00000  Uiso   1.00
N908   N     0.50000   0.04931   0.50000   0.00000  Uiso   1.00
O909   O     0.43988   0.20625   0.50000   0.00000  Uiso   1.00
O910   O     0.62706   0.25128   0.50229   0.00000  Uiso   1.00
O911   O     0.62724   0.08429   0.48009   0.00000  Uiso   1.00
O912   O     0.37358   0.24478   0.53354   0.00000  Uiso   1.00
O913   O     0.52735   0.04819   0.39459   0.00000  Uiso   1.00
O914   O     0.57083   0.26475   0.57501   0.00000  Uiso   1.00
O915   O     0.51920   0.03807   0.62525   0.00000  Uiso   1.00
O916   O     0.46045   0.29359   0.37890   0.00000  Uiso   1.00
O917   O     0.56012   0.12709   0.50000   0.00000  Uiso   1.00
O918   O     0.56012   0.20625   0.50000   0.00000  Uiso   1.00
O919   O     0.43988   0.12709   0.50000   0.00000  Uiso   1.00
O920   O     0.50000   0.20625   0.42946   0.00000  Uiso   1.00
O921   O     0.50000   0.12708   0.57054   0.00000  Uiso   1.00
O922   O     0.50000   0.20625   0.57054   0.00000  Uiso   1.00
O923   O     0.50000   0.12708   0.42946   0.00000  Uiso   1.00
O924   O     0.37398   0.08982   0.46333   0.00000  Uiso   1.00
C925   C     0.75435   0.16681   0.49942   0.00000  Uiso   1.00
C926   C     0.68804   0.20658   0.51246   0.00000  Uiso   1.00
C927   C     0.95738   0.16704   0.49573   0.00000  Uiso   1.00
C928   C     0.70978   0.16719   0.49816   0.00000  Uiso   1.00
C929   C     0.82180   0.02387   0.45871   0.00000  Uiso   1.00
C930   C     0.85011   0.30843   0.53911   0.00000  Uiso   1.00
C931   C     0.84764   0.02419   0.54049   0.00000  Uiso   1.00
C932   C     0.81621   0.30869   0.46126   0.00000  Uiso   1.00
C933   C     0.71731   0.09708   0.41394   0.00000  Uiso   1.00
C934   C     0.67941   0.09868   0.37855   0.00000  Uiso   1.00
C935   C     0.69195   0.09742   0.65873   0.00000  Uiso   1.00
C936   C     0.91250   0.16664   0.49855   0.00000  Uiso   1.00
C937   C     0.94776   0.26416   0.45353   0.00000  Uiso   1.00
C938   C     0.98158   0.28974   0.42815   0.00000  Uiso   1.00
C939   C     0.96791   0.30308   0.37577   0.00000  Uiso   1.00
C940   C     0.95809   0.06206   0.52612   0.00000  Uiso   1.00
C941   C     0.99861   0.03982   0.54455   0.00000  Uiso   1.00
C942   C     0.99120   0.00697   0.58656   0.00000  Uiso   1.00
C943   C     0.72244   0.23492   0.58214   0.00000  Uiso   1.00
C944   C     0.68906   0.22254   0.61779   0.00000  Uiso   1.00
C945   C     0.70636   0.22254   0.33754   0.00000  Uiso   1.00
C946   C     0.82636   0.04246   0.40928   0.00000  Uiso   1.00
C947   C     0.83312   0.16669   0.40706   0.00000  Uiso   1.00
C948   C     0.87174   0.28440   0.58054   0.00000  Uiso   1.00
C949   C     0.86484   0.04731   0.58482   0.00000  Uiso   1.00
C950   C     0.79085   0.28500   0.42249   0.00000  Uiso   1.00
C951   C     0.83334   0.16665   0.59293   0.00000  Uiso   1.00
C952   C     0.83309   0.16670   0.35521   0.00000  Uiso   1.00
C953   C     0.83317   0.16666   0.64477   0.00000  Uiso   1.00
C954   C     0.68803   0.12834   0.48119   0.00000  Uiso   1.00
C955   C     0.97934   0.20863   0.50207   0.00000  Uiso   1.00
C956   C     0.97947   0.12621   0.48715   0.00000  Uiso   1.00
Cu957  Cu    0.83333   0.21355   0.50000   0.00000  Uiso   1.00
Cu958  Cu    0.83333   0.11978   0.50000   0.00000  Uiso   1.00
H959   H     0.73630   0.06742   0.40349   0.00000  Uiso   1.00
H960   H     0.98920   0.32149   0.44852   0.00000  Uiso   1.00
H961   H     0.67617   0.26795   0.42752   0.00000  Uiso   1.00
H962   H     0.95853   0.27231   0.35414   0.00000  Uiso   1.00
H963   H     0.99380   0.31971   0.35798   0.00000  Uiso   1.00
H964   H     0.94180   0.32763   0.37599   0.00000  Uiso   1.00
H965   H     0.93453   0.03494   0.52136   0.00000  Uiso   1.00
H966   H     0.94808   0.08602   0.55506   0.00000  Uiso   1.00
H967   H     0.67993   0.02077   0.51497   0.00000  Uiso   1.00
H968   H     0.68693   0.06672   0.55789   0.00000  Uiso   1.00
H969   H     0.97408   0.02441   0.61550   0.00000  Uiso   1.00
H970   H     0.73612   0.12842   0.40958   0.00000  Uiso   1.00
H971   H     0.68758   0.32764   0.60272   0.00000  Uiso   1.00
H972   H     0.97290   0.31091   0.57256   0.00000  Uiso   1.00
H973   H     0.73859   0.26610   0.59592   0.00000  Uiso   1.00
H974   H     0.74579   0.20715   0.58317   0.00000  Uiso   1.00
H975   H     0.99659   0.24719   0.61423   0.00000  Uiso   1.00
H976   H     0.67686   0.18794   0.60880   0.00000  Uiso   1.00
H977   H     0.73382   0.20003   0.34168   0.00000  Uiso   1.00
H978   H     0.68286   0.20986   0.36225   0.00000  Uiso   1.00
H979   H     0.71515   0.25787   0.34873   0.00000  Uiso   1.00
H980   H     0.80001   0.04922   0.38477   0.00000  Uiso   1.00
H981   H     0.99272   0.06895   0.38547   0.00000  Uiso   1.00
H982   H     0.85932   0.28517   0.61681   0.00000  Uiso   1.00
H983   H     0.88775   0.07345   0.58200   0.00000  Uiso   1.00
H984   H     0.76933   0.25905   0.43256   0.00000  Uiso   1.00
H985   H     0.99505   0.13071   0.38438   0.00000  Uiso   1.00
H986   H     0.71442   0.12468   0.65169   0.00000  Uiso   1.00
H987   H     0.99784   0.10275   0.63382   0.00000  Uiso   1.00
H988   H     0.70632   0.06381   0.65084   0.00000  Uiso   1.00
H989   H     0.92096   0.28759   0.45580   0.00000  Uiso   1.00
H990   H     0.93727   0.23460   0.43026   0.00000  Uiso   1.00
N991   N     0.83333   0.28402   0.50000   0.00000  Uiso   1.00
N992   N     0.83333   0.04931   0.50000   0.00000  Uiso   1.00
O993   O     0.77321   0.20625   0.50000   0.00000  Uiso   1.00
O994   O     0.96039   0.25128   0.50229   0.00000  Uiso   1.00
O995   O     0.96058   0.08429   0.48009   0.00000  Uiso   1.00
O996   O     0.70691   0.24478   0.53354   0.00000  Uiso   1.00
O997   O     0.86068   0.04819   0.39459   0.00000  Uiso   1.00
O998   O     0.90416   0.26475   0.57501   0.00000  Uiso   1.00
O999   O     0.85253   0.03807   0.62525   0.00000  Uiso   1.00
O1000  O     0.79378   0.29359   0.37890   0.00000  Uiso   1.00
O1001  O     0.89345   0.12709   0.50000   0.00000  Uiso   1.00
O1002  O     0.89345   0.20625   0.50000   0.00000  Uiso   1.00
O1003  O     0.77321   0.12709   0.50000   0.00000  Uiso   1.00
O1004  O     0.83333   0.20625   0.42946   0.00000  Uiso   1.00
O1005  O     0.83333   0.12708   0.57054   0.00000  Uiso   1.00
O1006  O     0.83333   0.20625   0.57054   0.00000  Uiso   1.00
O1007  O     0.83333   0.12708   0.42946   0.00000  Uiso   1.00
O1008  O     0.70732   0.08982   0.46333   0.00000  Uiso   1.00
C1009  C     0.08768   0.50015   0.49942   0.00000  Uiso   1.00
C1010  C     0.02137   0.53991   0.51246   0.00000  Uiso   1.00
C1011  C     0.29071   0.50038   0.49573   0.00000  Uiso   1.00
C1012  C     0.04312   0.50052   0.49816   0.00000  Uiso   1.00
C1013  C     0.15514   0.35720   0.45871   0.00000  Uiso   1.00
C1014  C     0.18344   0.64177   0.53911   0.00000  Uiso   1.00
C1015  C     0.18098   0.35752   0.54049   0.00000  Uiso   1.00
C1016  C     0.14954   0.64203   0.46126   0.00000  Uiso   1.00
C1017  C     0.05064   0.43041   0.41394   0.00000  Uiso   1.00
C1018  C     0.01274   0.43201   0.37855   0.00000  Uiso   1.00
C1019  C     0.02529   0.43075   0.65873   0.00000  Uiso   1.00
C1020  C     0.24584   0.49997   0.49855   0.00000  Uiso   1.00
C1021  C     0.28109   0.59749   0.45353   0.00000  Uiso   1.00
C1022  C     0.31492   0.62307   0.42815   0.00000  Uiso   1.00
C1023  C     0.30124   0.63641   0.37577   0.00000  Uiso   1.00
C1024  C     0.29142   0.39540   0.52612   0.00000  Uiso   1.00
C1025  C     0.33195   0.37316   0.54455   0.00000  Uiso   1.00
C1026  C     0.32453   0.34030   0.58656   0.00000  Uiso   1.00
C1027  C     0.05578   0.56825   0.58214   0.00000  Uiso   1.00
C1028  C     0.02240   0.55588   0.61779   0.00000  Uiso   1.00
C1029  C     0.03969   0.55588   0.33754   0.00000  Uiso   1.00
C1030  C     0.15969   0.37580   0.40928   0.00000  Uiso   1.00
C1031  C     0.16646   0.50002   0.40706   0.00000  Uiso   1.00
C1032  C     0.20507   0.61774   0.58054   0.00000  Uiso   1.00
C1033  C     0.19817   0.38064   0.58482   0.00000  Uiso   1.00
C1034  C     0.12418   0.61833   0.42249   0.00000  Uiso   1.00
C1035  C     0.16668   0.49999   0.59293   0.00000  Uiso   1.00
C1036  C     0.16642   0.50003   0.35521   0.00000  Uiso   1.00
C1037  C     0.16650   0.49999   0.64477   0.00000  Uiso   1.00
C1038  C     0.02137   0.46167   0.48119   0.00000  Uiso   1.00
C1039  C     0.31268   0.54196   0.50207   0.00000  Uiso   1.00
C1040  C     0.31281   0.45954   0.48715   0.00000  Uiso   1.00
Cu1041 Cu    0.16667   0.54689   0.50000   0.00000  Uiso   1.00
Cu1042 Cu    0.16667   0.45311   0.50000   0.00000  Uiso   1.00
H1043  H     0.06963   0.40076   0.40349   0.00000  Uiso   1.00
H1044  H     0.32253   0.65482   0.44852   0.00000  Uiso   1.00
H1045  H     0.00951   0.60128   0.42752   0.00000  Uiso   1.00
H1046  H     0.29187   0.60564   0.35414   0.00000  Uiso   1.00
H1047  H     0.32714   0.65304   0.35798   0.00000  Uiso   1.00
H1048  H     0.27513   0.66096   0.37599   0.00000  Uiso   1.00
H1049  H     0.26786   0.36828   0.52136   0.00000  Uiso   1.00
H1050  H     0.28141   0.41935   0.55506   0.00000  Uiso   1.00
H1051  H     0.01326   0.35411   0.51497   0.00000  Uiso   1.00
H1052  H     0.02027   0.40005   0.55789   0.00000  Uiso   1.00
H1053  H     0.30741   0.35774   0.61550   0.00000  Uiso   1.00
H1054  H     0.06945   0.46175   0.40958   0.00000  Uiso   1.00
H1055  H     0.02091   0.66097   0.60272   0.00000  Uiso   1.00
H1056  H     0.30623   0.64424   0.57256   0.00000  Uiso   1.00
H1057  H     0.07192   0.59944   0.59592   0.00000  Uiso   1.00
H1058  H     0.07912   0.54048   0.58317   0.00000  Uiso   1.00
H1059  H     0.32992   0.58052   0.61423   0.00000  Uiso   1.00
H1060  H     0.01019   0.52128   0.60880   0.00000  Uiso   1.00
H1061  H     0.06716   0.53336   0.34168   0.00000  Uiso   1.00
H1062  H     0.01619   0.54319   0.36225   0.00000  Uiso   1.00
H1063  H     0.04848   0.59120   0.34873   0.00000  Uiso   1.00
H1064  H     0.13334   0.38255   0.38477   0.00000  Uiso   1.00
H1065  H     0.32606   0.40228   0.38547   0.00000  Uiso   1.00
H1066  H     0.19266   0.61850   0.61681   0.00000  Uiso   1.00
H1067  H     0.22108   0.40678   0.58200   0.00000  Uiso   1.00
H1068  H     0.10266   0.59238   0.43256   0.00000  Uiso   1.00
H1069  H     0.32839   0.46404   0.38438   0.00000  Uiso   1.00
H1070  H     0.04775   0.45802   0.65169   0.00000  Uiso   1.00
H1071  H     0.33117   0.43609   0.63382   0.00000  Uiso   1.00
H1072  H     0.03965   0.39714   0.65084   0.00000  Uiso   1.00
H1073  H     0.25429   0.62092   0.45580   0.00000  Uiso   1.00
H1074  H     0.27061   0.56793   0.43026   0.00000  Uiso   1.00
N1075  N     0.16667   0.61736   0.50000   0.00000  Uiso   1.00
N1076  N     0.16667   0.38264   0.50000   0.00000  Uiso   1.00
O1077  O     0.10655   0.53958   0.50000   0.00000  Uiso   1.00
O1078  O     0.29373   0.58462   0.50229   0.00000  Uiso   1.00
O1079  O     0.29391   0.41762   0.48009   0.00000  Uiso   1.00
O1080  O     0.04024   0.57811   0.53354   0.00000  Uiso   1.00
O1081  O     0.19401   0.38153   0.39459   0.00000  Uiso   1.00
O1082  O     0.23750   0.59809   0.57501   0.00000  Uiso   1.00
O1083  O     0.18587   0.37140   0.62525   0.00000  Uiso   1.00
O1084  O     0.12711   0.62692   0.37890   0.00000  Uiso   1.00
O1085  O     0.22679   0.46042   0.50000   0.00000  Uiso   1.00
O1086  O     0.22679   0.53958   0.50000   0.00000  Uiso   1.00
O1087  O     0.10655   0.46042   0.50000   0.00000  Uiso   1.00
O1088  O     0.16667   0.53959   0.42946   0.00000  Uiso   1.00
O1089  O     0.16667   0.46041   0.57054   0.00000  Uiso   1.00
O1090  O     0.16667   0.53959   0.57054   0.00000  Uiso   1.00
O1091  O     0.16667   0.46041   0.42946   0.00000  Uiso   1.00
O1092  O     0.04065   0.42315   0.46333   0.00000  Uiso   1.00
C1093  C     0.42101   0.50015   0.49942   0.00000  Uiso   1.00
C1094  C     0.35471   0.53991   0.51246   0.00000  Uiso   1.00
C1095  C     0.62404   0.50038   0.49573   0.00000  Uiso   1.00
C1096  C     0.37645   0.50052   0.49816   0.00000  Uiso   1.00
C1097  C     0.48847   0.35720   0.45871   0.00000  Uiso   1.00
C1098  C     0.51678   0.64177   0.53911   0.00000  Uiso   1.00
C1099  C     0.51431   0.35752   0.54049   0.00000  Uiso   1.00
C1100  C     0.48288   0.64203   0.46126   0.00000  Uiso   1.00
C1101  C     0.38398   0.43041   0.41394   0.00000  Uiso   1.00
C1102  C     0.34608   0.43201   0.37855   0.00000  Uiso   1.00
C1103  C     0.35862   0.43075   0.65873   0.00000  Uiso   1.00
C1104  C     0.57917   0.49997   0.49855   0.00000  Uiso   1.00
C1105  C     0.61442   0.59749   0.45353   0.00000  Uiso   1.00
C1106  C     0.64825   0.62307   0.42815   0.00000  Uiso   1.00
C1107  C     0.63458   0.63641   0.37577   0.00000  Uiso   1.00
C1108  C     0.62476   0.39540   0.52612   0.00000  Uiso   1.00
C1109  C     0.66528   0.37316   0.54455   0.00000  Uiso   1.00
C1110  C     0.65787   0.34030   0.58656   0.00000  Uiso   1.00
C1111  C     0.38911   0.56825   0.58214   0.00000  Uiso   1.00
C1112  C     0.35573   0.55588   0.61779   0.00000  Uiso   1.00
C1113  C     0.37303   0.55588   0.33754   0.00000  Uiso   1.00
C1114  C     0.49303   0.37580   0.40928   0.00000  Uiso   1.00
C1115  C     0.49979   0.50002   0.40706   0.00000  Uiso   1.00
C1116  C     0.53840   0.61774   0.58054   0.00000  Uiso   1.00
C1117  C     0.53151   0.38064   0.58482   0.00000  Uiso   1.00
C1118  C     0.45751   0.61833   0.42249   0.00000  Uiso   1.00
C1119  C     0.50001   0.49999   0.59293   0.00000  Uiso   1.00
C1120  C     0.49975   0.50003   0.35521   0.00000  Uiso   1.00
C1121  C     0.49983   0.49999   0.64477   0.00000  Uiso   1.00
C1122  C     0.35470   0.46167   0.48119   0.00000  Uiso   1.00
C1123  C     0.64601   0.54196   0.50207   0.00000  Uiso   1.00
C1124  C     0.64614   0.45954   0.48715   0.00000  Uiso   1.00
Cu1125 Cu    0.50000   0.54689   0.50000   0.00000  Uiso   1.00
Cu1126 Cu    0.50000   0.45311   0.50000   0.00000  Uiso   1.00
H1127  H     0.40296   0.40076   0.40349   0.00000  Uiso   1.00
H1128  H     0.65586   0.65482   0.44852   0.00000  Uiso   1.00
H1129  H     0.34284   0.60128   0.42752   0.00000  Uiso   1.00
H1130  H     0.62520   0.60564   0.35414   0.00000  Uiso   1.00
H1131  H     0.66047   0.65304   0.35798   0.00000  Uiso   1.00
H1132  H     0.60846   0.66096   0.37599   0.00000  Uiso   1.00
H1133  H     0.60119   0.36828   0.52136   0.00000  Uiso   1.00
H1134  H     0.61474   0.41935   0.55506   0.00000  Uiso   1.00
H1135  H     0.34660   0.35411   0.51497   0.00000  Uiso   1.00
H1136  H     0.35360   0.40005   0.55789   0.00000  Uiso   1.00
H1137  H     0.64074   0.35774   0.61550   0.00000  Uiso   1.00
H1138  H     0.40279   0.46175   0.40958   0.00000  Uiso   1.00
H1139  H     0.35424   0.66097   0.60272   0.00000  Uiso   1.00
H1140  H     0.63957   0.64424   0.57256   0.00000  Uiso   1.00
H1141  H     0.40525   0.59944   0.59592   0.00000  Uiso   1.00
H1142  H     0.41246   0.54048   0.58317   0.00000  Uiso   1.00
H1143  H     0.66325   0.58052   0.61423   0.00000  Uiso   1.00
H1144  H     0.34353   0.52128   0.60880   0.00000  Uiso   1.00
H1145  H     0.40049   0.53336   0.34168   0.00000  Uiso   1.00
H1146  H     0.34953   0.54319   0.36225   0.00000  Uiso   1.00
H1147  H     0.38181   0.59120   0.34873   0.00000  Uiso   1.00
H1148  H     0.46668   0.38255   0.38477   0.00000  Uiso   1.00
H1149  H     0.65939   0.40228   0.38547   0.00000  Uiso   1.00
H1150  H     0.52599   0.61850   0.61681   0.00000  Uiso   1.00
H1151  H     0.55441   0.40678   0.58200   0.00000  Uiso   1.00
H1152  H     0.43599   0.59238   0.43256   0.00000  Uiso   1.00
H1153  H     0.66172   0.46404   0.38438   0.00000  Uiso   1.00
H1154  H     0.38109   0.45802   0.65169   0.00000  Uiso   1.00
H1155  H     0.66450   0.43609   0.63382   0.00000  Uiso   1.00
H1156  H     0.37298   0.39714   0.65084   0.00000  Uiso   1.00
H1157  H     0.58762   0.62092   0.45580   0.00000  Uiso   1.00
H1158  H     0.60394   0.56793   0.43026   0.00000  Uiso   1.00
N1159  N     0.50000   0.61736   0.50000   0.00000  Uiso   1.00
N1160  N     0.50000   0.38264   0.50000   0.00000  Uiso   1.00
O1161  O     0.43988   0.53958   0.50000   0.00000  Uiso   1.00
O1162  O     0.62706   0.58462   0.50229   0.00000  Uiso   1.00
O1163  O     0.62724   0.41762   0.48009   0.00000  Uiso   1.00
O1164  O     0.37358   0.57811   0.53354   0.00000  Uiso   1.00
O1165  O     0.52735   0.38153   0.39459   0.00000  Uiso   1.00
O1166  O     0.57083   0.59809   0.57501   0.00000  Uiso   1.00
O1167  O     0.51920   0.37140   0.62525   0.00000  Uiso   1.00
O1168  O     0.46045   0.62692   0.37890   0.00000  Uiso   1.00
O1169  O     0.56012   0.46042   0.50000   0.00000  Uiso   1.00
O1170  O     0.56012   0.53958   0.50000   0.00000  Uiso   1.00
O1171  O     0.43988   0.46042   0.50000   0.00000  Uiso   1.00
O1172  O     0.50000   0.53959   0.42946   0.00000  Uiso   1.00
O1173  O     0.50000   0.46041   0.57054   0.00000  Uiso   1.00
O1174  O     0.50000   0.53959   0.57054   0.00000  Uiso   1.00
O1175  O     0.50000   0.46041   0.42946   0.00000  Uiso   1.00
O1176  O     0.37398   0.42315   0.46333   0.00000  Uiso   1.00
C1177  C     0.75435   0.50015   0.49942   0.00000  Uiso   1.00
C1178  C     0.68804   0.53991   0.51246   0.00000  Uiso   1.00
C1179  C     0.95738   0.50038   0.49573   0.00000  Uiso   1.00
C1180  C     0.70978   0.50052   0.49816   0.00000  Uiso   1.00
C1181  C     0.82180   0.35720   0.45871   0.00000  Uiso   1.00
C1182  C     0.85011   0.64177   0.53911   0.00000  Uiso   1.00
C1183  C     0.84764   0.35752   0.54049   0.00000  Uiso   1.00
C1184  C     0.81621   0.64203   0.46126   0.00000  Uiso   1.00
C1185  C     0.71731   0.43041   0.41394   0.00000  Uiso   1.00
C1186  C     0.67941   0.43201   0.37855   0.00000  Uiso   1.00
C1187  C     0.69195   0.43075   0.65873   0.00000  Uiso   1.00
C1188  C     0.91250   0.49997   0.49855   0.00000  Uiso   1.00
C1189  C     0.94776   0.59749   0.45353   0.00000  Uiso   1.00
C1190  C     0.98158   0.62307   0.42815   0.00000  Uiso   1.00
C1191  C     0.96791   0.63641   0.37577   0.00000  Uiso   1.00
C1192  C     0.95809   0.39540   0.52612   0.00000  Uiso   1.00
C1193  C     0.99861   0.37316   0.54455   0.00000  Uiso   1.00
C1194  C     0.99120   0.34030   0.58656   0.00000  Uiso   1.00
C1195  C     0.72244   0.56825   0.58214   0.00000  Uiso   1.00
C1196  C     0.68906   0.55588   0.61779   0.00000  Uiso   1.00
C1197  C     0.70636   0.55588   0.33754   0.00000  Uiso   1.00
C1198  C     0.82636   0.37580   0.40928   0.00000  Uiso   1.00
C1199  C     0.83312   0.50002   0.40706   0.00000  Uiso   1.00
C1200  C     0.87174   0.61774   0.58054   0.00000  Uiso   1.00
C1201  C     0.86484   0.38064   0.58482   0.00000  Uiso   1.00
C1202  C     0.79085   0.61833   0.42249   0.00000  Uiso   1.00
C1203  C     0.83334   0.49999   0.59293   0.00000  Uiso   1.00
C1204  C     0.83309   0.50003   0.35521   0.00000  Uiso   1.00
C1205  C     0.83317   0.49999   0.64477   0.00000  Uiso   1.00
C1206  C     0.68803   0.46167   0.48119   0.00000  Uiso   1.00
C1207  C     0.97934   0.54196   0.50207   0.00000  Uiso   1.00
C1208  C     0.97947   0.45954   0.48715   0.00000  Uiso   1.00
Cu1209 Cu    0.83333   0.54689   0.50000   0.00000  Uiso   1.00
Cu1210 Cu    0.83333   0.45311   0.50000   0.00000  Uiso   1.00
H1211  H     0.73630   0.40076   0.40349   0.00000  Uiso   1.00
H1212  H     0.98920   0.65482   0.44852   0.00000  Uiso   1.00
H1213  H     0.67617   0.60128   0.42752   0.00000  Uiso   1.00
H1214  H     0.95853   0.60564   0.35414   0.00000  Uiso   1.00
H1215  H     0.99380   0.65304   0.35798   0.00000  Uiso   1.00
H1216  H     0.94180   0.66096   0.37599   0.00000  Uiso   1.00
H1217  H     0.93453   0.36828   0.52136   0.00000  Uiso   1.00
H1218  H     0.94808   0.41935   0.55506   0.00000  Uiso   1.00
H1219  H     0.67993   0.35411   0.51497   0.00000  Uiso   1.00
H1220  H     0.68693   0.40005   0.55789   0.00000  Uiso   1.00
H1221  H     0.97408   0.35774   0.61550   0.00000  Uiso   1.00
H1222  H     0.73612   0.46175   0.40958   0.00000  Uiso   1.00
H1223  H     0.68758   0.66097   0.60272   0.00000  Uiso   1.00
H1224  H     0.97290   0.64424   0.57256   0.00000  Uiso   1.00
H1225  H     0.73859   0.59944   0.59592   0.00000  Uiso   1.00
H1226  H     0.74579   0.54048   0.58317   0.00000  Uiso   1.00
H1227  H     0.99659   0.58052   0.61423   0.00000  Uiso   1.00
H1228  H     0.67686   0.52128   0.60880   0.00000  Uiso   1.00
H1229  H     0.73382   0.53336   0.34168   0.00000  Uiso   1.00
H1230  H     0.68286   0.54319   0.36225   0.00000  Uiso   1.00
H1231  H     0.71515   0.59120   0.34873   0.00000  Uiso   1.00
H1232  H     0.80001   0.38255   0.38477   0.00000  Uiso   1.00
H1233  H     0.99272   0.40228   0.38547   0.00000  Uiso   1.00
H1234  H     0.85932   0.61850   0.61681   0.00000  Uiso   1.00
H1235  H     0.88775   0.40678   0.58200   0.00000  Uiso   1.00
H1236  H     0.76933   0.59238   0.43256   0.00000  Uiso   1.00
H1237  H     0.99505   0.46404   0.38438   0.00000  Uiso   1.00
H1238  H     0.71442   0.45802   0.65169   0.00000  Uiso   1.00
H1239  H     0.99784   0.43609   0.63382   0.00000  Uiso   1.00
H1240  H     0.70632   0.39714   0.65084   0.00000  Uiso   1.00
H1241  H     0.92096   0.62092   0.45580   0.00000  Uiso   1.00
H1242  H     0.93727   0.56793   0.43026   0.00000  Uiso   1.00
N1243  N     0.83333   0.61736   0.50000   0.00000  Uiso   1.00
N1244  N     0.83333   0.38264   0.50000   0.00000  Uiso   1.00
O1245  O     0.77321   0.53958   0.50000   0.00000  Uiso   1.00
O1246  O     0.96039   0.58462   0.50229   0.00000  Uiso   1.00
O1247  O     0.96058   0.41762   0.48009   0.00000  Uiso   1.00
O1248  O     0.70691   0.57811   0.53354   0.00000  Uiso   1.00
O1249  O     0.86068   0.38153   0.39459   0.00000  Uiso   1.00
O1250  O     0.90416   0.59809   0.57501   0.00000  Uiso   1.00
O1251  O     0.85253   0.37140   0.62525   0.00000  Uiso   1.00
O1252  O     0.79378   0.62692   0.37890   0.00000  Uiso   1.00
O1253  O     0.89345   0.46042   0.50000   0.00000  Uiso   1.00
O1254  O     0.89345   0.53958   0.50000   0.00000  Uiso   1.00
O1255  O     0.77321   0.46042   0.50000   0.00000  Uiso   1.00
O1256  O     0.83333   0.53959   0.42946   0.00000  Uiso   1.00
O1257  O     0.83333   0.46041   0.57054   0.00000  Uiso   1.00
O1258  O     0.83333   0.53959   0.57054   0.00000  Uiso   1.00
O1259  O     0.83333   0.46041   0.42946   0.00000  Uiso   1.00
O1260  O     0.70732   0.42315   0.46333   0.00000  Uiso   1.00
C1261  C     0.08768   0.83348   0.49942   0.00000  Uiso   1.00
C1262  C     0.02137   0.87325   0.51246   0.00000  Uiso   1.00
C1263  C     0.29071   0.83371   0.49573   0.00000  Uiso   1.00
C1264  C     0.04312   0.83385   0.49816   0.00000  Uiso   1.00
C1265  C     0.15514   0.69054   0.45871   0.00000  Uiso   1.00
C1266  C     0.18344   0.97510   0.53911   0.00000  Uiso   1.00
C1267  C     0.18098   0.69085   0.54049   0.00000  Uiso   1.00
C1268  C     0.14954   0.97536   0.46126   0.00000  Uiso   1.00
C1269  C     0.05064   0.76374   0.41394   0.00000  Uiso   1.00
C1270  C     0.01274   0.76534   0.37855   0.00000  Uiso   1.00
C1271  C     0.02529   0.76409   0.65873   0.00000  Uiso   1.00
C1272  C     0.24584   0.83331   0.49855   0.00000  Uiso   1.00
C1273  C     0.28109   0.93083   0.45353   0.00000  Uiso   1.00
C1274  C     0.31492   0.95640   0.42815   0.00000  Uiso   1.00
C1275  C     0.30124   0.96974   0.37577   0.00000  Uiso   1.00
C1276  C     0.29142   0.72873   0.52612   0.00000  Uiso   1.00
C1277  C     0.33195   0.70649   0.54455   0.00000  Uiso   1.00
C1278  C     0.32453   0.67364   0.58656   0.00000  Uiso   1.00
C1279  C     0.05578   0.90158   0.58214   0.00000  Uiso   1.00
C1280  C     0.02240   0.88921   0.61779   0.00000  Uiso   1.00
C1281  C     0.03969   0.88921   0.33754   0.00000  Uiso   1.00
C1282  C     0.15969   0.70913   0.40928   0.00000  Uiso   1.00
C1283  C     0.16646   0.83335   0.40706   0.00000  Uiso   1.00
C1284  C     0.20507   0.95107   0.58054   0.00000  Uiso   1.00
C1285  C     0.19817   0.71397   0.58482   0.00000  Uiso   1.00
C1286  C     0.12418   0.95167   0.42249   0.00000  Uiso   1.00
C1287  C     0.16668   0.83332   0.59293   0.00000  Uiso   1.00
C1288  C     0.16642   0.83337   0.35521   0.00000  Uiso   1.00
C1289  C     0.16650   0.83333   0.64477   0.00000  Uiso   1.00
C1290  C     0.02137   0.79501   0.48119   0.00000  Uiso   1.00
C1291  C     0.31268   0.87529   0.50207   0.00000  Uiso   1.00
C1292  C     0.31281   0.79288   0.48715   0.00000  Uiso   1.00
Cu1293 Cu    0.16667   0.88022   0.50000   0.00000  Uiso   1.00
Cu1294 Cu    0.16667   0.78645   0.50000   0.00000  Uiso   1.00
H1295  H     0.06963   0.73409   0.40349   0.00000  Uiso   1.00
H1296  H     0.32253   0.98815   0.44852   0.00000  Uiso   1.00
H1297  H     0.00951   0.93461   0.42752   0.00000  Uiso   1.00
H1298  H     0.29187   0.93898   0.35414   0.00000  Uiso   1.00
H1299  H     0.32714   0.98637   0.35798   0.00000  Uiso   1.00
H1300  H     0.27513   0.99430   0.37599   0.00000  Uiso   1.00
H1301  H     0.26786   0.70161   0.52136   0.00000  Uiso   1.00
H1302  H     0.28141   0.75268   0.55506   0.00000  Uiso   1.00
H1303  H     0.01326   0.68744   0.51497   0.00000  Uiso   1.00
H1304  H     0.02027   0.73338   0.55789   0.00000  Uiso   1.00
H1305  H     0.30741   0.69107   0.61550   0.00000  Uiso   1.00
H1306  H     0.06945   0.79508   0.40958   0.00000  Uiso   1.00
H1307  H     0.02091   0.99431   0.60272   0.00000  Uiso   1.00
H1308  H     0.30623   0.97757   0.57256   0.00000  Uiso   1.00
H1309  H     0.07192   0.93277   0.59592   0.00000  Uiso   1.00
H1310  H     0.07912   0.87382   0.58317   0.00000  Uiso   1.00
H1311  H     0.32992   0.91386   0.61423   0.00000  Uiso   1.00
H1312  H     0.01019   0.85461   0.60880   0.00000  Uiso   1.00
H1313  H     0.06716   0.86670   0.34168   0.00000  Uiso   1.00
H1314  H     0.01619   0.87652   0.36225   0.00000  Uiso   1.00
H1315  H     0.04848   0.92454   0.34873   0.00000  Uiso   1.00
H1316  H     0.13334   0.71589   0.38477   0.00000  Uiso   1.00
H1317  H     0.32606   0.73561   0.38547   0.00000  Uiso   1.00
H1318  H     0.19266   0.95184   0.61681   0.00000  Uiso   1.00
H1319  H     0.22108   0.74011   0.58200   0.00000  Uiso   1.00
H1320  H     0.10266   0.92572   0.43256   0.00000  Uiso   1.00
H1321  H     0.32839   0.79737   0.38438   0.00000  Uiso   1.00
H1322  H     0.04775   0.79135   0.65169   0.00000  Uiso   1.00
H1323  H     0.33117   0.76942   0.63382   0.00000  Uiso   1.00
H1324  H     0.03965   0.73048   0.65084   0.00000  Uiso   1.00
H1325  H     0.25429   0.95425   0.45580   0.00000  Uiso   1.00
H1326  H     0.27061   0.90126   0.43026   0.00000  Uiso   1.00
N1327  N     0.16667   0.95069   0.50000   0.00000  Uiso   1.00
N1328  N     0.16667   0.71598   0.50000   0.00000  Uiso   1.00
O1329  O     0.10655   0.87291   0.50000   0.00000  Uiso   1.00
O1330  O     0.29373   0.91795   0.50229   0.00000  Uiso   1.00
O1331  O     0.29391   0.75095   0.48009   0.00000  Uiso   1.00
O1332  O     0.04024   0.91144   0.53354   0.00000  Uiso   1.00
O1333  O     0.19401   0.71486   0.39459   0.00000  Uiso   1.00
O1334  O     0.23750   0.93142   0.57501   0.00000  Uiso   1.00
O1335  O     0.18587   0.70474   0.62525   0.00000  Uiso   1.00
O1336  O     0.12711   0.96025   0.37890   0.00000  Uiso   1.00
O1337  O     0.22679   0.79375   0.50000   0.00000  Uiso   1.00
O1338  O     0.22679   0.87291   0.50000   0.00000  Uiso   1.00
O1339  O     0.10655   0.79375   0.50000   0.00000  Uiso   1.00
O1340  O     0.16667   0.87292   0.42946   0.00000  Uiso   1.00
O1341  O     0.16667   0.79375   0.57054   0.00000  Uiso   1.00
O1342  O     0.16667   0.87292   0.57054   0.00000  Uiso   1.00
O1343  O     0.16667   0.79375   0.42946   0.00000  Uiso   1.00
O1344  O     0.04065   0.75649   0.46333   0.00000  Uiso   1.00
C1345  C     0.42101   0.83348   0.49942   0.00000  Uiso   1.00
C1346  C     0.35471   0.87325   0.51246   0.00000  Uiso   1.00
C1347  C     0.62404   0.83371   0.49573   0.00000  Uiso   1.00
C1348  C     0.37645   0.83385   0.49816   0.00000  Uiso   1.00
C1349  C     0.48847   0.69054   0.45871   0.00000  Uiso   1.00
C1350  C     0.51678   0.97510   0.53911   0.00000  Uiso   1.00
C1351  C     0.51431   0.69085   0.54049   0.00000  Uiso   1.00
C1352  C     0.48288   0.97536   0.46126   0.00000  Uiso   1.00
C1353  C     0.38398   0.76374   0.41394   0.00000  Uiso   1.00
C1354  C     0.34608   0.76534   0.37855   0.00000  Uiso   1.00
C1355  C     0.35862   0.76409   0.65873   0.00000  Uiso   1.00
C1356  C     0.57917   0.83331   0.49855   0.00000  Uiso   1.00
C1357  C     0.61442   0.93083   0.45353   0.00000  Uiso   1.00
C1358  C     0.64825   0.95640   0.42815   0.00000  Uiso   1.00
C1359  C     0.63458   0.96974   0.37577   0.00000  Uiso   1.00
C1360  C     0.62476   0.72873   0.52612   0.00000  Uiso   1.00
C1361  C     0.66528   0.70649   0.54455   0.00000  Uiso   1.00
C1362  C     0.65787   0.67364   0.58656   0.00000  Uiso   1.00
C1363  C     0.38911   0.90158   0.58214   0.00000  Uiso   1.00
C1364  C     0.35573   0.88921   0.61779   0.00000  Uiso   1.00
C1365  C     0.37303   0.88921   0.33754   0.00000  Uiso   1.00
C1366  C     0.49303   0.70913   0.40928   0.00000  Uiso   1.00
C1367  C     0.49979   0.83335   0.40706   0.00000  Uiso   1.00
C1368  C     0.53840   0.95107   0.58054   0.00000  Uiso   1.00
C1369  C     0.53151   0.71397   0.58482   0.00000  Uiso   1.00
C1370  C     0.45751   0.95167   0.42249   0.00000  Uiso   1.00
C1371  C     0.50001   0.83332   0.59293   0.00000  Uiso   1.00
C1372  C     0.49975   0.83337   0.35521   0.00000  Uiso   1.00
C1373  C     0.49983   0.83333   0.64477   0.00000  Uiso   1.00
C1374  C     0.35470   0.79501   0.48119   0.00000  Uiso   1.00
C1375  C     0.64601   0.87529   0.50207   0.00000  Uiso   1.00
C1376  C     0.64614   0.79288   0.48715   0.00000  Uiso   1.00
Cu1377 Cu    0.50000   0.88022   0.50000   0.00000  Uiso   1.00
Cu1378 Cu    0.50000   0.78645   0.50000   0.00000  Uiso   1.00
H1379  H     0.40296   0.73409   0.40349   0.00000  Uiso   1.00
H1380  H     0.65586   0.98815   0.44852   0.00000  Uiso   1.00
H1381  H     0.34284   0.93461   0.42752   0.00000  Uiso   1.00
H1382  H     0.62520   0.93898   0.35414   0.00000  Uiso   1.00
H1383  H     0.66047   0.98637   0.35798   0.00000  Uiso   1.00
H1384  H     0.60846   0.99430   0.37599   0.00000  Uiso   1.00
H1385  H     0.60119   0.70161   0.52136   0.00000  Uiso   1.00
H1386  H     0.61474   0.75268   0.55506   0.00000  Uiso   1.00
H1387  H     0.34660   0.68744   0.51497   0.00000  Uiso   1.00
H1388  H     0.35360   0.73338   0.55789   0.00000  Uiso   1.00
H1389  H     0.64074   0.69107   0.61550   0.00000  Uiso   1.00
H1390  H     0.40279   0.79508   0.40958   0.00000  Uiso   1.00
H1391  H     0.35424   0.99431   0.60272   0.00000  Uiso   1.00
H1392  H     0.63957   0.97757   0.57256   0.00000  Uiso   1.00
H1393  H     0.40525   0.93277   0.59592   0.00000  Uiso   1.00
H1394  H     0.41246   0.87382   0.58317   0.00000  Uiso   1.00
H1395  H     0.66325   0.91386   0.61423   0.00000  Uiso   1.00
H1396  H     0.34353   0.85461   0.60880   0.00000  Uiso   1.00
H1397  H     0.40049   0.86670   0.34168   0.00000  Uiso   1.00
H1398  H     0.34953   0.87652   0.36225   0.00000  Uiso   1.00
H1399  H     0.38181   0.92454   0.34873   0.00000  Uiso   1.00
H1400  H     0.46668   0.71589   0.38477   0.00000  Uiso   1.00
H1401  H     0.65939   0.73561   0.38547   0.00000  Uiso   1.00
H1402  H     0.52599   0.95184   0.61681   0.00000  Uiso   1.00
H1403  H     0.55441   0.74011   0.58200   0.00000  Uiso   1.00
H1404  H     0.43599   0.92572   0.43256   0.00000  Uiso   1.00
H1405  H     0.66172   0.79737   0.38438   0.00000  Uiso   1.00
H1406  H     0.38109   0.79135   0.65169   0.00000  Uiso   1.00
H1407  H     0.66450   0.76942   0.63382   0.00000  Uiso   1.00
H1408  H     0.37298   0.73048   0.65084   0.00000  Uiso   1.00
H1409  H     0.58762   0.95425   0.45580   0.00000  Uiso   1.00
H1410  H     0.60394   0.90126   0.43026   0.00000  Uiso   1.00
N1411  N     0.50000   0.95069   0.50000   0.00000  Uiso   1.00
N1412  N     0.50000   0.71598   0.50000   0.00000  Uiso   1.00
O1413  O     0.43988   0.87291   0.50000   0.00000  Uiso   1.00
O1414  O     0.62706   0.91795   0.50229   0.00000  Uiso   1.00
O1415  O     0.62724   0.75095   0.48009   0.00000  Uiso   1.00
O1416  O     0.37358   0.91144   0.53354   0.00000  Uiso   1.00
O1417  O     0.52735   0.71486   0.39459   0.00000  Uiso   1.00
O1418  O     0.57083   0.93142   0.57501   0.00000  Uiso   1.00
O1419  O     0.51920   0.70474   0.62525   0.00000  Uiso   1.00
O1420  O     0.46045   0.96025   0.37890   0.00000  Uiso   1.00
O1421  O     0.56012   0.79375   0.50000   0.00000  Uiso   1.00
O1422  O     0.56012   0.87291   0.50000   0.00000  Uiso   1.00
O1423  O     0.43988   0.79375   0.50000   0.00000  Uiso   1.00
O1424  O     0.50000   0.87292   0.42946   0.00000  Uiso   1.00
O1425  O     0.50000   0.79375   0.57054   0.00000  Uiso   1.00
O1426  O     0.50000   0.87292   0.57054   0.00000  Uiso   1.00
O1427  O     0.50000   0.79375   0.42946   0.00000  Uiso   1.00
O1428  O     0.37398   0.75649   0.46333   0.00000  Uiso   1.00
C1429  C     0.75435   0.83348   0.49942   0.00000  Uiso   1.00
C1430  C     0.68804   0.87325   0.51246   0.00000  Uiso   1.00
C1431  C     0.95738   0.83371   0.49573   0.00000  Uiso   1.00
C1432  C     0.70978   0.83385   0.49816   0.00000  Uiso   1.00
C1433  C     0.82180   0.69054   0.45871   0.00000  Uiso   1.00
C1434  C     0.85011   0.97510   0.53911   0.00000  Uiso   1.00
C1435  C     0.84764   0.69085   0.54049   0.00000  Uiso   1.00
C1436  C     0.81621   0.97536   0.46126   0.00000  Uiso   1.00
C1437  C     0.71731   0.76374   0.41394   0.00000  Uiso   1.00
C1438  C     0.67941   0.76534   0.37855   0.00000  Uiso   1.00
C1439  C     0.69195   0.76409   0.65873   0.00000  Uiso   1.00
C1440  C     0.91250   0.83331   0.49855   0.00000  Uiso   1.00
C1441  C     0.94776   0.93083   0.45353   0.00000  Uiso   1.00
C1442  C     0.98158   0.95640   0.42815   0.00000  Uiso   1.00
C1443  C     0.96791   0.96974   0.37577   0.00000  Uiso   1.00
C1444  C     0.95809   0.72873   0.52612   0.00000  Uiso   1.00
C1445  C     0.99861   0.70649   0.54455   0.00000  Uiso   1.00
C1446  C     0.99120   0.67364   0.58656   0.00000  Uiso   1.00
C1447  C     0.72244   0.90158   0.58214   0.00000  Uiso   1.00
C1448  C     0.68906   0.88921   0.61779   0.00000  Uiso   1.00
C1449  C     0.70636   0.88921   0.33754   0.00000  Uiso   1.00
C1450  C     0.82636   0.70913   0.40928   0.00000  Uiso   1.00
C1451  C     0.83312   0.83335   0.40706   0.00000  Uiso   1.00
C1452  C     0.87174   0.95107   0.58054   0.00000  Uiso   1.00
C1453  C     0.86484   0.71397   0.58482   0.00000  Uiso   1.00
C1454  C     0.79085   0.95167   0.42249   0.00000  Uiso   1.00
C1455  C     0.83334   0.83332   0.59293   0.00000  Uiso   1.00
C1456  C     0.83309   0.83337   0.35521   0.00000  Uiso   1.00
C1457  C     0.83317   0.83333   0.64477   0.00000  Uiso   1.00
C1458  C     0.68803   0.79501   0.48119   0.00000  Uiso   1.00
C1459  C     0.97934   0.87529   0.50207   0.00000  Uiso   1.00
C1460  C     0.97947   0.79288   0.48715   0.00000  Uiso   1.00
Cu1461 Cu    0.83333   0.88022   0.50000   0.00000  Uiso   1.00
Cu1462 Cu    0.83333   0.78645   0.50000   0.00000  Uiso   1.00
H1463  H     0.73630   0.73409   0.40349   0.00000  Uiso   1.00
H1464  H     0.98920   0.98815   0.44852   0.00000  Uiso   1.00
H1465  H     0.67617   0.93461   0.42752   0.00000  Uiso   1.00
H1466  H     0.95853   0.93898   0.35414   0.00000  Uiso   1.00
H1467  H     0.99380   0.98637   0.35798   0.00000  Uiso   1.00
H1468  H     0.94180   0.99430   0.37599   0.00000  Uiso   1.00
H1469  H     0.93453   0.70161   0.52136   0.00000  Uiso   1.00
H1470  H     0.94808   0.75268   0.55506   0.00000  Uiso   1.00
H1471  H     0.67993   0.68744   0.51497   0.00000  Uiso   1.00
H1472  H     0.68693   0.73338   0.55789   0.00000  Uiso   1.00
H1473  H     0.97408   0.69107   0.61550   0.00000  Uiso   1.00
H1474  H     0.73612   0.79508   0.40958   0.00000  Uiso   1.00
H1475  H     0.68758   0.99431   0.60272   0.00000  Uiso   1.00
H1476  H     0.97290   0.97757   0.57256   0.00000  Uiso   1.00
H1477  H     0.73859   0.93277   0.59592   0.00000  Uiso   1.00
H1478  H     0.74579   0.87382   0.58317   0.00000  Uiso   1.00
H1479  H     0.99659   0.91386   0.61423   0.00000  Uiso   1.00
H1480  H     0.67686   0.85461   0.60880   0.00000  Uiso   1.00
H1481  H     0.73382   0.86670   0.34168   0.00000  Uiso   1.00
H1482  H     0.68286   0.87652   0.36225   0.00000  Uiso   1.00
H1483  H     0.71515   0.92454   0.34873   0.00000  Uiso   1.00
H1484  H     0.80001   0.71589   0.38477   0.00000  Uiso   1.00
H1485  H     0.99272   0.73561   0.38547   0.00000  Uiso   1.00
H1486  H     0.85932   0.95184   0.61681   0.00000  Uiso   1.00
H1487  H     0.88775   0.74011   0.58200   0.00000  Uiso   1.00
H1488  H     0.76933   0.92572   0.43256   0.00000  Uiso   1.00
H1489  H     0.99505   0.79737   0.38438   0.00000  Uiso   1.00
H1490  H     0.71442   0.79135   0.65169   0.00000  Uiso   1.00
H1491  H     0.99784   0.76942   0.63382   0.00000  Uiso   1.00
H1492  H     0.70632   0.73048   0.65084   0.00000  Uiso   1.00
H1493  H     0.92096   0.95425   0.45580   0.00000  Uiso   1.00
H1494  H     0.93727   0.90126   0.43026   0.00000  Uiso   1.00
N1495  N     0.83333   0.95069   0.50000   0.00000  Uiso   1.00
N1496  N     0.83333   0.71598   0.50000   0.00000  Uiso   1.00
O1497  O     0.77321   0.87291   0.50000   0.00000  Uiso   1.00
O1498  O     0.96039   0.91795   0.50229   0.00000  Uiso   1.00
O1499  O     0.96058   0.75095   0.48009   0.00000  Uiso   1.00
O1500  O     0.70691   0.91144   0.53354   0.00000  Uiso   1.00
O1501  O     0.86068   0.71486   0.39459   0.00000  Uiso   1.00
O1502  O     0.90416   0.93142   0.57501   0.00000  Uiso   1.00
O1503  O     0.85253   0.70474   0.62525   0.00000  Uiso   1.00
O1504  O     0.79378   0.96025   0.37890   0.00000  Uiso   1.00
O1505  O     0.89345   0.79375   0.50000   0.00000  Uiso   1.00
O1506  O     0.89345   0.87291   0.50000   0.00000  Uiso   1.00
O1507  O     0.77321   0.79375   0.50000   0.00000  Uiso   1.00
O1508  O     0.83333   0.87292   0.42946   0.00000  Uiso   1.00
O1509  O     0.83333   0.79375   0.57054   0.00000  Uiso   1.00
O1510  O     0.83333   0.87292   0.57054   0.00000  Uiso   1.00
O1511  O     0.83333   0.79375   0.42946   0.00000  Uiso   1.00
O1512  O     0.70732   0.75649   0.46333   0.00000  Uiso   1.00
C1513  C     0.08768   0.16681   0.83275   0.00000  Uiso   1.00
C1514  C     0.02137   0.20658   0.84579   0.00000  Uiso   1.00
C1515  C     0.29071   0.16704   0.82906   0.00000  Uiso   1.00
C1516  C     0.04312   0.16719   0.83150   0.00000  Uiso   1.00
C1517  C     0.15514   0.02387   0.79204   0.00000  Uiso   1.00
C1518  C     0.18344   0.30843   0.87245   0.00000  Uiso   1.00
C1519  C     0.18098   0.02419   0.87382   0.00000  Uiso   1.00
C1520  C     0.14954   0.30869   0.79459   0.00000  Uiso   1.00
C1521  C     0.05064   0.09708   0.74727   0.00000  Uiso   1.00
C1522  C     0.01274   0.09868   0.71188   0.00000  Uiso   1.00
C1523  C     0.02529   0.09742   0.99206   0.00000  Uiso   1.00
C1524  C     0.24584   0.16664   0.83188   0.00000  Uiso   1.00
C1525  C     0.28109   0.26416   0.78687   0.00000  Uiso   1.00
C1526  C     0.31492   0.28974   0.76148   0.00000  Uiso   1.00
C1527  C     0.30124   0.30308   0.70910   0.00000  Uiso   1.00
C1528  C     0.29142   0.06206   0.85945   0.00000  Uiso   1.00
C1529  C     0.33195   0.03982   0.87788   0.00000  Uiso   1.00
C1530  C     0.32453   0.00697   0.91989   0.00000  Uiso   1.00
C1531  C     0.05578   0.23492   0.91547   0.00000  Uiso   1.00
C1532  C     0.02240   0.22254   0.95112   0.00000  Uiso   1.00
C1533  C     0.03969   0.22254   0.67087   0.00000  Uiso   1.00
C1534  C     0.15969   0.04246   0.74262   0.00000  Uiso   1.00
C1535  C     0.16646   0.16669   0.74040   0.00000  Uiso   1.00
C1536  C     0.20507   0.28440   0.91388   0.00000  Uiso   1.00
C1537  C     0.19817   0.04731   0.91816   0.00000  Uiso   1.00
C1538  C     0.12418   0.28500   0.75583   0.00000  Uiso   1.00
C1539  C     0.16668   0.16665   0.92626   0.00000  Uiso   1.00
C1540  C     0.16642   0.16670   0.68855   0.00000  Uiso   1.00
C1541  C     0.16650   0.16666   0.97810   0.00000  Uiso   1.00
C1542  C     0.02137   0.12834   0.81453   0.00000  Uiso   1.00
C1543  C     0.31268   0.20863   0.83540   0.00000  Uiso   1.00
C1544  C     0.31281   0.12621   0.82048   0.00000  Uiso   1.00
Cu1545 Cu    0.16667   0.21355   0.83333   0.00000  Uiso   1.00
Cu1546 Cu    0.16667   0.11978   0.83333   0.00000  Uiso   1.00
H1547  H     0.06963   0.06742   0.73683   0.00000  Uiso   1.00
H1548  H     0.32253   0.32149   0.78185   0.00000  Uiso   1.00
H1549  H     0.00951   0.26795   0.76085   0.00000  Uiso   1.00
H1550  H     0.29187   0.27231   0.68748   0.00000  Uiso   1.00
H1551  H     0.32714   0.31971   0.69131   0.00000  Uiso   1.00
H1552  H     0.27513   0.32763   0.70933   0.00000  Uiso   1.00
H1553  H     0.26786   0.03494   0.85469   0.00000  Uiso   1.00
H1554  H     0.28141   0.08602   0.88840   0.00000  Uiso   1.00
H1555  H     0.01326   0.02077   0.84830   0.00000  Uiso   1.00
H1556  H     0.02027   0.06672   0.89122   0.00000  Uiso   1.00
H1557  H     0.30741   0.02441   0.94884   0.00000  Uiso   1.00
H1558  H     0.06945   0.12842   0.74292   0.00000  Uiso   1.00
H1559  H     0.02091   0.32764   0.93605   0.00000  Uiso   1.00
H1560  H     0.30623   0.31091   0.90589   0.00000  Uiso   1.00
H1561  H     0.07192   0.26610   0.92925   0.00000  Uiso   1.00
H1562  H     0.07912   0.20715   0.91650   0.00000  Uiso   1.00
H1563  H     0.32992   0.24719   0.94757   0.00000  Uiso   1.00
H1564  H     0.01019   0.18794   0.94213   0.00000  Uiso   1.00
H1565  H     0.06716   0.20003   0.67502   0.00000  Uiso   1.00
H1566  H     0.01619   0.20986   0.69559   0.00000  Uiso   1.00
H1567  H     0.04848   0.25787   0.68206   0.00000  Uiso   1.00
H1568  H     0.13334   0.04922   0.71811   0.00000  Uiso   1.00
H1569  H     0.32606   0.06895   0.71880   0.00000  Uiso   1.00
H1570  H     0.19266   0.28517   0.95014   0.00000  Uiso   1.00
H1571  H     0.22108   0.07345   0.91533   0.00000  Uiso   1.00
H1572  H     0.10266   0.25905   0.76589   0.00000  Uiso   1.00
H1573  H     0.32839   0.13071   0.71771   0.00000  Uiso   1.00
H1574  H     0.04775   0.12468   0.98502   0.00000  Uiso   1.00
H1575  H     0.33117   0.10275   0.96715   0.00000  Uiso   1.00
H1576  H     0.03965   0.06381   0.98418   0.00000  Uiso   1.00
H1577  H     0.25429   0.28759   0.78913   0.00000  Uiso   1.00
H1578  H     0.27061   0.23460   0.76359   0.00000  Uiso   1.00
N1579  N     0.16667   0.28402   0.83333   0.00000  Uiso   1.00
N1580  N     0.16667   0.04931   0.83333   0.00000  Uiso   1.00
O1581  O     0.10655   0.20625   0.83333   0.00000  Uiso   1.00
O1582  O     0.29373   0.25128   0.83562   0.00000  Uiso   1.00
O1583  O     0.29391   0.08429   0.81342   0.00000  Uiso   1.00
O1584  O     0.04024   0.24478   0.86688   0.00000  Uiso   1.00
O1585  O     0.19401   0.04819   0.72792   0.00000  Uiso   1.00
O1586  O     0.23750   0.26475   0.90835   0.00000  Uiso   1.00
O1587  O     0.18587   0.03807   0.95858   0.00000  Uiso   1.00
O1588  O     0.12711   0.29359   0.71223   0.00000  Uiso   1.00
O1589  O     0.22679   0.12709   0.83334   0.00000  Uiso   1.00
O1590  O     0.22679   0.20625   0.83334   0.00000  Uiso   1.00
O1591  O     0.10655   0.12709   0.83333   0.00000  Uiso   1.00
O1592  O     0.16667   0.20625   0.76280   0.00000  Uiso   1.00
O1593  O     0.16667   0.12708   0.90387   0.00000  Uiso   1.00
O1594  O     0.16667   0.20625   0.90387   0.00000  Uiso   1.00
O1595  O     0.16667   0.12708   0.76280   0.00000  Uiso   1.00
O1596  O     0.04065   0.08982   0.79666   0.00000  Uiso   1.00
C1597  C     0.42101   0.16681   0.83275   0.00000  Uiso   1.00
C1598  C     0.35471   0.20658   0.84579   0.00000  Uiso   1.00
C1599  C     0.62404   0.16704   0.82906   0.00000  Uiso   1.00
C1600  C     0.37645   0.16719   0.83150   0.00000  Uiso   1.00
C1601  C     0.48847   0.02387   0.79204   0.00000  Uiso   1.00
C1602  C     0.51678   0.30843   0.87245   0.00000  Uiso   1.00
C1603  C     0.51431   0.02419   0.87382   0.00000  Uiso   1.00
C1604  C     0.48288   0.30869   0.79459   0.00000  Uiso   1.00
C1605  C     0.38398   0.09708   0.74727   0.00000  Uiso   1.00
C1606  C     0.34608   0.09868   0.71188   0.00000  Uiso   1.00
C1607  C     0.35862   0.09742   0.99206   0.00000  Uiso   1.00
C1608  C     0.57917   0.16664   0.83188   0.00000  Uiso   1.00
C1609  C     0.61442   0.26416   0.78687   0.00000  Uiso   1.00
C1610  C     0.64825   0.28974   0.76148   0.00000  Uiso   1.00
C1611  C     0.63458   0.30308   0.70910   0.00000  Uiso   1.00
C1612  C     0.62476   0.06206   0.85945   0.00000  Uiso   1.00
C1613  C     0.66528   0.03982   0.87788   0.00000  Uiso   1.00
C1614  C     0.65787   0.00697   0.91989   0.00000  Uiso   1.00
C1615  C     0.38911   0.23492   0.91547   0.00000  Uiso   1.00
C1616  C     0.35573   0.22254   0.95112   0.00000  Uiso   1.00
C1617  C     0.37303   0.22254   0.67087   0.00000  Uiso   1.00
C1618  C     0.49303   0.04246   0.74262   0.00000  Uiso   1.00
C1619  C     0.49979   0.16669   0.74040   0.00000  Uiso   1.00
C1620  C     0.53840   0.28440   0.91388   0.00000  Uiso   1.00
C1621  C     0.53151   0.04731   0.91816   0.00000  Uiso   1.00
C1622  C     0.45751   0.28500   0.75583   0.00000  Uiso   1.00
C1623  C     0.50001   0.16665   0.92626   0.00000  Uiso   1.00
C1624  C     0.49975   0.16670   0.68855   0.00000  Uiso   1.00
C1625  C     0.49983   0.16666   0.97810   0.00000  Uiso   1.00
C1626  C     0.35470   0.12834   0.81453   0.00000  Uiso   1.00
C1627  C     0.64601   0.20863   0.83540   0.00000  Uiso   1.00
C1628  C     0.64614   0.12621   0.82048   0.00000  Uiso   1.00
Cu1629 Cu    0.50000   0.21355   0.83333   0.00000  Uiso   1.00
Cu1630 Cu    0.50000   0.11978   0.83333   0.00000  Uiso   1.00
H1631  H     0.40296   0.06742   0.73683   0.00000  Uiso   1.00
H1632  H     0.65586   0.32149   0.78185   0.00000  Uiso   1.00
H1633  H     0.34284   0.26795   0.76085   0.00000  Uiso   1.00
H1634  H     0.62520   0.27231   0.68748   0.00000  Uiso   1.00
H1635  H     0.66047   0.31971   0.69131   0.00000  Uiso   1.00
H1636  H     0.60846   0.32763   0.70933   0.00000  Uiso   1.00
H1637  H     0.60119   0.03494   0.85469   0.00000  Uiso   1.00
H1638  H     0.61474   0.08602   0.88840   0.00000  Uiso   1.00
H1639  H     0.34660   0.02077   0.84830   0.00000  Uiso   1.00
H1640  H     0.35360   0.06672   0.89122   0.00000  Uiso   1.00
H1641  H     0.64074   0.02441   0.94884   0.00000  Uiso   1.00
H1642  H     0.40279   0.12842   0.74292   0.00000  Uiso   1.00
H1643  H     0.35424   0.32764   0.93605   0.00000  Uiso   1.00
H1644  H     0.63957   0.31091   0.90589   0.00000  Uiso   1.00
H1645  H     0.40525   0.26610   0.92925   0.00000  Uiso   1.00
H1646  H     0.41246   0.20715   0.91650   0.00000  Uiso   1.00
H1647  H     0.66325   0.24719   0.94757   0.00000  Uiso   1.00
H1648  H     0.34353   0.18794   0.94213   0.00000  Uiso   1.00
H1649  H     0.40049   0.20003   0.67502   0.00000  Uiso   1.00
H1650  H     0.34953   0.20986   0.69559   0.00000  Uiso   1.00
H1651  H     0.38181   0.25787   0.68206   0.00000  Uiso   1.00
H1652  H     0.46668   0.04922   0.71811   0.00000  Uiso   1.00
H1653  H     0.65939   0.06895   0.71880   0.00000  Uiso   1.00
H1654  H     0.52599   0.28517   0.95014   0.00000  Uiso   1.00
H1655  H     0.55441   0.07345   0.91533   0.00000  Uiso   1.00
H1656  H     0.43599   0.25905   0.76589   0.00000  Uiso   1.00
H1657  H     0.66172   0.13071   0.71771   0.00000  Uiso   1.00
H1658  H     0.38109   0.12468   0.98502   0.00000  Uiso   1.00
H1659  H     0.66450   0.10275   0.96715   0.00000  Uiso   1.00
H1660  H     0.37298   0.06381   0.98418   0.00000  Uiso   1.00
H1661  H     0.58762   0.28759   0.78913   0.00000  Uiso   1.00
H1662  H     0.60394   0.23460   0.76359   0.00000  Uiso   1.00
N1663  N     0.50000   0.28402   0.83333   0.00000  Uiso   1.00
N1664  N     0.50000   0.04931   0.83333   0.00000  Uiso   1.00
O1665  O     0.43988   0.20625   0.83333   0.00000  Uiso   1.00
O1666  O     0.62706   0.25128   0.83562   0.00000  Uiso   1.00
O1667  O     0.62724   0.08429   0.81342   0.00000  Uiso   1.00
O1668  O     0.37358   0.24478   0.86688   0.00000  Uiso   1.00
O1669  O     0.52735   0.04819   0.72792   0.00000  Uiso   1.00
O1670  O     0.57083   0.26475   0.90835   0.00000  Uiso   1.00
O1671  O     0.51920   0.03807   0.95858   0.00000  Uiso   1.00
O1672  O     0.46045   0.29359   0.71223   0.00000  Uiso   1.00
O1673  O     0.56012   0.12709   0.83334   0.00000  Uiso   1.00
O1674  O     0.56012   0.20625   0.83334   0.00000  Uiso   1.00
O1675  O     0.43988   0.12709   0.83333   0.00000  Uiso   1.00
O1676  O     0.50000   0.20625   0.76280   0.00000  Uiso   1.00
O1677  O     0.50000   0.12708   0.90387   0.00000  Uiso   1.00
O1678  O     0.50000   0.20625   0.90387   0.00000  Uiso   1.00
O1679  O     0.50000   0.12708   0.76280   0.00000  Uiso   1.00
O1680  O     0.37398   0.08982   0.79666   0.00000  Uiso   1.00
C1681  C     0.75435   0.16681   0.83275   0.00000  Uiso   1.00
C1682  C     0.68804   0.20658   0.84579   0.00000  Uiso   1.00
C1683  C     0.95738   0.16704   0.82906   0.00000  Uiso   1.00
C1684  C     0.70978   0.16719   0.83150   0.00000  Uiso   1.00
C1685  C     0.82180   0.02387   0.79204   0.00000  Uiso   1.00
C1686  C     0.85011   0.30843   0.87245   0.00000  Uiso   1.00
C1687  C     0.84764   0.02419   0.87382   0.00000  Uiso   1.00
C1688  C     0.81621   0.30869   0.79459   0.00000  Uiso   1.00
C1689  C     0.71731   0.09708   0.74727   0.00000  Uiso   1.00
C1690  C     0.67941   0.09868   0.71188   0.00000  Uiso   1.00
C1691  C     0.69195   0.09742   0.99206   0.00000  Uiso   1.00
C1692  C     0.91250   0.16664   0.83188   0.00000  Uiso   1.00
C1693  C     0.94776   0.26416   0.78687   0.00000  Uiso   1.00
C1694  C     0.98158   0.28974   0.76148   0.00000  Uiso   1.00
C1695  C     0.96791   0.30308   0.70910   0.00000  Uiso   1.00
C1696  C     0.95809   0.06206   0.85945   0.00000  Uiso   1.00
C1697  C     0.99861   0.03982   0.87788   0.00000  Uiso   1.00
C1698  C     0.99120   0.00697   0.91989   0.00000  Uiso   1.00
C1699  C     0.72244   0.23492   0.91547   0.00000  Uiso   1.00
C1700  C     0.68906   0.22254   0.95112   0.00000  Uiso   1.00
C1701  C     0.70636   0.22254   0.67087   0.00000  Uiso   1.00
C1702  C     0.82636   0.04246   0.74262   0.00000  Uiso   1.00
C1703  C     0.83312   0.16669   0.74040   0.00000  Uiso   1.00
C1704  C     0.87174   0.28440   0.91388   0.00000  Uiso   1.00
C1705  C     0.86484   0.04731   0.91816   0.00000  Uiso   1.00
C1706  C     0.79085   0.28500   0.75583   0.00000  Uiso   1.00
C1707  C     0.83334   0.16665   0.92626   0.00000  Uiso   1.00
C1708  C     0.83309   0.16670   0.68855   0.00000  Uiso   1.00
C1709  C     0.83317   0.16666   0.97810   0.00000  Uiso   1.00
C1710  C     0.68803   0.12834   0.81453   0.00000  Uiso   1.00
C1711  C     0.97934   0.20863   0.83540   0.00000  Uiso   1.00
C1712  C     0.97947   0.12621   0.82048   0.00000  Uiso   1.00
Cu1713 Cu    0.83333   0.21355   0.83333   0.00000  Uiso   1.00
Cu1714 Cu    0.83333   0.11978   0.83333   0.00000  Uiso   1.00
H1715  H     0.73630   0.06742   0.73683   0.00000  Uiso   1.00
H1716  H     0.98920   0.32149   0.78185   0.00000  Uiso   1.00
H1717  H     0.67617   0.26795   0.76085   0.00000  Uiso   1.00
H1718  H     0.95853   0.27231   0.68748   0.00000  Uiso   1.00
H1719  H     0.99380   0.31971   0.69131   0.00000  Uiso   1.00
H1720  H     0.94180   0.32763   0.70933   0.00000  Uiso   1.00
H1721  H     0.93453   0.03494   0.85469   0.00000  Uiso   1.00
H1722  H     0.94808   0.08602   0.88840   0.00000  Uiso   1.00
H1723  H     0.67993   0.02077   0.84830   0.00000  Uiso   1.00
H1724  H     0.68693   0.06672   0.89122   0.00000  Uiso   1.00
H1725  H     0.97408   0.02441   0.94884   0.00000  Uiso   1.00
H1726  H     0.73612   0.12842   0.74292   0.00000  Uiso   1.00
H1727  H     0.68758   0.32764   0.93605   0.00000  Uiso   1.00
H1728  H     0.97290   0.31091   0.90589   0.00000  Uiso   1.00
H1729  H     0.73859   0.26610   0.92925   0.00000  Uiso   1.00
H1730  H     0.74579   0.20715   0.91650   0.00000  Uiso   1.00
H1731  H     0.99659   0.24719   0.94757   0.00000  Uiso   1.00
H1732  H     0.67686   0.18794   0.94213   0.00000  Uiso   1.00
H1733  H     0.73382   0.20003   0.67502   0.00000  Uiso   1.00
H1734  H     0.68286   0.20986   0.69559   0.00000  Uiso   1.00
H1735  H     0.71515   0.25787   0.68206   0.00000  Uiso   1.00
H1736  H     0.80001   0.04922   0.71811   0.00000  Uiso   1.00
H1737  H     0.99272   0.06895   0.71880   0.00000  Uiso   1.00
H1738  H     0.85932   0.28517   0.95014   0.00000  Uiso   1.00
H1739  H     0.88775   0.07345   0.91533   0.00000  Uiso   1.00
H1740  H     0.76933   0.25905   0.76589   0.00000  Uiso   1.00
H1741  H     0.99505   0.13071   0.71771   0.00000  Uiso   1.00
H1742  H     0.71442   0.12468   0.98502   0.00000  Uiso   1.00
H1743  H     0.99784   0.10275   0.96715   0.00000  Uiso   1.00
H1744  H     0.70632   0.06381   0.98418   0.00000  Uiso   1.00
H1745  H     0.92096   0.28759   0.78913   0.00000  Uiso   1.00
H1746  H     0.93727   0.23460   0.76359   0.00000  Uiso   1.00
N1747  N     0.83333   0.28402   0.83333   0.00000  Uiso   1.00
N1748  N     0.83333   0.04931   0.83333   0.00000  Uiso   1.00
O1749  O     0.77321   0.20625   0.83333   0.00000  Uiso   1.00
O1750  O     0.96039   0.25128   0.83562   0.00000  Uiso   1.00
O1751  O     0.96058   0.08429   0.81342   0.00000  Uiso   1.00
O1752  O     0.70691   0.24478   0.86688   0.00000  Uiso   1.00
O1753  O     0.86068   0.04819   0.72792   0.00000  Uiso   1.00
O1754  O     0.90416   0.26475   0.90835   0.00000  Uiso   1.00
O1755  O     0.85253   0.03807   0.95858   0.00000  Uiso   1.00
O1756  O     0.79378   0.29359   0.71223   0.00000  Uiso   1.00
O1757  O     0.89345   0.12709   0.83334   0.00000  Uiso   1.00
O1758  O     0.89345   0.20625   0.83334   0.00000  Uiso   1.00
O1759  O     0.77321   0.12709   0.83333   0.00000  Uiso   1.00
O1760  O     0.83333   0.20625   0.76280   0.00000  Uiso   1.00
O1761  O     0.83333   0.12708   0.90387   0.00000  Uiso   1.00
O1762  O     0.83333   0.20625   0.90387   0.00000  Uiso   1.00
O1763  O     0.83333   0.12708   0.76280   0.00000  Uiso   1.00
O1764  O     0.70732   0.08982   0.79666   0.00000  Uiso   1.00
C1765  C     0.08768   0.50015   0.83275   0.00000  Uiso   1.00
C1766  C     0.02137   0.53991   0.84579   0.00000  Uiso   1.00
C1767  C     0.29071   0.50038   0.82906   0.00000  Uiso   1.00
C1768  C     0.04312   0.50052   0.83150   0.00000  Uiso   1.00
C1769  C     0.15514   0.35720   0.79204   0.00000  Uiso   1.00
C1770  C     0.18344   0.64177   0.87245   0.00000  Uiso   1.00
C1771  C     0.18098   0.35752   0.87382   0.00000  Uiso   1.00
C1772  C     0.14954   0.64203   0.79459   0.00000  Uiso   1.00
C1773  C     0.05064   0.43041   0.74727   0.00000  Uiso   1.00
C1774  C     0.01274   0.43201   0.71188   0.00000  Uiso   1.00
C1775  C     0.02529   0.43075   0.99206   0.00000  Uiso   1.00
C1776  C     0.24584   0.49997   0.83188   0.00000  Uiso   1.00
C1777  C     0.28109   0.59749   0.78687   0.00000  Uiso   1.00
C1778  C     0.31492   0.62307   0.76148   0.00000  Uiso   1.00
C1779  C     0.30124   0.63641   0.70910   0.00000  Uiso   1.00
C1780  C     0.29142   0.39540   0.85945   0.00000  Uiso   1.00
C1781  C     0.33195   0.37316   0.87788   0.00000  Uiso   1.00
C1782  C     0.32453   0.34030   0.91989   0.00000  Uiso   1.00
C1783  C     0.05578   0.56825   0.91547   0.00000  Uiso   1.00
C1784  C     0.02240   0.55588   0.95112   0.00000  Uiso   1.00
C1785  C     0.03969   0.55588   0.67087   0.00000  Uiso   1.00
C1786  C     0.15969   0.37580   0.74262   0.00000  Uiso   1.00
C1787  C     0.16646   0.50002   0.74040   0.00000  Uiso   1.00
C1788  C     0.20507   0.61774   0.91388   0.00000  Uiso   1.00
C1789  C     0.19817   0.38064   0.91816   0.00000  Uiso   1.00
C1790  C     0.12418   0.61833   0.75583   0.00000  Uiso   1.00
C1791  C     0.16668   0.49999   0.92626   0.00000  Uiso   1.00
C1792  C     0.16642   0.50003   0.68855   0.00000  Uiso   1.00
C1793  C     0.16650   0.49999   0.97810   0.00000  Uiso   1.00
C1794  C     0.02137   0.46167   0.81453   0.00000  Uiso   1.00
C1795  C     0.31268   0.54196   0.83540   0.00000  Uiso   1.00
C1796  C     0.31281   0.45954   0.82048   0.00000  Uiso   1.00
Cu1797 Cu    0.16667   0.54689   0.83333   0.00000  Uiso   1.00
Cu1798 Cu    0.16667   0.45311   0.83333   0.00000  Uiso   1.00
H1799  H     0.06963   0.40076   0.73683   0.00000  Uiso   1.00
H1800  H     0.32253   0.65482   0.78185   0.00000  Uiso   1.00
H1801  H     0.00951   0.60128   0.76085   0.00000  Uiso   1.00
H1802  H     0.29187   0.60564   0.68748   0.00000  Uiso   1.00
H1803  H     0.32714   0.65304   0.69131   0.00000  Uiso   1.00
H1804  H     0.27513   0.66096   0.70933   0.00000  Uiso   1.00
H1805  H     0.26786   0.36828   0.85469   0.00000  Uiso   1.00
H1806  H     0.28141   0.41935   0.88840   0.00000  Uiso   1.00
H1807  H     0.01326   0.35411   0.84830   0.00000  Uiso   1.00
H1808  H     0.02027   0.40005   0.89122   0.00000  Uiso   1.00
H1809  H     0.30741   0.35774   0.94884   0.00000  Uiso   1.00
H1810  H     0.06945   0.46175   0.74292   0.00000  Uiso   1.00
H1811  H     0.02091   0.66097   0.93605   0.00000  Uiso   1.00
H1812  H     0.30623   0.64424   0.90589   0.00000  Uiso   1.00
H1813  H     0.07192   0.59944   0.92925   0.00000  Uiso   1.00
H1814  H     0.07912   0.54048   0.91650   0.00000  Uiso   1.00
H1815  H     0.32992   0.58052   0.94757   0.00000  Uiso   1.00
H1816  H     0.01019   0.52128   0.94213   0.00000  Uiso   1.00
H1817  H     0.06716   0.53336   0.67502   0.00000  Uiso   1.00
H1818  H     0.01619   0.54319   0.69559   0.00000  Uiso   1.00
H1819  H     0.04848   0.59120   0.68206   0.00000  Uiso   1.00
H1820  H     0.13334   0.38255   0.71811   0.00000  Uiso   1.00
H1821  H     0.32606   0.40228   0.71880   0.00000  Uiso   1.00
H1822  H     0.19266   0.61850   0.95014   0.00000  Uiso   1.00
H1823  H     0.22108   0.40678   0.91533   0.00000  Uiso   1.00
H1824  H     0.10266   0.59238   0.76589   0.00000  Uiso   1.00
H1825  H     0.32839   0.46404   0.71771   0.00000  Uiso   1.00
H1826  H     0.04775   0.45802   0.98502   0.00000  Uiso   1.00
H1827  H     0.33117   0.43609   0.96715   0.00000  Uiso   1.00
H1828  H     0.03965   0.39714   0.98418   0.00000  Uiso   1.00
H1829  H     0.25429   0.62092   0.78913   0.00000  Uiso   1.00
H1830  H     0.27061   0.56793   0.76359   0.00000  Uiso   1.00
N1831  N     0.16667   0.61736   0.83333   0.00000  Uiso   1.00
N1832  N     0.16667   0.38264   0.83333   0.00000  Uiso   1.00
O1833  O     0.10655   0.53958   0.83333   0.00000  Uiso   1.00
O1834  O     0.29373   0.58462   0.83562   0.00000  Uiso   1.00
O1835  O     0.29391   0.41762   0.81342   0.00000  Uiso   1.00
O1836  O     0.04024   0.57811   0.86688   0.00000  Uiso   1.00
O1837  O     0.19401   0.38153   0.72792   0.00000  Uiso   1.00
O1838  O     0.23750   0.59809   0.90835   0.00000  Uiso   1.00
O1839  O     0.18587   0.37140   0.95858   0.00000  Uiso   1.00
O1840  O     0.12711   0.62692   0.71223   0.00000  Uiso   1.00
O1841  O     0.22679   0.46042   0.83334   0.00000  Uiso   1.00
O1842  O     0.22679   0.53958   0.83334   0.00000  Uiso   1.00
O1843  O     0.10655   0.46042   0.83333   0.00000  Uiso   1.00
O1844  O     0.16667   0.53959   0.76280   0.00000  Uiso   1.00
O1845  O     0.16667   0.46041   0.90387   0.00000  Uiso   1.00
O1846  O     0.16667   0.53959   0.90387   0.00000  Uiso   1.00
O1847  O     0.16667   0.46041   0.76280   0.00000  Uiso   1.00
O1848  O     0.04065   0.42315   0.79666   0.00000  Uiso   1.00
C1849  C     0.42101   0.50015   0.83275   0.00000  Uiso   1.00
C1850  C     0.35471   0.53991   0.84579   0.00000  Uiso   1.00
C1851  C     0.62404   0.50038   0.82906   0.00000  Uiso   1.00
C1852  C     0.37645   0.50052   0.83150   0.00000  Uiso   1.00
C1853  C     0.48847   0.35720   0.79204   0.00000  Uiso   1.00
C1854  C     0.51678   0.64177   0.87245   0.00000  Uiso   1.00
C1855  C     0.51431   0.35752   0.87382   0.00000  Uiso   1.00
C1856  C     0.48288   0.64203   0.79459   0.00000  Uiso   1.00
C1857  C     0.38398   0.43041   0.74727   0.00000  Uiso   1.00
C1858  C     0.34608   0.43201   0.71188   0.00000  Uiso   1.00
C1859  C     0.35862   0.43075   0.99206   0.00000  Uiso   1.00
C1860  C     0.57917   0.49997   0.83188   0.00000  Uiso   1.00
C1861  C     0.61442   0.59749   0.78687   0.00000  Uiso   1.00
C1862  C     0.64825   0.62307   0.76148   0.00000  Uiso   1.00
C1863  C     0.63458   0.63641   0.70910   0.00000  Uiso   1.00
C1864  C     0.62476   0.39540   0.85945   0.00000  Uiso   1.00
C1865  C     0.66528   0.37316   0.87788   0.00000  Uiso   1.00
C1866  C     0.65787   0.34030   0.91989   0.00000  Uiso   1.00
C1867  C     0.38911   0.56825   0.91547   0.00000  Uiso   1.00
C1868  C     0.35573   0.55588   0.95112   0.00000  Uiso   1.00
C1869  C     0.37303   0.55588   0.67087   0.00000  Uiso   1.00
C1870  C     0.49303   0.37580   0.74262   0.00000  Uiso   1.00
C1871  C     0.49979   0.50002   0.74040   0.00000  Uiso   1.00
C1872  C     0.53840   0.61774   0.91388   0.00000  Uiso   1.00
C1873  C     0.53151   0.38064   0.91816   0.00000  Uiso   1.00
C1874  C     0.45751   0.61833   0.75583   0.00000  Uiso   1.00
C1875  C     0.50001   0.49999   0.92626   0.00000  Uiso   1.00
C1876  C     0.49975   0.50003   0.68855   0.00000  Uiso   1.00
C1877  C     0.49983   0.49999   0.97810   0.00000  Uiso   1.00
C1878  C     0.35470   0.46167   0.81453   0.00000  Uiso   1.00
C1879  C     0.64601   0.54196   0.83540   0.00000  Uiso   1.00
C1880  C     0.64614   0.45954   0.82048   0.00000  Uiso   1.00
Cu1881 Cu    0.50000   0.54689   0.83333   0.00000  Uiso   1.00
Cu1882 Cu    0.50000   0.45311   0.83333   0.00000  Uiso   1.00
H1883  H     0.40296   0.40076   0.73683   0.00000  Uiso   1.00
H1884  H     0.65586   0.65482   0.78185   0.00000  Uiso   1.00
H1885  H     0.34284   0.60128   0.76085   0.00000  Uiso   1.00
H1886  H     0.62520   0.60564   0.68748   0.00000  Uiso   1.00
H1887  H     0.66047   0.65304   0.69131   0.00000  Uiso   1.00
H1888  H     0.60846   0.66096   0.70933   0.00000  Uiso   1.00
H1889  H     0.60119   0.36828   0.85469   0.00000  Uiso   1.00
H1890  H     0.61474   0.41935   0.88840   0.00000  Uiso   1.00
H1891  H     0.34660   0.35411   0.84830   0.00000  Uiso   1.00
H1892  H     0.35360   0.40005   0.89122   0.00000  Uiso   1.00
H1893  H     0.64074   0.35774   0.94884   0.00000  Uiso   1.00
H1894  H     0.40279   0.46175   0.74292   0.00000  Uiso   1.00
H1895  H     0.35424   0.66097   0.93605   0.00000  Uiso   1.00
H1896  H     0.63957   0.64424   0.90589   0.00000  Uiso   1.00
H1897  H     0.40525   0.59944   0.92925   0.00000  Uiso   1.00
H1898  H     0.41246   0.54048   0.91650   0.00000  Uiso   1.00
H1899  H     0.66325   0.58052   0.94757   0.00000  Uiso   1.00
H1900  H     0.34353   0.52128   0.94213   0.00000  Uiso   1.00
H1901  H     0.40049   0.53336   0.67502   0.00000  Uiso   1.00
H1902  H     0.34953   0.54319   0.69559   0.00000  Uiso   1.00
H1903  H     0.38181   0.59120   0.68206   0.00000  Uiso   1.00
H1904  H     0.46668   0.38255   0.71811   0.00000  Uiso   1.00
H1905  H     0.65939   0.40228   0.71880   0.00000  Uiso   1.00
H1906  H     0.52599   0.61850   0.95014   0.00000  Uiso   1.00
H1907  H     0.55441   0.40678   0.91533   0.00000  Uiso   1.00
H1908  H     0.43599   0.59238   0.76589   0.00000  Uiso   1.00
H1909  H     0.66172   0.46404   0.71771   0.00000  Uiso   1.00
H1910  H     0.38109   0.45802   0.98502   0.00000  Uiso   1.00
H1911  H     0.66450   0.43609   0.96715   0.00000  Uiso   1.00
H1912  H     0.37298   0.39714   0.98418   0.00000  Uiso   1.00
H1913  H     0.58762   0.62092   0.78913   0.00000  Uiso   1.00
H1914  H     0.60394   0.56793   0.76359   0.00000  Uiso   1.00
N1915  N     0.50000   0.61736   0.83333   0.00000  Uiso   1.00
N1916  N     0.50000   0.38264   0.83333   0.00000  Uiso   1.00
O1917  O     0.43988   0.53958   0.83333   0.00000  Uiso   1.00
O1918  O     0.62706   0.58462   0.83562   0.00000  Uiso   1.00
O1919  O     0.62724   0.41762   0.81342   0.00000  Uiso   1.00
O1920  O     0.37358   0.57811   0.86688   0.00000  Uiso   1.00
O1921  O     0.52735   0.38153   0.72792   0.00000  Uiso   1.00
O1922  O     0.57083   0.59809   0.90835   0.00000  Uiso   1.00
O1923  O     0.51920   0.37140   0.95858   0.00000  Uiso   1.00
O1924  O     0.46045   0.62692   0.71223   0.00000  Uiso   1.00
O1925  O     0.56012   0.46042   0.83334   0.00000  Uiso   1.00
O1926  O     0.56012   0.53958   0.83334   0.00000  Uiso   1.00
O1927  O     0.43988   0.46042   0.83333   0.00000  Uiso   1.00
O1928  O     0.50000   0.53959   0.76280   0.00000  Uiso   1.00
O1929  O     0.50000   0.46041   0.90387   0.00000  Uiso   1.00
O1930  O     0.50000   0.53959   0.90387   0.00000  Uiso   1.00
O1931  O     0.50000   0.46041   0.76280   0.00000  Uiso   1.00
O1932  O     0.37398   0.42315   0.79666   0.00000  Uiso   1.00
C1933  C     0.75435   0.50015   0.83275   0.00000  Uiso   1.00
C1934  C     0.68804   0.53991   0.84579   0.00000  Uiso   1.00
C1935  C     0.95738   0.50038   0.82906   0.00000  Uiso   1.00
C1936  C     0.70978   0.50052   0.83150   0.00000  Uiso   1.00
C1937  C     0.82180   0.35720   0.79204   0.00000  Uiso   1.00
C1938  C     0.85011   0.64177   0.87245   0.00000  Uiso   1.00
C1939  C     0.84764   0.35752   0.87382   0.00000  Uiso   1.00
C1940  C     0.81621   0.64203   0.79459   0.00000  Uiso   1.00
C1941  C     0.71731   0.43041   0.74727   0.00000  Uiso   1.00
C1942  C     0.67941   0.43201   0.71188   0.00000  Uiso   1.00
C1943  C     0.69195   0.43075   0.99206   0.00000  Uiso   1.00
C1944  C     0.91250   0.49997   0.83188   0.00000  Uiso   1.00
C1945  C     0.94776   0.59749   0.78687   0.00000  Uiso   1.00
C1946  C     0.98158   0.62307   0.76148   0.00000  Uiso   1.00
C1947  C     0.96791   0.63641   0.70910   0.00000  Uiso   1.00
C1948  C     0.95809   0.39540   0.85945   0.00000  Uiso   1.00
C1949  C     0.99861   0.37316   0.87788   0.00000  Uiso   1.00
C1950  C     0.99120   0.34030   0.91989   0.00000  Uiso   1.00
C1951  C     0.72244   0.56825   0.91547   0.00000  Uiso   1.00
C1952  C     0.68906   0.55588   0.95112   0.00000  Uiso   1.00
C1953  C     0.70636   0.55588   0.67087   0.00000  Uiso   1.00
C1954  C     0.82636   0.37580   0.74262   0.00000  Uiso   1.00
C1955  C     0.83312   0.50002   0.74040   0.00000  Uiso   1.00
C1956  C     0.87174   0.61774   0.91388   0.00000  Uiso   1.00
C1957  C     0.86484   0.38064   0.91816   0.00000  Uiso   1.00
C1958  C     0.79085   0.61833   0.75583   0.00000  Uiso   1.00
C1959  C     0.83334   0.49999   0.92626   0.00000  Uiso   1.00
C1960  C     0.83309   0.50003   0.68855   0.00000  Uiso   1.00
C1961  C     0.83317   0.49999   0.97810   0.00000  Uiso   1.00
C1962  C     0.68803   0.46167   0.81453   0.00000  Uiso   1.00
C1963  C     0.97934   0.54196   0.83540   0.00000  Uiso   1.00
C1964  C     0.97947   0.45954   0.82048   0.00000  Uiso   1.00
Cu1965 Cu    0.83333   0.54689   0.83333   0.00000  Uiso   1.00
Cu1966 Cu    0.83333   0.45311   0.83333   0.00000  Uiso   1.00
H1967  H     0.73630   0.40076   0.73683   0.00000  Uiso   1.00
H1968  H     0.98920   0.65482   0.78185   0.00000  Uiso   1.00
H1969  H     0.67617   0.60128   0.76085   0.00000  Uiso   1.00
H1970  H     0.95853   0.60564   0.68748   0.00000  Uiso   1.00
H1971  H     0.99380   0.65304   0.69131   0.00000  Uiso   1.00
H1972  H     0.94180   0.66096   0.70933   0.00000  Uiso   1.00
H1973  H     0.93453   0.36828   0.85469   0.00000  Uiso   1.00
H1974  H     0.94808   0.41935   0.88840   0.00000  Uiso   1.00
H1975  H     0.67993   0.35411   0.84830   0.00000  Uiso   1.00
H1976  H     0.68693   0.40005   0.89122   0.00000  Uiso   1.00
H1977  H     0.97408   0.35774   0.94884   0.00000  Uiso   1.00
H1978  H     0.73612   0.46175   0.74292   0.00000  Uiso   1.00
H1979  H     0.68758   0.66097   0.93605   0.00000  Uiso   1.00
H1980  H     0.97290   0.64424   0.90589   0.00000  Uiso   1.00
H1981  H     0.73859   0.59944   0.92925   0.00000  Uiso   1.00
H1982  H     0.74579   0.54048   0.91650   0.00000  Uiso   1.00
H1983  H     0.99659   0.58052   0.94757   0.00000  Uiso   1.00
H1984  H     0.67686   0.52128   0.94213   0.00000  Uiso   1.00
H1985  H     0.73382   0.53336   0.67502   0.00000  Uiso   1.00
H1986  H     0.68286   0.54319   0.69559   0.00000  Uiso   1.00
H1987  H     0.71515   0.59120   0.68206   0.00000  Uiso   1.00
H1988  H     0.80001   0.38255   0.71811   0.00000  Uiso   1.00
H1989  H     0.99272   0.40228   0.71880   0.00000  Uiso   1.00
H1990  H     0.85932   0.61850   0.95014   0.00000  Uiso   1.00
H1991  H     0.88775   0.40678   0.91533   0.00000  Uiso   1.00
H1992  H     0.76933   0.59238   0.76589   0.00000  Uiso   1.00
H1993  H     0.99505   0.46404   0.71771   0.00000  Uiso   1.00
H1994  H     0.71442   0.45802   0.98502   0.00000  Uiso   1.00
H1995  H     0.99784   0.43609   0.96715   0.00000  Uiso   1.00
H1996  H     0.70632   0.39714   0.98418   0.00000  Uiso   1.00
H1997  H     0.92096   0.62092   0.78913   0.00000  Uiso   1.00
H1998  H     0.93727   0.56793   0.76359   0.00000  Uiso   1.00
N1999  N     0.83333   0.61736   0.83333   0.00000  Uiso   1.00
N2000  N     0.83333   0.38264   0.83333   0.00000  Uiso   1.00
O2001  O     0.77321   0.53958   0.83333   0.00000  Uiso   1.00
O2002  O     0.96039   0.58462   0.83562   0.00000  Uiso   1.00
O2003  O     0.96058   0.41762   0.81342   0.00000  Uiso   1.00
O2004  O     0.70691   0.57811   0.86688   0.00000  Uiso   1.00
O2005  O     0.86068   0.38153   0.72792   0.00000  Uiso   1.00
O2006  O     0.90416   0.59809   0.90835   0.00000  Uiso   1.00
O2007  O     0.85253   0.37140   0.95858   0.00000  Uiso   1.00
O2008  O     0.79378   0.62692   0.71223   0.00000  Uiso   1.00
O2009  O     0.89345   0.46042   0.83334   0.00000  Uiso   1.00
O2010  O     0.89345   0.53958   0.83334   0.00000  Uiso   1.00
O2011  O     0.77321   0.46042   0.83333   0.00000  Uiso   1.00
O2012  O     0.83333   0.53959   0.76280   0.00000  Uiso   1.00
O2013  O     0.83333   0.46041   0.90387   0.00000  Uiso   1.00
O2014  O     0.83333   0.53959   0.90387   0.00000  Uiso   1.00
O2015  O     0.83333   0.46041   0.76280   0.00000  Uiso   1.00
O2016  O     0.70732   0.42315   0.79666   0.00000  Uiso   1.00
C2017  C     0.08768   0.83348   0.83275   0.00000  Uiso   1.00
C2018  C     0.02137   0.87325   0.84579   0.00000  Uiso   1.00
C2019  C     0.29071   0.83371   0.82906   0.00000  Uiso   1.00
C2020  C     0.04312   0.83385   0.83150   0.00000  Uiso   1.00
C2021  C     0.15514   0.69054   0.79204   0.00000  Uiso   1.00
C2022  C     0.18344   0.97510   0.87245   0.00000  Uiso   1.00
C2023  C     0.18098   0.69085   0.87382   0.00000  Uiso   1.00
C2024  C     0.14954   0.97536   0.79459   0.00000  Uiso   1.00
C2025  C     0.05064   0.76374   0.74727   0.00000  Uiso   1.00
C2026  C     0.01274   0.76534   0.71188   0.00000  Uiso   1.00
C2027  C     0.02529   0.76409   0.99206   0.00000  Uiso   1.00
C2028  C     0.24584   0.83331   0.83188   0.00000  Uiso   1.00
C2029  C     0.28109   0.93083   0.78687   0.00000  Uiso   1.00
C2030  C     0.31492   0.95640   0.76148   0.00000  Uiso   1.00
C2031  C     0.30124   0.96974   0.70910   0.00000  Uiso   1.00
C2032  C     0.29142   0.72873   0.85945   0.00000  Uiso   1.00
C2033  C     0.33195   0.70649   0.87788   0.00000  Uiso   1.00
C2034  C     0.32453   0.67364   0.91989   0.00000  Uiso   1.00
C2035  C     0.05578   0.90158   0.91547   0.00000  Uiso   1.00
C2036  C     0.02240   0.88921   0.95112   0.00000  Uiso   1.00
C2037  C     0.03969   0.88921   0.67087   0.00000  Uiso   1.00
C2038  C     0.15969   0.70913   0.74262   0.00000  Uiso   1.00
C2039  C     0.16646   0.83335   0.74040   0.00000  Uiso   1.00
C2040  C     0.20507   0.95107   0.91388   0.00000  Uiso   1.00
C2041  C     0.19817   0.71397   0.91816   0.00000  Uiso   1.00
C2042  C     0.12418   0.95167   0.75583   0.00000  Uiso   1.00
C2043  C     0.16668   0.83332   0.92626   0.00000  Uiso   1.00
C2044  C     0.16642   0.83337   0.68855   0.00000  Uiso   1.00
C2045  C     0.16650   0.83333   0.97810   0.00000  Uiso   1.00
C2046  C     0.02137   0.79501   0.81453   0.00000  Uiso   1.00
C2047  C     0.31268   0.87529   0.83540   0.00000  Uiso   1.00
C2048  C     0.31281   0.79288   0.82048   0.00000  Uiso   1.00
Cu2049 Cu    0.16667   0.88022   0.83333   0.00000  Uiso   1.00
Cu2050 Cu    0.16667   0.78645   0.83333   0.00000  Uiso   1.00
H2051  H     0.06963   0.73409   0.73683   0.00000  Uiso   1.00
H2052  H     0.32253   0.98815   0.78185   0.00000  Uiso   1.00
H2053  H     0.00951   0.93461   0.76085   0.00000  Uiso   1.00
H2054  H     0.29187   0.93898   0.68748   0.00000  Uiso   1.00
H2055  H     0.32714   0.98637   0.69131   0.00000  Uiso   1.00
H2056  H     0.27513   0.99430   0.70933   0.00000  Uiso   1.00
H2057  H     0.26786   0.70161   0.85469   0.00000  Uiso   1.00
H2058  H     0.28141   0.75268   0.88840   0.00000  Uiso   1.00
H2059  H     0.01326   0.68744   0.84830   0.00000  Uiso   1.00
H2060  H     0.02027   0.73338   0.89122   0.00000  Uiso   1.00
H2061  H     0.30741   0.69107   0.94884   0.00000  Uiso   1.00
H2062  H     0.06945   0.79508   0.74292   0.00000  Uiso   1.00
H2063  H     0.02091   0.99431   0.93605   0.00000  Uiso   1.00
H2064  H     0.30623   0.97757   0.90589   0.00000  Uiso   1.00
H2065  H     0.07192   0.93277   0.92925   0.00000  Uiso   1.00
H2066  H     0.07912   0.87382   0.91650   0.00000  Uiso   1.00
H2067  H     0.32992   0.91386   0.94757   0.00000  Uiso   1.00
H2068  H     0.01019   0.85461   0.94213   0.00000  Uiso   1.00
H2069  H     0.06716   0.86670   0.67502   0.00000  Uiso   1.00
H2070  H     0.01619   0.87652   0.69559   0.00000  Uiso   1.00
H2071  H     0.04848   0.92454   0.68206   0.00000  Uiso   1.00
H2072  H     0.13334   0.71589   0.71811   0.00000  Uiso   1.00
H2073  H     0.32606   0.73561   0.71880   0.00000  Uiso   1.00
H2074  H     0.19266   0.95184   0.95014   0.00000  Uiso   1.00
H2075  H     0.22108   0.74011   0.91533   0.00000  Uiso   1.00
H2076  H     0.10266   0.92572   0.76589   0.00000  Uiso   1.00
H2077  H     0.32839   0.79737   0.71771   0.00000  Uiso   1.00
H2078  H     0.04775   0.79135   0.98502   0.00000  Uiso   1.00
H2079  H     0.33117   0.76942   0.96715   0.00000  Uiso   1.00
H2080  H     0.03965   0.73048   0.98418   0.00000  Uiso   1.00
H2081  H     0.25429   0.95425   0.78913   0.00000  Uiso   1.00
H2082  H     0.27061   0.90126   0.76359   0.00000  Uiso   1.00
N2083  N     0.16667   0.95069   0.83333   0.00000  Uiso   1.00
N2084  N     0.16667   0.71598   0.83333   0.00000  Uiso   1.00
O2085  O     0.10655   0.87291   0.83333   0.00000  Uiso   1.00
O2086  O     0.29373   0.91795   0.83562   0.00000  Uiso   1.00
O2087  O     0.29391   0.75095   0.81342   0.00000  Uiso   1.00
O2088  O     0.04024   0.91144   0.86688   0.00000  Uiso   1.00
O2089  O     0.19401   0.71486   0.72792   0.00000  Uiso   1.00
O2090  O     0.23750   0.93142   0.90835   0.00000  Uiso   1.00
O2091  O     0.18587   0.70474   0.95858   0.00000  Uiso   1.00
O2092  O     0.12711   0.96025   0.71223   0.00000  Uiso   1.00
O2093  O     0.22679   0.79375   0.83334   0.00000  Uiso   1.00
O2094  O     0.22679   0.87291   0.83334   0.00000  Uiso   1.00
O2095  O     0.10655   0.79375   0.83333   0.00000  Uiso   1.00
O2096  O     0.16667   0.87292   0.76280   0.00000  Uiso   1.00
O2097  O     0.16667   0.79375   0.90387   0.00000  Uiso   1.00
O2098  O     0.16667   0.87292   0.90387   0.00000  Uiso   1.00
O2099  O     0.16667   0.79375   0.76280   0.00000  Uiso   1.00
O2100  O     0.04065   0.75649   0.79666   0.00000  Uiso   1.00
C2101  C     0.42101   0.83348   0.83275   0.00000  Uiso   1.00
C2102  C     0.35471   0.87325   0.84579   0.00000  Uiso   1.00
C2103  C     0.62404   0.83371   0.82906   0.00000  Uiso   1.00
C2104  C     0.37645   0.83385   0.83150   0.00000  Uiso   1.00
C2105  C     0.48847   0.69054   0.79204   0.00000  Uiso   1.00
C2106  C     0.51678   0.97510   0.87245   0.00000  Uiso   1.00
C2107  C     0.51431   0.69085   0.87382   0.00000  Uiso   1.00
C2108  C     0.48288   0.97536   0.79459   0.00000  Uiso   1.00
C2109  C     0.38398   0.76374   0.74727   0.00000  Uiso   1.00
C2110  C     0.34608   0.76534   0.71188   0.00000  Uiso   1.00
C2111  C     0.35862   0.76409   0.99206   0.00000  Uiso   1.00
C2112  C     0.57917   0.83331   0.83188   0.00000  Uiso   1.00
C2113  C     0.61442   0.93083   0.78687   0.00000  Uiso   1.00
C2114  C     0.64825   0.95640   0.76148   0.00000  Uiso   1.00
C2115  C     0.63458   0.96974   0.70910   0.00000  Uiso   1.00
C2116  C     0.62476   0.72873   0.85945   0.00000  Uiso   1.00
C2117  C     0.66528   0.70649   0.87788   0.00000  Uiso   1.00
C2118  C     0.65787   0.67364   0.91989   0.00000  Uiso   1.00
C2119  C     0.38911   0.90158   0.91547   0.00000  Uiso   1.00
C2120  C     0.35573   0.88921   0.95112   0.00000  Uiso   1.00
C2121  C     0.37303   0.88921   0.67087   0.00000  Uiso   1.00
C2122  C     0.49303   0.70913   0.74262   0.00000  Uiso   1.00
C2123  C     0.49979   0.83335   0.74040   0.00000  Uiso   1.00
C2124  C     0.53840   0.95107   0.91388   0.00000  Uiso   1.00
C2125  C     0.53151   0.71397   0.91816   0.00000  Uiso   1.00
C2126  C     0.45751   0.95167   0.75583   0.00000  Uiso   1.00
C2127  C     0.50001   0.83332   0.92626   0.00000  Uiso   1.00
C2128  C     0.49975   0.83337   0.68855   0.00000  Uiso   1.00
C2129  C     0.49983   0.83333   0.97810   0.00000  Uiso   1.00
C2130  C     0.35470   0.79501   0.81453   0.00000  Uiso   1.00
C2131  C     0.64601   0.87529   0.83540   0.00000  Uiso   1.00
C2132  C     0.64614   0.79288   0.82048   0.00000  Uiso   1.00
Cu2133 Cu    0.50000   0.88022   0.83333   0.00000  Uiso   1.00
Cu2134 Cu    0.50000   0.78645   0.83333   0.00000  Uiso   1.00
H2135  H     0.40296   0.73409   0.73683   0.00000  Uiso   1.00
H2136  H     0.65586   0.98815   0.78185   0.00000  Uiso   1.00
H2137  H     0.34284   0.93461   0.76085   0.00000  Uiso   1.00
H2138  H     0.62520   0.93898   0.68748   0.00000  Uiso   1.00
H2139  H     0.66047   0.98637   0.69131   0.00000  Uiso   1.00
H2140  H     0.60846   0.99430   0.70933   0.00000  Uiso   1.00
H2141  H     0.60119   0.70161   0.85469   0.00000  Uiso   1.00
H2142  H     0.61474   0.75268   0.88840   0.00000  Uiso   1.00
H2143  H     0.34660   0.68744   0.84830   0.00000  Uiso   1.00
H2144  H     0.35360   0.73338   0.89122   0.00000  Uiso   1.00
H2145  H     0.64074   0.69107   0.94884   0.00000  Uiso   1.00
H2146  H     0.40279   0.79508   0.74292   0.00000  Uiso   1.00
H2147  H     0.35424   0.99431   0.93605   0.00000  Uiso   1.00
H2148  H     0.63957   0.97757   0.90589   0.00000  Uiso   1.00
H2149  H     0.40525   0.93277   0.92925   0.00000  Uiso   1.00
H2150  H     0.41246   0.87382   0.91650   0.00000  Uiso   1.00
H2151  H     0.66325   0.91386   0.94757   0.00000  Uiso   1.00
H2152  H     0.34353   0.85461   0.94213   0.00000  Uiso   1.00
H2153  H     0.40049   0.86670   0.67502   0.00000  Uiso   1.00
H2154  H     0.34953   0.87652   0.69559   0.00000  Uiso   1.00
H2155  H     0.38181   0.92454   0.68206   0.00000  Uiso   1.00
H2156  H     0.46668   0.71589   0.71811   0.00000  Uiso   1.00
H2157  H     0.65939   0.73561   0.71880   0.00000  Uiso   1.00
H2158  H     0.52599   0.95184   0.95014   0.00000  Uiso   1.00
H2159  H     0.55441   0.74011   0.91533   0.00000  Uiso   1.00
H2160  H     0.43599   0.92572   0.76589   0.00000  Uiso   1.00
H2161  H     0.66172   0.79737   0.71771   0.00000  Uiso   1.00
H2162  H     0.38109   0.79135   0.98502   0.00000  Uiso   1.00
H2163  H     0.66450   0.76942   0.96715   0.00000  Uiso   1.00
H2164  H     0.37298   0.73048   0.98418   0.00000  Uiso   1.00
H2165  H     0.58762   0.95425   0.78913   0.00000  Uiso   1.00
H2166  H     0.60394   0.90126   0.76359   0.00000  Uiso   1.00
N2167  N     0.50000   0.95069   0.83333   0.00000  Uiso   1.00
N2168  N     0.50000   0.71598   0.83333   0.00000  Uiso   1.00
O2169  O     0.43988   0.87291   0.83333   0.00000  Uiso   1.00
O2170  O     0.62706   0.91795   0.83562   0.00000  Uiso   1.00
O2171  O     0.62724   0.75095   0.81342   0.00000  Uiso   1.00
O2172  O     0.37358   0.91144   0.86688   0.00000  Uiso   1.00
O2173  O     0.52735   0.71486   0.72792   0.00000  Uiso   1.00
O2174  O     0.57083   0.93142   0.90835   0.00000  Uiso   1.00
O2175  O     0.51920   0.70474   0.95858   0.00000  Uiso   1.00
O2176  O     0.46045   0.96025   0.71223   0.00000  Uiso   1.00
O2177  O     0.56012   0.79375   0.83334   0.00000  Uiso   1.00
O2178  O     0.56012   0.87291   0.83334   0.00000  Uiso   1.00
O2179  O     0.43988   0.79375   0.83333   0.00000  Uiso   1.00
O2180  O     0.50000   0.87292   0.76280   0.00000  Uiso   1.00
O2181  O     0.50000   0.79375   0.90387   0.00000  Uiso   1.00
O2182  O     0.50000   0.87292   0.90387   0.00000  Uiso   1.00
O2183  O     0.50000   0.79375   0.76280   0.00000  Uiso   1.00
O2184  O     0.37398   0.75649   0.79666   0.00000  Uiso   1.00
C2185  C     0.75435   0.83348   0.83275   0.00000  Uiso   1.00
C2186  C     0.68804   0.87325   0.84579   0.00000  Uiso   1.00
C2187  C     0.95738   0.83371   0.82906   0.00000  Uiso   1.00
C2188  C     0.70978   0.83385   0.83150   0.00000  Uiso   1.00
C2189  C     0.82180   0.69054   0.79204   0.00000  Uiso   1.00
C2190  C     0.85011   0.97510   0.87245   0.00000  Uiso   1.00
C2191  C     0.84764   0.69085   0.87382   0.00000  Uiso   1.00
C2192  C     0.81621   0.97536   0.79459   0.00000  Uiso   1.00
C2193  C     0.71731   0.76374   0.74727   0.00000  Uiso   1.00
C2194  C     0.67941   0.76534   0.71188   0.00000  Uiso   1.00
C2195  C     0.69195   0.76409   0.99206   0.00000  Uiso   1.00
C2196  C     0.91250   0.83331   0.83188   0.00000  Uiso   1.00
C2197  C     0.94776   0.93083   0.78687   0.00000  Uiso   1.00
C2198  C     0.98158   0.95640   0.76148   0.00000  Uiso   1.00
C2199  C     0.96791   0.96974   0.70910   0.00000  Uiso   1.00
C2200  C     0.95809   0.72873   0.85945   0.00000  Uiso   1.00
C2201  C     0.99861   0.70649   0.87788   0.00000  Uiso   1.00
C2202  C     0.99120   0.67364   0.91989   0.00000  Uiso   1.00
C2203  C     0.72244   0.90158   0.91547   0.00000  Uiso   1.00
C2204  C     0.68906   0.88921   0.95112   0.00000  Uiso   1.00
C2205  C     0.70636   0.88921   0.67087   0.00000  Uiso   1.00
C2206  C     0.82636   0.70913   0.74262   0.00000  Uiso   1.00
C2207  C     0.83312   0.83335   0.74040   0.00000  Uiso   1.00
C2208  C     0.87174   0.95107   0.91388   0.00000  Uiso   1.00
C2209  C     0.86484   0.71397   0.91816   0.00000  Uiso   1.00
C2210  C     0.79085   0.95167   0.75583   0.00000  Uiso   1.00
C2211  C     0.83334   0.83332   0.92626   0.00000  Uiso   1.00
C2212  C     0.83309   0.83337   0.68855   0.00000  Uiso   1.00
C2213  C     0.83317   0.83333   0.97810   0.00000  Uiso   1.00
C2214  C     0.68803   0.79501   0.81453   0.00000  Uiso   1.00
C2215  C     0.97934   0.87529   0.83540   0.00000  Uiso   1.00
C2216  C     0.97947   0.79288   0.82048   0.00000  Uiso   1.00
Cu2217 Cu    0.83333   0.88022   0.83333   0.00000  Uiso   1.00
Cu2218 Cu    0.83333   0.78645   0.83333   0.00000  Uiso   1.00
H2219  H     0.73630   0.73409   0.73683   0.00000  Uiso   1.00
H2220  H     0.98920   0.98815   0.78185   0.00000  Uiso   1.00
H2221  H     0.67617   0.93461   0.76085   0.00000  Uiso   1.00
H2222  H     0.95853   0.93898   0.68748   0.00000  Uiso   1.00
H2223  H     0.99380   0.98637   0.69131   0.00000  Uiso   1.00
H2224  H     0.94180   0.99430   0.70933   0.00000  Uiso   1.00
H2225  H     0.93453   0.70161   0.85469   0.00000  Uiso   1.00
H2226  H     0.94808   0.75268   0.88840   0.00000  Uiso   1.00
H2227  H     0.67993   0.68744   0.84830   0.00000  Uiso   1.00
H2228  H     0.68693   0.73338   0.89122   0.00000  Uiso   1.00
H2229  H     0.97408   0.69107   0.94884   0.00000  Uiso   1.00
H2230  H     0.73612   0.79508   0.74292   0.00000  Uiso   1.00
H2231  H     0.68758   0.99431   0.93605   0.00000  Uiso   1.00
H2232  H     0.97290   0.97757   0.90589   0.00000  Uiso   1.00
H2233  H     0.73859   0.93277   0.92925   0.00000  Uiso   1.00
H2234  H     0.74579   0.87382   0.91650   0.00000  Uiso   1.00
H2235  H     0.99659   0.91386   0.94757   0.00000  Uiso   1.00
H2236  H     0.67686   0.85461   0.94213   0.00000  Uiso   1.00
H2237  H     0.73382   0.86670   0.67502   0.00000  Uiso   1.00
H2238  H     0.68286   0.87652   0.69559   0.00000  Uiso   1.00
H2239  H     0.71515   0.92454   0.68206   0.00000  Uiso   1.00
H2240  H     0.80001   0.71589   0.71811   0.00000  Uiso   1.00
H2241  H     0.99272   0.73561   0.71880   0.00000  Uiso   1.00
H2242  H     0.85932   0.95184   0.95014   0.00000  Uiso   1.00
H2243  H     0.88775   0.74011   0.91533   0.00000  Uiso   1.00
H2244  H     0.76933   0.92572   0.76589   0.00000  Uiso   1.00
H2245  H     0.99505   0.79737   0.71771   0.00000  Uiso   1.00
H2246  H     0.71442   0.79135   0.98502   0.00000  Uiso   1.00
H2247  H     0.99784   0.76942   0.96715   0.00000  Uiso   1.00
H2248  H     0.70632   0.73048   0.98418   0.00000  Uiso   1.00
H2249  H     0.92096   0.95425   0.78913   0.00000  Uiso   1.00
H2250  H     0.93727   0.90126   0.76359   0.00000  Uiso   1.00
N2251  N     0.83333   0.95069   0.83333   0.00000  Uiso   1.00
N2252  N     0.83333   0.71598   0.83333   0.00000  Uiso   1.00
O2253  O     0.77321   0.87291   0.83333   0.00000  Uiso   1.00
O2254  O     0.96039   0.91795   0.83562   0.00000  Uiso   1.00
O2255  O     0.96058   0.75095   0.81342   0.00000  Uiso   1.00
O2256  O     0.70691   0.91144   0.86688   0.00000  Uiso   1.00
O2257  O     0.86068   0.71486   0.72792   0.00000  Uiso   1.00
O2258  O     0.90416   0.93142   0.90835   0.00000  Uiso   1.00
O2259  O     0.85253   0.70474   0.95858   0.00000  Uiso   1.00
O2260  O     0.79378   0.96025   0.71223   0.00000  Uiso   1.00
O2261  O     0.89345   0.79375   0.83334   0.00000  Uiso   1.00
O2262  O     0.89345   0.87291   0.83334   0.00000  Uiso   1.00
O2263  O     0.77321   0.79375   0.83333   0.00000  Uiso   1.00
O2264  O     0.83333   0.87292   0.76280   0.00000  Uiso   1.00
O2265  O     0.83333   0.79375   0.90387   0.00000  Uiso   1.00
O2266  O     0.83333   0.87292   0.90387   0.00000  Uiso   1.00
O2267  O     0.83333   0.79375   0.76280   0.00000  Uiso   1.00
O2268  O     0.70732   0.75649   0.79666   0.00000  Uiso   1.00
loop_
_geom_bond_atom_site_label_1
_geom_bond_atom_site_label_2
_geom_bond_distance
_geom_bond_site_symmetry_2
_ccdc_geom_bond_type
C1     O69     1.308   .     A
C1     O79     1.308   .     A
C1     C4      1.456   .     S
C2     O72     1.388   .     S
C2     C4      1.411   .     A
C2     C199    1.391   1_455 S
C3     C12     1.473   .     S
C3     C31     1.419   .     A
C3     C32     1.414   .     A
C4     C30     1.408   .     A
C5     C22     1.465   .     S
C5     N68     1.386   .     A
C5     C512    1.429   1_545 S
C6     C24     1.477   .     S
C6     N67     1.376   .     A
C6     C259    1.433   .     S
C7     N68     1.384   .     A
C7     C25     1.473   .     S
C7     C510    1.433   1_545 S
C8     C26     1.485   .     S
C8     N67     1.372   .     A
C8     C257    1.429   .     S
C9     C10     1.534   .     S
C9     H46     1.114   .     S
C9     O84     1.415   .     S
C9     H35     1.106   .     S
C10    C1523   1.523   1_554 S
C10    H225    1.110   1_455 S
C10    H229    1.111   1_455 S
C11    H62     1.108   .     S
C11    H64     1.109   .     S
C11    C766    1.523   .     S
C11    H231    1.110   1_455 S
C12    O78     1.310   .     A
C12    O77     1.315   .     A
C13    H65     1.112   .     S
C13    O70     1.421   .     S
C13    C14     1.529   .     S
C13    H66     1.116   .     S
C14    H36     1.103   .     S
C14    C15     1.524   .     S
C14    H121    1.110   .     S
C15    H38     1.110   .     S
C15    H39     1.109   .     S
C15    H40     1.111   .     S
C16    C17     1.535   .     S
C16    O71     1.416   .     S
C16    H42     1.113   .     S
C16    H41     1.111   .     S
C17    C18     1.520   .     S
C17    H127    1.105   .     S
C17    H128    1.110   .     S
C18    H45     1.110   .     S
C18    H635    1.109   1_545 S
C18    H552    1.106   1_545 S
C19    C20     1.538   .     S
C19    O72     1.423   .     S
C19    H49     1.111   .     S
C19    H50     1.109   .     S
C20    H52     1.110   .     S
C20    C777    1.527   .     S
C20    H219    1.106   1_455 S
C21    H53     1.110   .     S
C21    H54     1.109   .     S
C21    H55     1.110   .     S
C21    C1532   1.527   1_554 S
C22    H56     1.082   .     S
C22    O73     1.221   .     D
C23    O83     1.305   .     A
C23    O80     1.305   .     A
C23    C28     1.412   .     S
C24    O74     1.218   .     D
C24    H58     1.085   .     S
C25    O75     1.220   .     D
C25    H59     1.077   .     S
C26    O76     1.221   .     D
C26    H60     1.080   .     S
C27    C29     1.412   .     S
C27    O81     1.305   .     A
C27    O82     1.305   .     A
C28    C1541   1.192   1_554 S
C29    C784    1.192   .     S
C30    O84     1.384   .     S
C30    C200    1.389   1_455 S
C31    O70     1.386   .     S
C31    C86     1.391   .     S
C32    O71     1.382   .     S
C32    C114    1.389   .     S
Cu33   O78     1.976   .     S
Cu33   O69     1.979   .     S
Cu33   Cu34    2.733   .     S
Cu33   N67     2.054   .     S
Cu33   O82     1.932   .     S
Cu33   O80     1.932   .     S
Cu34   O77     1.979   .     S
Cu34   O81     1.932   .     S
Cu34   N68     2.054   .     S
Cu34   O79     1.976   .     S
Cu34   O83     1.932   .     S
H37    C182    1.110   1_455 S
H43    C185    1.105   1_455 S
H44    C185    1.110   1_455 S
H47    C438    1.109   1_455 S
H48    C270    1.106   .     S
H51    C104    1.106   .     S
H57    C94     1.110   .     S
H61    C94     1.111   .     S
H63    C95     1.110   .     S
C85    O153    1.308   .     A
C85    O163    1.308   .     A
C85    C88     1.456   .     S
C86    O156    1.388   .     S
C86    C88     1.411   .     A
C87    C96     1.473   .     S
C87    C115    1.419   .     A
C87    C116    1.414   .     A
C88    C114    1.408   .     A
C89    C106    1.465   .     S
C89    N152    1.386   .     A
C89    C596    1.429   1_545 S
C90    C108    1.477   .     S
C90    N151    1.376   .     A
C90    C343    1.433   .     S
C91    N152    1.384   .     A
C91    C109    1.473   .     S
C91    C594    1.433   1_545 S
C92    C110    1.485   .     S
C92    N151    1.372   .     A
C92    C341    1.429   .     S
C93    C94     1.534   .     S
C93    H130    1.114   .     S
C93    O168    1.415   .     S
C93    H119    1.106   .     S
C94    C1607   1.523   1_554 S
C95    H146    1.108   .     S
C95    H148    1.109   .     S
C95    C850    1.523   .     S
C96    O162    1.310   .     A
C96    O161    1.315   .     A
C97    H149    1.112   .     S
C97    O154    1.421   .     S
C97    C98     1.529   .     S
C97    H150    1.116   .     S
C98    H120    1.103   .     S
C98    C99     1.524   .     S
C98    H205    1.110   .     S
C99    H122    1.110   .     S
C99    H123    1.109   .     S
C99    H124    1.111   .     S
C100   C101    1.535   .     S
C100   O155    1.416   .     S
C100   H126    1.113   .     S
C100   H125    1.111   .     S
C101   C102    1.520   .     S
C101   H211    1.105   .     S
C101   H212    1.110   .     S
C102   H129    1.110   .     S
C102   H719    1.109   1_545 S
C102   H636    1.106   1_545 S
C103   C104    1.538   .     S
C103   O156    1.423   .     S
C103   H133    1.111   .     S
C103   H134    1.109   .     S
C104   H136    1.110   .     S
C104   C861    1.527   .     S
C105   H137    1.110   .     S
C105   H138    1.109   .     S
C105   H139    1.110   .     S
C105   C1616   1.527   1_554 S
C106   H140    1.082   .     S
C106   O157    1.221   .     D
C107   O167    1.305   .     A
C107   O164    1.305   .     A
C107   C112    1.412   .     S
C108   O158    1.218   .     D
C108   H142    1.085   .     S
C109   O159    1.220   .     D
C109   H143    1.077   .     S
C110   O160    1.221   .     D
C110   H144    1.080   .     S
C111   C113    1.412   .     S
C111   O165    1.305   .     A
C111   O166    1.305   .     A
C112   C1625   1.192   1_554 S
C113   C868    1.192   .     S
C114   O168    1.384   .     S
C115   O154    1.386   .     S
C115   C170    1.391   .     S
C116   O155    1.382   .     S
C116   C198    1.389   .     S
Cu117  O162    1.976   .     S
Cu117  O153    1.979   .     S
Cu117  Cu118   2.733   .     S
Cu117  N151    2.054   .     S
Cu117  O166    1.932   .     S
Cu117  O164    1.932   .     S
Cu118  O161    1.979   .     S
Cu118  O165    1.932   .     S
Cu118  N152    2.054   .     S
Cu118  O163    1.976   .     S
Cu118  O167    1.932   .     S
H131   C270    1.109   .     S
H132   C354    1.106   .     S
H135   C188    1.106   .     S
H141   C178    1.110   .     S
H145   C178    1.111   .     S
H147   C179    1.110   .     S
C169   O237    1.308   .     A
C169   O247    1.308   .     A
C169   C172    1.456   .     S
C170   O240    1.388   .     S
C170   C172    1.411   .     A
C171   C180    1.473   .     S
C171   C199    1.419   .     A
C171   C200    1.414   .     A
C172   C198    1.408   .     A
C173   C190    1.465   .     S
C173   N236    1.386   .     A
C173   C680    1.429   1_545 S
C174   C192    1.477   .     S
C174   N235    1.376   .     A
C174   C427    1.433   .     S
C175   N236    1.384   .     A
C175   C193    1.473   .     S
C175   C678    1.433   1_545 S
C176   C194    1.485   .     S
C176   N235    1.372   .     A
C176   C425    1.429   .     S
C177   C178    1.534   .     S
C177   H214    1.114   .     S
C177   O252    1.415   .     S
C177   H203    1.106   .     S
C178   C1691   1.523   1_554 S
C179   H230    1.108   .     S
C179   H232    1.109   .     S
C179   C934    1.523   .     S
C180   O246    1.310   .     A
C180   O245    1.315   .     A
C181   H233    1.112   .     S
C181   O238    1.421   .     S
C181   C182    1.529   .     S
C181   H234    1.116   .     S
C182   H204    1.103   .     S
C182   C183    1.524   .     S
C182   H37     1.110   1_655 S
C183   H206    1.110   .     S
C183   H207    1.109   .     S
C183   H208    1.111   .     S
C184   C185    1.535   .     S
C184   O239    1.416   .     S
C184   H210    1.113   .     S
C184   H209    1.111   .     S
C185   C186    1.520   .     S
C185   H43     1.105   1_655 S
C185   H44     1.110   1_655 S
C186   H213    1.110   .     S
C186   H551    1.109   1_645 S
C186   H720    1.106   1_545 S
C187   C188    1.538   .     S
C187   O240    1.423   .     S
C187   H217    1.111   .     S
C187   H218    1.109   .     S
C188   H220    1.110   .     S
C188   C945    1.527   .     S
C189   H221    1.110   .     S
C189   H222    1.109   .     S
C189   H223    1.110   .     S
C189   C1700   1.527   1_554 S
C190   H224    1.082   .     S
C190   O241    1.221   .     D
C191   O251    1.305   .     A
C191   O248    1.305   .     A
C191   C196    1.412   .     S
C192   O242    1.218   .     D
C192   H226    1.085   .     S
C193   O243    1.220   .     D
C193   H227    1.077   .     S
C194   O244    1.221   .     D
C194   H228    1.080   .     S
C195   C197    1.412   .     S
C195   O249    1.305   .     A
C195   O250    1.305   .     A
C196   C1709   1.192   1_554 S
C197   C952    1.192   .     S
C198   O252    1.384   .     S
C199   O238    1.386   .     S
C199   C2      1.391   1_655 S
C200   O239    1.382   .     S
C200   C30     1.389   1_655 S
Cu201  O246    1.976   .     S
Cu201  O237    1.979   .     S
Cu201  Cu202   2.733   .     S
Cu201  N235    2.054   .     S
Cu201  O250    1.932   .     S
Cu201  O248    1.932   .     S
Cu202  O245    1.979   .     S
Cu202  O249    1.932   .     S
Cu202  N236    2.054   .     S
Cu202  O247    1.976   .     S
Cu202  O251    1.932   .     S
H215   C354    1.109   .     S
H216   C438    1.106   .     S
H219   C20     1.106   1_655 S
H225   C10     1.110   1_655 S
H229   C10     1.111   1_655 S
H231   C11     1.110   1_655 S
C253   O321    1.308   .     A
C253   O331    1.308   .     A
C253   C256    1.456   .     S
C254   O324    1.388   .     S
C254   C256    1.411   .     A
C254   C451    1.391   1_455 S
C255   C264    1.473   .     S
C255   C283    1.419   .     A
C255   C284    1.414   .     A
C256   C282    1.408   .     A
C257   C274    1.465   .     S
C257   N320    1.386   .     A
C258   C276    1.477   .     S
C258   N319    1.376   .     A
C258   C511    1.433   .     S
C259   N320    1.384   .     A
C259   C277    1.473   .     S
C260   C278    1.485   .     S
C260   N319    1.372   .     A
C260   C509    1.429   .     S
C261   C262    1.534   .     S
C261   H298    1.114   .     S
C261   O336    1.415   .     S
C261   H287    1.106   .     S
C262   C1775   1.523   1_554 S
C262   H477    1.110   1_455 S
C262   H481    1.111   1_455 S
C263   H314    1.108   .     S
C263   H316    1.109   .     S
C263   C1018   1.523   .     S
C263   H483    1.110   1_455 S
C264   O330    1.310   .     A
C264   O329    1.315   .     A
C265   H317    1.112   .     S
C265   O322    1.421   .     S
C265   C266    1.529   .     S
C265   H318    1.116   .     S
C266   H288    1.103   .     S
C266   C267    1.524   .     S
C266   H373    1.110   .     S
C267   H290    1.110   .     S
C267   H291    1.109   .     S
C267   H292    1.111   .     S
C268   C269    1.535   .     S
C268   O323    1.416   .     S
C268   H294    1.113   .     S
C268   H293    1.111   .     S
C269   C270    1.520   .     S
C269   H379    1.105   .     S
C269   H380    1.110   .     S
C270   H297    1.110   .     S
C271   C272    1.538   .     S
C271   O324    1.423   .     S
C271   H301    1.111   .     S
C271   H302    1.109   .     S
C272   H304    1.110   .     S
C272   C1029   1.527   .     S
C272   H471    1.106   1_455 S
C273   H305    1.110   .     S
C273   H306    1.109   .     S
C273   H307    1.110   .     S
C273   C1784   1.527   1_554 S
C274   H308    1.082   .     S
C274   O325    1.221   .     D
C275   O335    1.305   .     A
C275   O332    1.305   .     A
C275   C280    1.412   .     S
C276   O326    1.218   .     D
C276   H310    1.085   .     S
C277   O327    1.220   .     D
C277   H311    1.077   .     S
C278   O328    1.221   .     D
C278   H312    1.080   .     S
C279   C281    1.412   .     S
C279   O333    1.305   .     A
C279   O334    1.305   .     A
C280   C1793   1.192   1_554 S
C281   C1036   1.192   .     S
C282   O336    1.384   .     S
C282   C452    1.389   1_455 S
C283   O322    1.386   .     S
C283   C338    1.391   .     S
C284   O323    1.382   .     S
C284   C366    1.389   .     S
Cu285  O330    1.976   .     S
Cu285  O321    1.979   .     S
Cu285  Cu286   2.733   .     S
Cu285  N319    2.054   .     S
Cu285  O334    1.932   .     S
Cu285  O332    1.932   .     S
Cu286  O329    1.979   .     S
Cu286  O333    1.932   .     S
Cu286  N320    2.054   .     S
Cu286  O331    1.976   .     S
Cu286  O335    1.932   .     S
H289   C434    1.110   1_455 S
H295   C437    1.105   1_455 S
H296   C437    1.110   1_455 S
H299   C690    1.109   1_455 S
H300   C522    1.106   .     S
H303   C356    1.106   .     S
H309   C346    1.110   .     S
H313   C346    1.111   .     S
H315   C347    1.110   .     S
C337   O405    1.308   .     A
C337   O415    1.308   .     A
C337   C340    1.456   .     S
C338   O408    1.388   .     S
C338   C340    1.411   .     A
C339   C348    1.473   .     S
C339   C367    1.419   .     A
C339   C368    1.414   .     A
C340   C366    1.408   .     A
C341   C358    1.465   .     S
C341   N404    1.386   .     A
C342   C360    1.477   .     S
C342   N403    1.376   .     A
C342   C595    1.433   .     S
C343   N404    1.384   .     A
C343   C361    1.473   .     S
C344   C362    1.485   .     S
C344   N403    1.372   .     A
C344   C593    1.429   .     S
C345   C346    1.534   .     S
C345   H382    1.114   .     S
C345   O420    1.415   .     S
C345   H371    1.106   .     S
C346   C1859   1.523   1_554 S
C347   H398    1.108   .     S
C347   H400    1.109   .     S
C347   C1102   1.523   .     S
C348   O414    1.310   .     A
C348   O413    1.315   .     A
C349   H401    1.112   .     S
C349   O406    1.421   .     S
C349   C350    1.529   .     S
C349   H402    1.116   .     S
C350   H372    1.103   .     S
C350   C351    1.524   .     S
C350   H457    1.110   .     S
C351   H374    1.110   .     S
C351   H375    1.109   .     S
C351   H376    1.111   .     S
C352   C353    1.535   .     S
C352   O407    1.416   .     S
C352   H378    1.113   .     S
C352   H377    1.111   .     S
C353   C354    1.520   .     S
C353   H463    1.105   .     S
C353   H464    1.110   .     S
C354   H381    1.110   .     S
C355   C356    1.538   .     S
C355   O408    1.423   .     S
C355   H385    1.111   .     S
C355   H386    1.109   .     S
C356   H388    1.110   .     S
C356   C1113   1.527   .     S
C357   H389    1.110   .     S
C357   H390    1.109   .     S
C357   H391    1.110   .     S
C357   C1868   1.527   1_554 S
C358   H392    1.082   .     S
C358   O409    1.221   .     D
C359   O419    1.305   .     A
C359   O416    1.305   .     A
C359   C364    1.412   .     S
C360   O410    1.218   .     D
C360   H394    1.085   .     S
C361   O411    1.220   .     D
C361   H395    1.077   .     S
C362   O412    1.221   .     D
C362   H396    1.080   .     S
C363   C365    1.412   .     S
C363   O417    1.305   .     A
C363   O418    1.305   .     A
C364   C1877   1.192   1_554 S
C365   C1120   1.192   .     S
C366   O420    1.384   .     S
C367   O406    1.386   .     S
C367   C422    1.391   .     S
C368   O407    1.382   .     S
C368   C450    1.389   .     S
Cu369  O414    1.976   .     S
Cu369  O405    1.979   .     S
Cu369  Cu370   2.733   .     S
Cu369  N403    2.054   .     S
Cu369  O418    1.932   .     S
Cu369  O416    1.932   .     S
Cu370  O413    1.979   .     S
Cu370  O417    1.932   .     S
Cu370  N404    2.054   .     S
Cu370  O415    1.976   .     S
Cu370  O419    1.932   .     S
H383   C522    1.109   .     S
H384   C606    1.106   .     S
H387   C440    1.106   .     S
H393   C430    1.110   .     S
H397   C430    1.111   .     S
H399   C431    1.110   .     S
C421   O489    1.308   .     A
C421   O499    1.308   .     A
C421   C424    1.456   .     S
C422   O492    1.388   .     S
C422   C424    1.411   .     A
C423   C432    1.473   .     S
C423   C451    1.419   .     A
C423   C452    1.414   .     A
C424   C450    1.408   .     A
C425   C442    1.465   .     S
C425   N488    1.386   .     A
C426   C444    1.477   .     S
C426   N487    1.376   .     A
C426   C679    1.433   .     S
C427   N488    1.384   .     A
C427   C445    1.473   .     S
C428   C446    1.485   .     S
C428   N487    1.372   .     A
C428   C677    1.429   .     S
C429   C430    1.534   .     S
C429   H466    1.114   .     S
C429   O504    1.415   .     S
C429   H455    1.106   .     S
C430   C1943   1.523   1_554 S
C431   H482    1.108   .     S
C431   H484    1.109   .     S
C431   C1186   1.523   .     S
C432   O498    1.310   .     A
C432   O497    1.315   .     A
C433   H485    1.112   .     S
C433   O490    1.421   .     S
C433   C434    1.529   .     S
C433   H486    1.116   .     S
C434   H456    1.103   .     S
C434   C435    1.524   .     S
C434   H289    1.110   1_655 S
C435   H458    1.110   .     S
C435   H459    1.109   .     S
C435   H460    1.111   .     S
C436   C437    1.535   .     S
C436   O491    1.416   .     S
C436   H462    1.113   .     S
C436   H461    1.111   .     S
C437   C438    1.520   .     S
C437   H295    1.105   1_655 S
C437   H296    1.110   1_655 S
C438   H465    1.110   .     S
C438   H47     1.109   1_655 S
C439   C440    1.538   .     S
C439   O492    1.423   .     S
C439   H469    1.111   .     S
C439   H470    1.109   .     S
C440   H472    1.110   .     S
C440   C1197   1.527   .     S
C441   H473    1.110   .     S
C441   H474    1.109   .     S
C441   H475    1.110   .     S
C441   C1952   1.527   1_554 S
C442   H476    1.082   .     S
C442   O493    1.221   .     D
C443   O503    1.305   .     A
C443   O500    1.305   .     A
C443   C448    1.412   .     S
C444   O494    1.218   .     D
C444   H478    1.085   .     S
C445   O495    1.220   .     D
C445   H479    1.077   .     S
C446   O496    1.221   .     D
C446   H480    1.080   .     S
C447   C449    1.412   .     S
C447   O501    1.305   .     A
C447   O502    1.305   .     A
C448   C1961   1.192   1_554 S
C449   C1204   1.192   .     S
C450   O504    1.384   .     S
C451   O490    1.386   .     S
C451   C254    1.391   1_655 S
C452   O491    1.382   .     S
C452   C282    1.389   1_655 S
Cu453  O498    1.976   .     S
Cu453  O489    1.979   .     S
Cu453  Cu454   2.733   .     S
Cu453  N487    2.054   .     S
Cu453  O502    1.932   .     S
Cu453  O500    1.932   .     S
Cu454  O497    1.979   .     S
Cu454  O501    1.932   .     S
Cu454  N488    2.054   .     S
Cu454  O499    1.976   .     S
Cu454  O503    1.932   .     S
H467   C606    1.109   .     S
H468   C690    1.106   .     S
H471   C272    1.106   1_655 S
H477   C262    1.110   1_655 S
H481   C262    1.111   1_655 S
H483   C263    1.110   1_655 S
C505   O573    1.308   .     A
C505   O583    1.308   .     A
C505   C508    1.456   .     S
C506   O576    1.388   .     S
C506   C508    1.411   .     A
C506   C703    1.391   1_455 S
C507   C516    1.473   .     S
C507   C535    1.419   .     A
C507   C536    1.414   .     A
C508   C534    1.408   .     A
C509   C526    1.465   .     S
C509   N572    1.386   .     A
C510   C528    1.477   .     S
C510   N571    1.376   .     A
C510   C7      1.433   1_565 S
C511   N572    1.384   .     A
C511   C529    1.473   .     S
C512   C530    1.485   .     S
C512   N571    1.372   .     A
C512   C5      1.429   1_565 S
C513   C514    1.534   .     S
C513   H550    1.114   .     S
C513   O588    1.415   .     S
C513   H539    1.106   .     S
C514   C2027   1.523   1_554 S
C514   H729    1.110   1_455 S
C514   H733    1.111   1_455 S
C515   H566    1.108   .     S
C515   H568    1.109   .     S
C515   C1270   1.523   .     S
C515   H735    1.110   1_455 S
C516   O582    1.310   .     A
C516   O581    1.315   .     A
C517   H569    1.112   .     S
C517   O574    1.421   .     S
C517   C518    1.529   .     S
C517   H570    1.116   .     S
C518   H540    1.103   .     S
C518   C519    1.524   .     S
C518   H625    1.110   .     S
C519   H542    1.110   .     S
C519   H543    1.109   .     S
C519   H544    1.111   .     S
C520   C521    1.535   .     S
C520   O575    1.416   .     S
C520   H546    1.113   .     S
C520   H545    1.111   .     S
C521   C522    1.520   .     S
C521   H631    1.105   .     S
C521   H632    1.110   .     S
C522   H549    1.110   .     S
C523   C524    1.538   .     S
C523   O576    1.423   .     S
C523   H553    1.111   .     S
C523   H554    1.109   .     S
C524   H556    1.110   .     S
C524   C1281   1.527   .     S
C524   H723    1.106   1_455 S
C525   H557    1.110   .     S
C525   H558    1.109   .     S
C525   H559    1.110   .     S
C525   C2036   1.527   1_554 S
C526   H560    1.082   .     S
C526   O577    1.221   .     D
C527   O587    1.305   .     A
C527   O584    1.305   .     A
C527   C532    1.412   .     S
C528   O578    1.218   .     D
C528   H562    1.085   .     S
C529   O579    1.220   .     D
C529   H563    1.077   .     S
C530   O580    1.221   .     D
C530   H564    1.080   .     S
C531   C533    1.412   .     S
C531   O585    1.305   .     A
C531   O586    1.305   .     A
C532   C2045   1.192   1_554 S
C533   C1288   1.192   .     S
C534   O588    1.384   .     S
C534   C704    1.389   1_455 S
C535   O574    1.386   .     S
C535   C590    1.391   .     S
C536   O575    1.382   .     S
C536   C618    1.389   .     S
Cu537  O582    1.976   .     S
Cu537  O573    1.979   .     S
Cu537  Cu538   2.733   .     S
Cu537  N571    2.054   .     S
Cu537  O586    1.932   .     S
Cu537  O584    1.932   .     S
Cu538  O581    1.979   .     S
Cu538  O585    1.932   .     S
Cu538  N572    2.054   .     S
Cu538  O583    1.976   .     S
Cu538  O587    1.932   .     S
H541   C686    1.110   1_455 S
H547   C689    1.105   1_455 S
H548   C689    1.110   1_455 S
H551   C186    1.109   1_465 S
H552   C18     1.106   1_565 S
H555   C608    1.106   .     S
H561   C598    1.110   .     S
H565   C598    1.111   .     S
H567   C599    1.110   .     S
C589   O657    1.308   .     A
C589   O667    1.308   .     A
C589   C592    1.456   .     S
C590   O660    1.388   .     S
C590   C592    1.411   .     A
C591   C600    1.473   .     S
C591   C619    1.419   .     A
C591   C620    1.414   .     A
C592   C618    1.408   .     A
C593   C610    1.465   .     S
C593   N656    1.386   .     A
C594   C612    1.477   .     S
C594   N655    1.376   .     A
C594   C91     1.433   1_565 S
C595   N656    1.384   .     A
C595   C613    1.473   .     S
C596   C614    1.485   .     S
C596   N655    1.372   .     A
C596   C89     1.429   1_565 S
C597   C598    1.534   .     S
C597   H634    1.114   .     S
C597   O672    1.415   .     S
C597   H623    1.106   .     S
C598   C2111   1.523   1_554 S
C599   H650    1.108   .     S
C599   H652    1.109   .     S
C599   C1354   1.523   .     S
C600   O666    1.310   .     A
C600   O665    1.315   .     A
C601   H653    1.112   .     S
C601   O658    1.421   .     S
C601   C602    1.529   .     S
C601   H654    1.116   .     S
C602   H624    1.103   .     S
C602   C603    1.524   .     S
C602   H709    1.110   .     S
C603   H626    1.110   .     S
C603   H627    1.109   .     S
C603   H628    1.111   .     S
C604   C605    1.535   .     S
C604   O659    1.416   .     S
C604   H630    1.113   .     S
C604   H629    1.111   .     S
C605   C606    1.520   .     S
C605   H715    1.105   .     S
C605   H716    1.110   .     S
C606   H633    1.110   .     S
C607   C608    1.538   .     S
C607   O660    1.423   .     S
C607   H637    1.111   .     S
C607   H638    1.109   .     S
C608   H640    1.110   .     S
C608   C1365   1.527   .     S
C609   H641    1.110   .     S
C609   H642    1.109   .     S
C609   H643    1.110   .     S
C609   C2120   1.527   1_554 S
C610   H644    1.082   .     S
C610   O661    1.221   .     D
C611   O671    1.305   .     A
C611   O668    1.305   .     A
C611   C616    1.412   .     S
C612   O662    1.218   .     D
C612   H646    1.085   .     S
C613   O663    1.220   .     D
C613   H647    1.077   .     S
C614   O664    1.221   .     D
C614   H648    1.080   .     S
C615   C617    1.412   .     S
C615   O669    1.305   .     A
C615   O670    1.305   .     A
C616   C2129   1.192   1_554 S
C617   C1372   1.192   .     S
C618   O672    1.384   .     S
C619   O658    1.386   .     S
C619   C674    1.391   .     S
C620   O659    1.382   .     S
C620   C702    1.389   .     S
Cu621  O666    1.976   .     S
Cu621  O657    1.979   .     S
Cu621  Cu622   2.733   .     S
Cu621  N655    2.054   .     S
Cu621  O670    1.932   .     S
Cu621  O668    1.932   .     S
Cu622  O665    1.979   .     S
Cu622  O669    1.932   .     S
Cu622  N656    2.054   .     S
Cu622  O667    1.976   .     S
Cu622  O671    1.932   .     S
H635   C18     1.109   1_565 S
H636   C102    1.106   1_565 S
H639   C692    1.106   .     S
H645   C682    1.110   .     S
H649   C682    1.111   .     S
H651   C683    1.110   .     S
C673   O741    1.308   .     A
C673   O751    1.308   .     A
C673   C676    1.456   .     S
C674   O744    1.388   .     S
C674   C676    1.411   .     A
C675   C684    1.473   .     S
C675   C703    1.419   .     A
C675   C704    1.414   .     A
C676   C702    1.408   .     A
C677   C694    1.465   .     S
C677   N740    1.386   .     A
C678   C696    1.477   .     S
C678   N739    1.376   .     A
C678   C175    1.433   1_565 S
C679   N740    1.384   .     A
C679   C697    1.473   .     S
C680   C698    1.485   .     S
C680   N739    1.372   .     A
C680   C173    1.429   1_565 S
C681   C682    1.534   .     S
C681   H718    1.114   .     S
C681   O756    1.415   .     S
C681   H707    1.106   .     S
C682   C2195   1.523   1_554 S
C683   H734    1.108   .     S
C683   H736    1.109   .     S
C683   C1438   1.523   .     S
C684   O750    1.310   .     A
C684   O749    1.315   .     A
C685   H737    1.112   .     S
C685   O742    1.421   .     S
C685   C686    1.529   .     S
C685   H738    1.116   .     S
C686   H708    1.103   .     S
C686   C687    1.524   .     S
C686   H541    1.110   1_655 S
C687   H710    1.110   .     S
C687   H711    1.109   .     S
C687   H712    1.111   .     S
C688   C689    1.535   .     S
C688   O743    1.416   .     S
C688   H714    1.113   .     S
C688   H713    1.111   .     S
C689   C690    1.520   .     S
C689   H547    1.105   1_655 S
C689   H548    1.110   1_655 S
C690   H717    1.110   .     S
C690   H299    1.109   1_655 S
C691   C692    1.538   .     S
C691   O744    1.423   .     S
C691   H721    1.111   .     S
C691   H722    1.109   .     S
C692   H724    1.110   .     S
C692   C1449   1.527   .     S
C693   H725    1.110   .     S
C693   H726    1.109   .     S
C693   H727    1.110   .     S
C693   C2204   1.527   1_554 S
C694   H728    1.082   .     S
C694   O745    1.221   .     D
C695   O755    1.305   .     A
C695   O752    1.305   .     A
C695   C700    1.412   .     S
C696   O746    1.218   .     D
C696   H730    1.085   .     S
C697   O747    1.220   .     D
C697   H731    1.077   .     S
C698   O748    1.221   .     D
C698   H732    1.080   .     S
C699   C701    1.412   .     S
C699   O753    1.305   .     A
C699   O754    1.305   .     A
C700   C2213   1.192   1_554 S
C701   C1456   1.192   .     S
C702   O756    1.384   .     S
C703   O742    1.386   .     S
C703   C506    1.391   1_655 S
C704   O743    1.382   .     S
C704   C534    1.389   1_655 S
Cu705  O750    1.976   .     S
Cu705  O741    1.979   .     S
Cu705  Cu706   2.733   .     S
Cu705  N739    2.054   .     S
Cu705  O754    1.932   .     S
Cu705  O752    1.932   .     S
Cu706  O749    1.979   .     S
Cu706  O753    1.932   .     S
Cu706  N740    2.054   .     S
Cu706  O751    1.976   .     S
Cu706  O755    1.932   .     S
H719   C102    1.109   1_565 S
H720   C186    1.106   1_565 S
H723   C524    1.106   1_655 S
H729   C514    1.110   1_655 S
H733   C514    1.111   1_655 S
H735   C515    1.110   1_655 S
C757   O825    1.308   .     A
C757   O835    1.308   .     A
C757   C760    1.456   .     S
C758   O828    1.388   .     S
C758   C760    1.411   .     A
C758   C955    1.391   1_455 S
C759   C768    1.473   .     S
C759   C787    1.419   .     A
C759   C788    1.414   .     A
C760   C786    1.408   .     A
C761   C778    1.465   .     S
C761   N824    1.386   .     A
C761   C1268   1.429   1_545 S
C762   C780    1.477   .     S
C762   N823    1.376   .     A
C762   C1015   1.433   .     S
C763   N824    1.384   .     A
C763   C781    1.473   .     S
C763   C1266   1.433   1_545 S
C764   C782    1.485   .     S
C764   N823    1.372   .     A
C764   C1013   1.429   .     S
C765   C766    1.534   .     S
C765   H802    1.114   .     S
C765   O840    1.415   .     S
C765   H791    1.106   .     S
C766   H981    1.110   1_455 S
C766   H985    1.111   1_455 S
C767   H818    1.108   .     S
C767   H820    1.109   .     S
C767   C1522   1.523   .     S
C767   H987    1.110   1_455 S
C768   O834    1.310   .     A
C768   O833    1.315   .     A
C769   H821    1.112   .     S
C769   O826    1.421   .     S
C769   C770    1.529   .     S
C769   H822    1.116   .     S
C770   H792    1.103   .     S
C770   C771    1.524   .     S
C770   H877    1.110   .     S
C771   H794    1.110   .     S
C771   H795    1.109   .     S
C771   H796    1.111   .     S
C772   C773    1.535   .     S
C772   O827    1.416   .     S
C772   H798    1.113   .     S
C772   H797    1.111   .     S
C773   C774    1.520   .     S
C773   H883    1.105   .     S
C773   H884    1.110   .     S
C774   H801    1.110   .     S
C774   H1391   1.109   1_545 S
C774   H1308   1.106   1_545 S
C775   C776    1.538   .     S
C775   O828    1.423   .     S
C775   H805    1.111   .     S
C775   H806    1.109   .     S
C776   H808    1.110   .     S
C776   C1533   1.527   .     S
C776   H975    1.106   1_455 S
C777   H809    1.110   .     S
C777   H810    1.109   .     S
C777   H811    1.110   .     S
C778   H812    1.082   .     S
C778   O829    1.221   .     D
C779   O839    1.305   .     A
C779   O836    1.305   .     A
C779   C784    1.412   .     S
C780   O830    1.218   .     D
C780   H814    1.085   .     S
C781   O831    1.220   .     D
C781   H815    1.077   .     S
C782   O832    1.221   .     D
C782   H816    1.080   .     S
C783   C785    1.412   .     S
C783   O837    1.305   .     A
C783   O838    1.305   .     A
C785   C1540   1.192   .     S
C786   O840    1.384   .     S
C786   C956    1.389   1_455 S
C787   O826    1.386   .     S
C787   C842    1.391   .     S
C788   O827    1.382   .     S
C788   C870    1.389   .     S
Cu789  O834    1.976   .     S
Cu789  O825    1.979   .     S
Cu789  Cu790   2.733   .     S
Cu789  N823    2.054   .     S
Cu789  O838    1.932   .     S
Cu789  O836    1.932   .     S
Cu790  O833    1.979   .     S
Cu790  O837    1.932   .     S
Cu790  N824    2.054   .     S
Cu790  O835    1.976   .     S
Cu790  O839    1.932   .     S
H793   C938    1.110   1_455 S
H799   C941    1.105   1_455 S
H800   C941    1.110   1_455 S
H803   C1194   1.109   1_455 S
H804   C1026   1.106   .     S
H807   C860    1.106   .     S
H813   C850    1.110   .     S
H817   C850    1.111   .     S
H819   C851    1.110   .     S
C841   O909    1.308   .     A
C841   O919    1.308   .     A
C841   C844    1.456   .     S
C842   O912    1.388   .     S
C842   C844    1.411   .     A
C843   C852    1.473   .     S
C843   C871    1.419   .     A
C843   C872    1.414   .     A
C844   C870    1.408   .     A
C845   C862    1.465   .     S
C845   N908    1.386   .     A
C845   C1352   1.429   1_545 S
C846   C864    1.477   .     S
C846   N907    1.376   .     A
C846   C1099   1.433   .     S
C847   N908    1.384   .     A
C847   C865    1.473   .     S
C847   C1350   1.433   1_545 S
C848   C866    1.485   .     S
C848   N907    1.372   .     A
C848   C1097   1.429   .     S
C849   C850    1.534   .     S
C849   H886    1.114   .     S
C849   O924    1.415   .     S
C849   H875    1.106   .     S
C851   H902    1.108   .     S
C851   H904    1.109   .     S
C851   C1606   1.523   .     S
C852   O918    1.310   .     A
C852   O917    1.315   .     A
C853   H905    1.112   .     S
C853   O910    1.421   .     S
C853   C854    1.529   .     S
C853   H906    1.116   .     S
C854   H876    1.103   .     S
C854   C855    1.524   .     S
C854   H961    1.110   .     S
C855   H878    1.110   .     S
C855   H879    1.109   .     S
C855   H880    1.111   .     S
C856   C857    1.535   .     S
C856   O911    1.416   .     S
C856   H882    1.113   .     S
C856   H881    1.111   .     S
C857   C858    1.520   .     S
C857   H967    1.105   .     S
C857   H968    1.110   .     S
C858   H885    1.110   .     S
C858   H1475   1.109   1_545 S
C858   H1392   1.106   1_545 S
C859   C860    1.538   .     S
C859   O912    1.423   .     S
C859   H889    1.111   .     S
C859   H890    1.109   .     S
C860   H892    1.110   .     S
C860   C1617   1.527   .     S
C861   H893    1.110   .     S
C861   H894    1.109   .     S
C861   H895    1.110   .     S
C862   H896    1.082   .     S
C862   O913    1.221   .     D
C863   O923    1.305   .     A
C863   O920    1.305   .     A
C863   C868    1.412   .     S
C864   O914    1.218   .     D
C864   H898    1.085   .     S
C865   O915    1.220   .     D
C865   H899    1.077   .     S
C866   O916    1.221   .     D
C866   H900    1.080   .     S
C867   C869    1.412   .     S
C867   O921    1.305   .     A
C867   O922    1.305   .     A
C869   C1624   1.192   .     S
C870   O924    1.384   .     S
C871   O910    1.386   .     S
C871   C926    1.391   .     S
C872   O911    1.382   .     S
C872   C954    1.389   .     S
Cu873  O918    1.976   .     S
Cu873  O909    1.979   .     S
Cu873  Cu874   2.733   .     S
Cu873  N907    2.054   .     S
Cu873  O922    1.932   .     S
Cu873  O920    1.932   .     S
Cu874  O917    1.979   .     S
Cu874  O921    1.932   .     S
Cu874  N908    2.054   .     S
Cu874  O919    1.976   .     S
Cu874  O923    1.932   .     S
H887   C1026   1.109   .     S
H888   C1110   1.106   .     S
H891   C944    1.106   .     S
H897   C934    1.110   .     S
H901   C934    1.111   .     S
H903   C935    1.110   .     S
C925   O993    1.308   .     A
C925   O1003   1.308   .     A
C925   C928    1.456   .     S
C926   O996    1.388   .     S
C926   C928    1.411   .     A
C927   C936    1.473   .     S
C927   C955    1.419   .     A
C927   C956    1.414   .     A
C928   C954    1.408   .     A
C929   C946    1.465   .     S
C929   N992    1.386   .     A
C929   C1436   1.429   1_545 S
C930   C948    1.477   .     S
C930   N991    1.376   .     A
C930   C1183   1.433   .     S
C931   N992    1.384   .     A
C931   C949    1.473   .     S
C931   C1434   1.433   1_545 S
C932   C950    1.485   .     S
C932   N991    1.372   .     A
C932   C1181   1.429   .     S
C933   C934    1.534   .     S
C933   H970    1.114   .     S
C933   O1008   1.415   .     S
C933   H959    1.106   .     S
C935   H986    1.108   .     S
C935   H988    1.109   .     S
C935   C1690   1.523   .     S
C936   O1002   1.310   .     A
C936   O1001   1.315   .     A
C937   H989    1.112   .     S
C937   O994    1.421   .     S
C937   C938    1.529   .     S
C937   H990    1.116   .     S
C938   H960    1.103   .     S
C938   C939    1.524   .     S
C938   H793    1.110   1_655 S
C939   H962    1.110   .     S
C939   H963    1.109   .     S
C939   H964    1.111   .     S
C940   C941    1.535   .     S
C940   O995    1.416   .     S
C940   H966    1.113   .     S
C940   H965    1.111   .     S
C941   C942    1.520   .     S
C941   H799    1.105   1_655 S
C941   H800    1.110   1_655 S
C942   H969    1.110   .     S
C942   H1307   1.109   1_645 S
C942   H1476   1.106   1_545 S
C943   C944    1.538   .     S
C943   O996    1.423   .     S
C943   H973    1.111   .     S
C943   H974    1.109   .     S
C944   H976    1.110   .     S
C944   C1701   1.527   .     S
C945   H977    1.110   .     S
C945   H978    1.109   .     S
C945   H979    1.110   .     S
C946   H980    1.082   .     S
C946   O997    1.221   .     D
C947   O1007   1.305   .     A
C947   O1004   1.305   .     A
C947   C952    1.412   .     S
C948   O998    1.218   .     D
C948   H982    1.085   .     S
C949   O999    1.220   .     D
C949   H983    1.077   .     S
C950   O1000   1.221   .     D
C950   H984    1.080   .     S
C951   C953    1.412   .     S
C951   O1005   1.305   .     A
C951   O1006   1.305   .     A
C953   C1708   1.192   .     S
C954   O1008   1.384   .     S
C955   O994    1.386   .     S
C955   C758    1.391   1_655 S
C956   O995    1.382   .     S
C956   C786    1.389   1_655 S
Cu957  O1002   1.976   .     S
Cu957  O993    1.979   .     S
Cu957  Cu958   2.733   .     S
Cu957  N991    2.054   .     S
Cu957  O1006   1.932   .     S
Cu957  O1004   1.932   .     S
Cu958  O1001   1.979   .     S
Cu958  O1005   1.932   .     S
Cu958  N992    2.054   .     S
Cu958  O1003   1.976   .     S
Cu958  O1007   1.932   .     S
H971   C1110   1.109   .     S
H972   C1194   1.106   .     S
H975   C776    1.106   1_655 S
H981   C766    1.110   1_655 S
H985   C766    1.111   1_655 S
H987   C767    1.110   1_655 S
C1009  O1077   1.308   .     A
C1009  O1087   1.308   .     A
C1009  C1012   1.456   .     S
C1010  O1080   1.388   .     S
C1010  C1012   1.411   .     A
C1010  C1207   1.391   1_455 S
C1011  C1020   1.473   .     S
C1011  C1039   1.419   .     A
C1011  C1040   1.414   .     A
C1012  C1038   1.408   .     A
C1013  C1030   1.465   .     S
C1013  N1076   1.386   .     A
C1014  C1032   1.477   .     S
C1014  N1075   1.376   .     A
C1014  C1267   1.433   .     S
C1015  N1076   1.384   .     A
C1015  C1033   1.473   .     S
C1016  C1034   1.485   .     S
C1016  N1075   1.372   .     A
C1016  C1265   1.429   .     S
C1017  C1018   1.534   .     S
C1017  H1054   1.114   .     S
C1017  O1092   1.415   .     S
C1017  H1043   1.106   .     S
C1018  H1233   1.110   1_455 S
C1018  H1237   1.111   1_455 S
C1019  H1070   1.108   .     S
C1019  H1072   1.109   .     S
C1019  C1774   1.523   .     S
C1019  H1239   1.110   1_455 S
C1020  O1086   1.310   .     A
C1020  O1085   1.315   .     A
C1021  H1073   1.112   .     S
C1021  O1078   1.421   .     S
C1021  C1022   1.529   .     S
C1021  H1074   1.116   .     S
C1022  H1044   1.103   .     S
C1022  C1023   1.524   .     S
C1022  H1129   1.110   .     S
C1023  H1046   1.110   .     S
C1023  H1047   1.109   .     S
C1023  H1048   1.111   .     S
C1024  C1025   1.535   .     S
C1024  O1079   1.416   .     S
C1024  H1050   1.113   .     S
C1024  H1049   1.111   .     S
C1025  C1026   1.520   .     S
C1025  H1135   1.105   .     S
C1025  H1136   1.110   .     S
C1026  H1053   1.110   .     S
C1027  C1028   1.538   .     S
C1027  O1080   1.423   .     S
C1027  H1057   1.111   .     S
C1027  H1058   1.109   .     S
C1028  H1060   1.110   .     S
C1028  C1785   1.527   .     S
C1028  H1227   1.106   1_455 S
C1029  H1061   1.110   .     S
C1029  H1062   1.109   .     S
C1029  H1063   1.110   .     S
C1030  H1064   1.082   .     S
C1030  O1081   1.221   .     D
C1031  O1091   1.305   .     A
C1031  O1088   1.305   .     A
C1031  C1036   1.412   .     S
C1032  O1082   1.218   .     D
C1032  H1066   1.085   .     S
C1033  O1083   1.220   .     D
C1033  H1067   1.077   .     S
C1034  O1084   1.221   .     D
C1034  H1068   1.080   .     S
C1035  C1037   1.412   .     S
C1035  O1089   1.305   .     A
C1035  O1090   1.305   .     A
C1037  C1792   1.192   .     S
C1038  O1092   1.384   .     S
C1038  C1208   1.389   1_455 S
C1039  O1078   1.386   .     S
C1039  C1094   1.391   .     S
C1040  O1079   1.382   .     S
C1040  C1122   1.389   .     S
Cu1041 O1086   1.976   .     S
Cu1041 O1077   1.979   .     S
Cu1041 Cu1042  2.733   .     S
Cu1041 N1075   2.054   .     S
Cu1041 O1090   1.932   .     S
Cu1041 O1088   1.932   .     S
Cu1042 O1085   1.979   .     S
Cu1042 O1089   1.932   .     S
Cu1042 N1076   2.054   .     S
Cu1042 O1087   1.976   .     S
Cu1042 O1091   1.932   .     S
H1045  C1190   1.110   1_455 S
H1051  C1193   1.105   1_455 S
H1052  C1193   1.110   1_455 S
H1055  C1446   1.109   1_455 S
H1056  C1278   1.106   .     S
H1059  C1112   1.106   .     S
H1065  C1102   1.110   .     S
H1069  C1102   1.111   .     S
H1071  C1103   1.110   .     S
C1093  O1161   1.308   .     A
C1093  O1171   1.308   .     A
C1093  C1096   1.456   .     S
C1094  O1164   1.388   .     S
C1094  C1096   1.411   .     A
C1095  C1104   1.473   .     S
C1095  C1123   1.419   .     A
C1095  C1124   1.414   .     A
C1096  C1122   1.408   .     A
C1097  C1114   1.465   .     S
C1097  N1160   1.386   .     A
C1098  C1116   1.477   .     S
C1098  N1159   1.376   .     A
C1098  C1351   1.433   .     S
C1099  N1160   1.384   .     A
C1099  C1117   1.473   .     S
C1100  C1118   1.485   .     S
C1100  N1159   1.372   .     A
C1100  C1349   1.429   .     S
C1101  C1102   1.534   .     S
C1101  H1138   1.114   .     S
C1101  O1176   1.415   .     S
C1101  H1127   1.106   .     S
C1103  H1154   1.108   .     S
C1103  H1156   1.109   .     S
C1103  C1858   1.523   .     S
C1104  O1170   1.310   .     A
C1104  O1169   1.315   .     A
C1105  H1157   1.112   .     S
C1105  O1162   1.421   .     S
C1105  C1106   1.529   .     S
C1105  H1158   1.116   .     S
C1106  H1128   1.103   .     S
C1106  C1107   1.524   .     S
C1106  H1213   1.110   .     S
C1107  H1130   1.110   .     S
C1107  H1131   1.109   .     S
C1107  H1132   1.111   .     S
C1108  C1109   1.535   .     S
C1108  O1163   1.416   .     S
C1108  H1134   1.113   .     S
C1108  H1133   1.111   .     S
C1109  C1110   1.520   .     S
C1109  H1219   1.105   .     S
C1109  H1220   1.110   .     S
C1110  H1137   1.110   .     S
C1111  C1112   1.538   .     S
C1111  O1164   1.423   .     S
C1111  H1141   1.111   .     S
C1111  H1142   1.109   .     S
C1112  H1144   1.110   .     S
C1112  C1869   1.527   .     S
C1113  H1145   1.110   .     S
C1113  H1146   1.109   .     S
C1113  H1147   1.110   .     S
C1114  H1148   1.082   .     S
C1114  O1165   1.221   .     D
C1115  O1175   1.305   .     A
C1115  O1172   1.305   .     A
C1115  C1120   1.412   .     S
C1116  O1166   1.218   .     D
C1116  H1150   1.085   .     S
C1117  O1167   1.220   .     D
C1117  H1151   1.077   .     S
C1118  O1168   1.221   .     D
C1118  H1152   1.080   .     S
C1119  C1121   1.412   .     S
C1119  O1173   1.305   .     A
C1119  O1174   1.305   .     A
C1121  C1876   1.192   .     S
C1122  O1176   1.384   .     S
C1123  O1162   1.386   .     S
C1123  C1178   1.391   .     S
C1124  O1163   1.382   .     S
C1124  C1206   1.389   .     S
Cu1125 O1170   1.976   .     S
Cu1125 O1161   1.979   .     S
Cu1125 Cu1126  2.733   .     S
Cu1125 N1159   2.054   .     S
Cu1125 O1174   1.932   .     S
Cu1125 O1172   1.932   .     S
Cu1126 O1169   1.979   .     S
Cu1126 O1173   1.932   .     S
Cu1126 N1160   2.054   .     S
Cu1126 O1171   1.976   .     S
Cu1126 O1175   1.932   .     S
H1139  C1278   1.109   .     S
H1140  C1362   1.106   .     S
H1143  C1196   1.106   .     S
H1149  C1186   1.110   .     S
H1153  C1186   1.111   .     S
H1155  C1187   1.110   .     S
C1177  O1245   1.308   .     A
C1177  O1255   1.308   .     A
C1177  C1180   1.456   .     S
C1178  O1248   1.388   .     S
C1178  C1180   1.411   .     A
C1179  C1188   1.473   .     S
C1179  C1207   1.419   .     A
C1179  C1208   1.414   .     A
C1180  C1206   1.408   .     A
C1181  C1198   1.465   .     S
C1181  N1244   1.386   .     A
C1182  C1200   1.477   .     S
C1182  N1243   1.376   .     A
C1182  C1435   1.433   .     S
C1183  N1244   1.384   .     A
C1183  C1201   1.473   .     S
C1184  C1202   1.485   .     S
C1184  N1243   1.372   .     A
C1184  C1433   1.429   .     S
C1185  C1186   1.534   .     S
C1185  H1222   1.114   .     S
C1185  O1260   1.415   .     S
C1185  H1211   1.106   .     S
C1187  H1238   1.108   .     S
C1187  H1240   1.109   .     S
C1187  C1942   1.523   .     S
C1188  O1254   1.310   .     A
C1188  O1253   1.315   .     A
C1189  H1241   1.112   .     S
C1189  O1246   1.421   .     S
C1189  C1190   1.529   .     S
C1189  H1242   1.116   .     S
C1190  H1212   1.103   .     S
C1190  C1191   1.524   .     S
C1190  H1045   1.110   1_655 S
C1191  H1214   1.110   .     S
C1191  H1215   1.109   .     S
C1191  H1216   1.111   .     S
C1192  C1193   1.535   .     S
C1192  O1247   1.416   .     S
C1192  H1218   1.113   .     S
C1192  H1217   1.111   .     S
C1193  C1194   1.520   .     S
C1193  H1051   1.105   1_655 S
C1193  H1052   1.110   1_655 S
C1194  H1221   1.110   .     S
C1194  H803    1.109   1_655 S
C1195  C1196   1.538   .     S
C1195  O1248   1.423   .     S
C1195  H1225   1.111   .     S
C1195  H1226   1.109   .     S
C1196  H1228   1.110   .     S
C1196  C1953   1.527   .     S
C1197  H1229   1.110   .     S
C1197  H1230   1.109   .     S
C1197  H1231   1.110   .     S
C1198  H1232   1.082   .     S
C1198  O1249   1.221   .     D
C1199  O1259   1.305   .     A
C1199  O1256   1.305   .     A
C1199  C1204   1.412   .     S
C1200  O1250   1.218   .     D
C1200  H1234   1.085   .     S
C1201  O1251   1.220   .     D
C1201  H1235   1.077   .     S
C1202  O1252   1.221   .     D
C1202  H1236   1.080   .     S
C1203  C1205   1.412   .     S
C1203  O1257   1.305   .     A
C1203  O1258   1.305   .     A
C1205  C1960   1.192   .     S
C1206  O1260   1.384   .     S
C1207  O1246   1.386   .     S
C1207  C1010   1.391   1_655 S
C1208  O1247   1.382   .     S
C1208  C1038   1.389   1_655 S
Cu1209 O1254   1.976   .     S
Cu1209 O1245   1.979   .     S
Cu1209 Cu1210  2.733   .     S
Cu1209 N1243   2.054   .     S
Cu1209 O1258   1.932   .     S
Cu1209 O1256   1.932   .     S
Cu1210 O1253   1.979   .     S
Cu1210 O1257   1.932   .     S
Cu1210 N1244   2.054   .     S
Cu1210 O1255   1.976   .     S
Cu1210 O1259   1.932   .     S
H1223  C1362   1.109   .     S
H1224  C1446   1.106   .     S
H1227  C1028   1.106   1_655 S
H1233  C1018   1.110   1_655 S
H1237  C1018   1.111   1_655 S
H1239  C1019   1.110   1_655 S
C1261  O1329   1.308   .     A
C1261  O1339   1.308   .     A
C1261  C1264   1.456   .     S
C1262  O1332   1.388   .     S
C1262  C1264   1.411   .     A
C1262  C1459   1.391   1_455 S
C1263  C1272   1.473   .     S
C1263  C1291   1.419   .     A
C1263  C1292   1.414   .     A
C1264  C1290   1.408   .     A
C1265  C1282   1.465   .     S
C1265  N1328   1.386   .     A
C1266  C1284   1.477   .     S
C1266  N1327   1.376   .     A
C1266  C763    1.433   1_565 S
C1267  N1328   1.384   .     A
C1267  C1285   1.473   .     S
C1268  C1286   1.485   .     S
C1268  N1327   1.372   .     A
C1268  C761    1.429   1_565 S
C1269  C1270   1.534   .     S
C1269  H1306   1.114   .     S
C1269  O1344   1.415   .     S
C1269  H1295   1.106   .     S
C1270  H1485   1.110   1_455 S
C1270  H1489   1.111   1_455 S
C1271  H1322   1.108   .     S
C1271  H1324   1.109   .     S
C1271  C2026   1.523   .     S
C1271  H1491   1.110   1_455 S
C1272  O1338   1.310   .     A
C1272  O1337   1.315   .     A
C1273  H1325   1.112   .     S
C1273  O1330   1.421   .     S
C1273  C1274   1.529   .     S
C1273  H1326   1.116   .     S
C1274  H1296   1.103   .     S
C1274  C1275   1.524   .     S
C1274  H1381   1.110   .     S
C1275  H1298   1.110   .     S
C1275  H1299   1.109   .     S
C1275  H1300   1.111   .     S
C1276  C1277   1.535   .     S
C1276  O1331   1.416   .     S
C1276  H1302   1.113   .     S
C1276  H1301   1.111   .     S
C1277  C1278   1.520   .     S
C1277  H1387   1.105   .     S
C1277  H1388   1.110   .     S
C1278  H1305   1.110   .     S
C1279  C1280   1.538   .     S
C1279  O1332   1.423   .     S
C1279  H1309   1.111   .     S
C1279  H1310   1.109   .     S
C1280  H1312   1.110   .     S
C1280  C2037   1.527   .     S
C1280  H1479   1.106   1_455 S
C1281  H1313   1.110   .     S
C1281  H1314   1.109   .     S
C1281  H1315   1.110   .     S
C1282  H1316   1.082   .     S
C1282  O1333   1.221   .     D
C1283  O1343   1.305   .     A
C1283  O1340   1.305   .     A
C1283  C1288   1.412   .     S
C1284  O1334   1.218   .     D
C1284  H1318   1.085   .     S
C1285  O1335   1.220   .     D
C1285  H1319   1.077   .     S
C1286  O1336   1.221   .     D
C1286  H1320   1.080   .     S
C1287  C1289   1.412   .     S
C1287  O1341   1.305   .     A
C1287  O1342   1.305   .     A
C1289  C2044   1.192   .     S
C1290  O1344   1.384   .     S
C1290  C1460   1.389   1_455 S
C1291  O1330   1.386   .     S
C1291  C1346   1.391   .     S
C1292  O1331   1.382   .     S
C1292  C1374   1.389   .     S
Cu1293 O1338   1.976   .     S
Cu1293 O1329   1.979   .     S
Cu1293 Cu1294  2.733   .     S
Cu1293 N1327   2.054   .     S
Cu1293 O1342   1.932   .     S
Cu1293 O1340   1.932   .     S
Cu1294 O1337   1.979   .     S
Cu1294 O1341   1.932   .     S
Cu1294 N1328   2.054   .     S
Cu1294 O1339   1.976   .     S
Cu1294 O1343   1.932   .     S
H1297  C1442   1.110   1_455 S
H1303  C1445   1.105   1_455 S
H1304  C1445   1.110   1_455 S
H1307  C942    1.109   1_465 S
H1308  C774    1.106   1_565 S
H1311  C1364   1.106   .     S
H1317  C1354   1.110   .     S
H1321  C1354   1.111   .     S
H1323  C1355   1.110   .     S
C1345  O1413   1.308   .     A
C1345  O1423   1.308   .     A
C1345  C1348   1.456   .     S
C1346  O1416   1.388   .     S
C1346  C1348   1.411   .     A
C1347  C1356   1.473   .     S
C1347  C1375   1.419   .     A
C1347  C1376   1.414   .     A
C1348  C1374   1.408   .     A
C1349  C1366   1.465   .     S
C1349  N1412   1.386   .     A
C1350  C1368   1.477   .     S
C1350  N1411   1.376   .     A
C1350  C847    1.433   1_565 S
C1351  N1412   1.384   .     A
C1351  C1369   1.473   .     S
C1352  C1370   1.485   .     S
C1352  N1411   1.372   .     A
C1352  C845    1.429   1_565 S
C1353  C1354   1.534   .     S
C1353  H1390   1.114   .     S
C1353  O1428   1.415   .     S
C1353  H1379   1.106   .     S
C1355  H1406   1.108   .     S
C1355  H1408   1.109   .     S
C1355  C2110   1.523   .     S
C1356  O1422   1.310   .     A
C1356  O1421   1.315   .     A
C1357  H1409   1.112   .     S
C1357  O1414   1.421   .     S
C1357  C1358   1.529   .     S
C1357  H1410   1.116   .     S
C1358  H1380   1.103   .     S
C1358  C1359   1.524   .     S
C1358  H1465   1.110   .     S
C1359  H1382   1.110   .     S
C1359  H1383   1.109   .     S
C1359  H1384   1.111   .     S
C1360  C1361   1.535   .     S
C1360  O1415   1.416   .     S
C1360  H1386   1.113   .     S
C1360  H1385   1.111   .     S
C1361  C1362   1.520   .     S
C1361  H1471   1.105   .     S
C1361  H1472   1.110   .     S
C1362  H1389   1.110   .     S
C1363  C1364   1.538   .     S
C1363  O1416   1.423   .     S
C1363  H1393   1.111   .     S
C1363  H1394   1.109   .     S
C1364  H1396   1.110   .     S
C1364  C2121   1.527   .     S
C1365  H1397   1.110   .     S
C1365  H1398   1.109   .     S
C1365  H1399   1.110   .     S
C1366  H1400   1.082   .     S
C1366  O1417   1.221   .     D
C1367  O1427   1.305   .     A
C1367  O1424   1.305   .     A
C1367  C1372   1.412   .     S
C1368  O1418   1.218   .     D
C1368  H1402   1.085   .     S
C1369  O1419   1.220   .     D
C1369  H1403   1.077   .     S
C1370  O1420   1.221   .     D
C1370  H1404   1.080   .     S
C1371  C1373   1.412   .     S
C1371  O1425   1.305   .     A
C1371  O1426   1.305   .     A
C1373  C2128   1.192   .     S
C1374  O1428   1.384   .     S
C1375  O1414   1.386   .     S
C1375  C1430   1.391   .     S
C1376  O1415   1.382   .     S
C1376  C1458   1.389   .     S
Cu1377 O1422   1.976   .     S
Cu1377 O1413   1.979   .     S
Cu1377 Cu1378  2.733   .     S
Cu1377 N1411   2.054   .     S
Cu1377 O1426   1.932   .     S
Cu1377 O1424   1.932   .     S
Cu1378 O1421   1.979   .     S
Cu1378 O1425   1.932   .     S
Cu1378 N1412   2.054   .     S
Cu1378 O1423   1.976   .     S
Cu1378 O1427   1.932   .     S
H1391  C774    1.109   1_565 S
H1392  C858    1.106   1_565 S
H1395  C1448   1.106   .     S
H1401  C1438   1.110   .     S
H1405  C1438   1.111   .     S
H1407  C1439   1.110   .     S
C1429  O1497   1.308   .     A
C1429  O1507   1.308   .     A
C1429  C1432   1.456   .     S
C1430  O1500   1.388   .     S
C1430  C1432   1.411   .     A
C1431  C1440   1.473   .     S
C1431  C1459   1.419   .     A
C1431  C1460   1.414   .     A
C1432  C1458   1.408   .     A
C1433  C1450   1.465   .     S
C1433  N1496   1.386   .     A
C1434  C1452   1.477   .     S
C1434  N1495   1.376   .     A
C1434  C931    1.433   1_565 S
C1435  N1496   1.384   .     A
C1435  C1453   1.473   .     S
C1436  C1454   1.485   .     S
C1436  N1495   1.372   .     A
C1436  C929    1.429   1_565 S
C1437  C1438   1.534   .     S
C1437  H1474   1.114   .     S
C1437  O1512   1.415   .     S
C1437  H1463   1.106   .     S
C1439  H1490   1.108   .     S
C1439  H1492   1.109   .     S
C1439  C2194   1.523   .     S
C1440  O1506   1.310   .     A
C1440  O1505   1.315   .     A
C1441  H1493   1.112   .     S
C1441  O1498   1.421   .     S
C1441  C1442   1.529   .     S
C1441  H1494   1.116   .     S
C1442  H1464   1.103   .     S
C1442  C1443   1.524   .     S
C1442  H1297   1.110   1_655 S
C1443  H1466   1.110   .     S
C1443  H1467   1.109   .     S
C1443  H1468   1.111   .     S
C1444  C1445   1.535   .     S
C1444  O1499   1.416   .     S
C1444  H1470   1.113   .     S
C1444  H1469   1.111   .     S
C1445  C1446   1.520   .     S
C1445  H1303   1.105   1_655 S
C1445  H1304   1.110   1_655 S
C1446  H1473   1.110   .     S
C1446  H1055   1.109   1_655 S
C1447  C1448   1.538   .     S
C1447  O1500   1.423   .     S
C1447  H1477   1.111   .     S
C1447  H1478   1.109   .     S
C1448  H1480   1.110   .     S
C1448  C2205   1.527   .     S
C1449  H1481   1.110   .     S
C1449  H1482   1.109   .     S
C1449  H1483   1.110   .     S
C1450  H1484   1.082   .     S
C1450  O1501   1.221   .     D
C1451  O1511   1.305   .     A
C1451  O1508   1.305   .     A
C1451  C1456   1.412   .     S
C1452  O1502   1.218   .     D
C1452  H1486   1.085   .     S
C1453  O1503   1.220   .     D
C1453  H1487   1.077   .     S
C1454  O1504   1.221   .     D
C1454  H1488   1.080   .     S
C1455  C1457   1.412   .     S
C1455  O1509   1.305   .     A
C1455  O1510   1.305   .     A
C1457  C2212   1.192   .     S
C1458  O1512   1.384   .     S
C1459  O1498   1.386   .     S
C1459  C1262   1.391   1_655 S
C1460  O1499   1.382   .     S
C1460  C1290   1.389   1_655 S
Cu1461 O1506   1.976   .     S
Cu1461 O1497   1.979   .     S
Cu1461 Cu1462  2.733   .     S
Cu1461 N1495   2.054   .     S
Cu1461 O1510   1.932   .     S
Cu1461 O1508   1.932   .     S
Cu1462 O1505   1.979   .     S
Cu1462 O1509   1.932   .     S
Cu1462 N1496   2.054   .     S
Cu1462 O1507   1.976   .     S
Cu1462 O1511   1.932   .     S
H1475  C858    1.109   1_565 S
H1476  C942    1.106   1_565 S
H1479  C1280   1.106   1_655 S
H1485  C1270   1.110   1_655 S
H1489  C1270   1.111   1_655 S
H1491  C1271   1.110   1_655 S
C1513  O1581   1.308   .     A
C1513  O1591   1.308   .     A
C1513  C1516   1.456   .     S
C1514  O1584   1.388   .     S
C1514  C1516   1.411   .     A
C1514  C1711   1.391   1_455 S
C1515  C1524   1.473   .     S
C1515  C1543   1.419   .     A
C1515  C1544   1.414   .     A
C1516  C1542   1.408   .     A
C1517  C1534   1.465   .     S
C1517  N1580   1.386   .     A
C1517  C2024   1.429   1_545 S
C1518  C1536   1.477   .     S
C1518  N1579   1.376   .     A
C1518  C1771   1.433   .     S
C1519  N1580   1.384   .     A
C1519  C1537   1.473   .     S
C1519  C2022   1.433   1_545 S
C1520  C1538   1.485   .     S
C1520  N1579   1.372   .     A
C1520  C1769   1.429   .     S
C1521  C1522   1.534   .     S
C1521  H1558   1.114   .     S
C1521  O1596   1.415   .     S
C1521  H1547   1.106   .     S
C1522  H1737   1.110   1_455 S
C1522  H1741   1.111   1_455 S
C1523  H1574   1.108   .     S
C1523  H1576   1.109   .     S
C1523  C10     1.523   1_556 S
C1523  H1743   1.110   1_455 S
C1524  O1590   1.310   .     A
C1524  O1589   1.315   .     A
C1525  H1577   1.112   .     S
C1525  O1582   1.421   .     S
C1525  C1526   1.529   .     S
C1525  H1578   1.116   .     S
C1526  H1548   1.103   .     S
C1526  C1527   1.524   .     S
C1526  H1633   1.110   .     S
C1527  H1550   1.110   .     S
C1527  H1551   1.109   .     S
C1527  H1552   1.111   .     S
C1528  C1529   1.535   .     S
C1528  O1583   1.416   .     S
C1528  H1554   1.113   .     S
C1528  H1553   1.111   .     S
C1529  C1530   1.520   .     S
C1529  H1639   1.105   .     S
C1529  H1640   1.110   .     S
C1530  H1557   1.110   .     S
C1530  H2147   1.109   1_545 S
C1530  H2064   1.106   1_545 S
C1531  C1532   1.538   .     S
C1531  O1584   1.423   .     S
C1531  H1561   1.111   .     S
C1531  H1562   1.109   .     S
C1532  H1564   1.110   .     S
C1532  C21     1.527   1_556 S
C1532  H1731   1.106   1_455 S
C1533  H1565   1.110   .     S
C1533  H1566   1.109   .     S
C1533  H1567   1.110   .     S
C1534  H1568   1.082   .     S
C1534  O1585   1.221   .     D
C1535  O1595   1.305   .     A
C1535  O1592   1.305   .     A
C1535  C1540   1.412   .     S
C1536  O1586   1.218   .     D
C1536  H1570   1.085   .     S
C1537  O1587   1.220   .     D
C1537  H1571   1.077   .     S
C1538  O1588   1.221   .     D
C1538  H1572   1.080   .     S
C1539  C1541   1.412   .     S
C1539  O1593   1.305   .     A
C1539  O1594   1.305   .     A
C1541  C28     1.192   1_556 S
C1542  O1596   1.384   .     S
C1542  C1712   1.389   1_455 S
C1543  O1582   1.386   .     S
C1543  C1598   1.391   .     S
C1544  O1583   1.382   .     S
C1544  C1626   1.389   .     S
Cu1545 O1590   1.976   .     S
Cu1545 O1581   1.979   .     S
Cu1545 Cu1546  2.733   .     S
Cu1545 N1579   2.054   .     S
Cu1545 O1594   1.932   .     S
Cu1545 O1592   1.932   .     S
Cu1546 O1589   1.979   .     S
Cu1546 O1593   1.932   .     S
Cu1546 N1580   2.054   .     S
Cu1546 O1591   1.976   .     S
Cu1546 O1595   1.932   .     S
H1549  C1694   1.110   1_455 S
H1555  C1697   1.105   1_455 S
H1556  C1697   1.110   1_455 S
H1559  C1950   1.109   1_455 S
H1560  C1782   1.106   .     S
H1563  C1616   1.106   .     S
H1569  C1606   1.110   .     S
H1573  C1606   1.111   .     S
H1575  C1607   1.110   .     S
C1597  O1665   1.308   .     A
C1597  O1675   1.308   .     A
C1597  C1600   1.456   .     S
C1598  O1668   1.388   .     S
C1598  C1600   1.411   .     A
C1599  C1608   1.473   .     S
C1599  C1627   1.419   .     A
C1599  C1628   1.414   .     A
C1600  C1626   1.408   .     A
C1601  C1618   1.465   .     S
C1601  N1664   1.386   .     A
C1601  C2108   1.429   1_545 S
C1602  C1620   1.477   .     S
C1602  N1663   1.376   .     A
C1602  C1855   1.433   .     S
C1603  N1664   1.384   .     A
C1603  C1621   1.473   .     S
C1603  C2106   1.433   1_545 S
C1604  C1622   1.485   .     S
C1604  N1663   1.372   .     A
C1604  C1853   1.429   .     S
C1605  C1606   1.534   .     S
C1605  H1642   1.114   .     S
C1605  O1680   1.415   .     S
C1605  H1631   1.106   .     S
C1607  H1658   1.108   .     S
C1607  H1660   1.109   .     S
C1607  C94     1.523   1_556 S
C1608  O1674   1.310   .     A
C1608  O1673   1.315   .     A
C1609  H1661   1.112   .     S
C1609  O1666   1.421   .     S
C1609  C1610   1.529   .     S
C1609  H1662   1.116   .     S
C1610  H1632   1.103   .     S
C1610  C1611   1.524   .     S
C1610  H1717   1.110   .     S
C1611  H1634   1.110   .     S
C1611  H1635   1.109   .     S
C1611  H1636   1.111   .     S
C1612  C1613   1.535   .     S
C1612  O1667   1.416   .     S
C1612  H1638   1.113   .     S
C1612  H1637   1.111   .     S
C1613  C1614   1.520   .     S
C1613  H1723   1.105   .     S
C1613  H1724   1.110   .     S
C1614  H1641   1.110   .     S
C1614  H2231   1.109   1_545 S
C1614  H2148   1.106   1_545 S
C1615  C1616   1.538   .     S
C1615  O1668   1.423   .     S
C1615  H1645   1.111   .     S
C1615  H1646   1.109   .     S
C1616  H1648   1.110   .     S
C1616  C105    1.527   1_556 S
C1617  H1649   1.110   .     S
C1617  H1650   1.109   .     S
C1617  H1651   1.110   .     S
C1618  H1652   1.082   .     S
C1618  O1669   1.221   .     D
C1619  O1679   1.305   .     A
C1619  O1676   1.305   .     A
C1619  C1624   1.412   .     S
C1620  O1670   1.218   .     D
C1620  H1654   1.085   .     S
C1621  O1671   1.220   .     D
C1621  H1655   1.077   .     S
C1622  O1672   1.221   .     D
C1622  H1656   1.080   .     S
C1623  C1625   1.412   .     S
C1623  O1677   1.305   .     A
C1623  O1678   1.305   .     A
C1625  C112    1.192   1_556 S
C1626  O1680   1.384   .     S
C1627  O1666   1.386   .     S
C1627  C1682   1.391   .     S
C1628  O1667   1.382   .     S
C1628  C1710   1.389   .     S
Cu1629 O1674   1.976   .     S
Cu1629 O1665   1.979   .     S
Cu1629 Cu1630  2.733   .     S
Cu1629 N1663   2.054   .     S
Cu1629 O1678   1.932   .     S
Cu1629 O1676   1.932   .     S
Cu1630 O1673   1.979   .     S
Cu1630 O1677   1.932   .     S
Cu1630 N1664   2.054   .     S
Cu1630 O1675   1.976   .     S
Cu1630 O1679   1.932   .     S
H1643  C1782   1.109   .     S
H1644  C1866   1.106   .     S
H1647  C1700   1.106   .     S
H1653  C1690   1.110   .     S
H1657  C1690   1.111   .     S
H1659  C1691   1.110   .     S
C1681  O1749   1.308   .     A
C1681  O1759   1.308   .     A
C1681  C1684   1.456   .     S
C1682  O1752   1.388   .     S
C1682  C1684   1.411   .     A
C1683  C1692   1.473   .     S
C1683  C1711   1.419   .     A
C1683  C1712   1.414   .     A
C1684  C1710   1.408   .     A
C1685  C1702   1.465   .     S
C1685  N1748   1.386   .     A
C1685  C2192   1.429   1_545 S
C1686  C1704   1.477   .     S
C1686  N1747   1.376   .     A
C1686  C1939   1.433   .     S
C1687  N1748   1.384   .     A
C1687  C1705   1.473   .     S
C1687  C2190   1.433   1_545 S
C1688  C1706   1.485   .     S
C1688  N1747   1.372   .     A
C1688  C1937   1.429   .     S
C1689  C1690   1.534   .     S
C1689  H1726   1.114   .     S
C1689  O1764   1.415   .     S
C1689  H1715   1.106   .     S
C1691  H1742   1.108   .     S
C1691  H1744   1.109   .     S
C1691  C178    1.523   1_556 S
C1692  O1758   1.310   .     A
C1692  O1757   1.315   .     A
C1693  H1745   1.112   .     S
C1693  O1750   1.421   .     S
C1693  C1694   1.529   .     S
C1693  H1746   1.116   .     S
C1694  H1716   1.103   .     S
C1694  C1695   1.524   .     S
C1694  H1549   1.110   1_655 S
C1695  H1718   1.110   .     S
C1695  H1719   1.109   .     S
C1695  H1720   1.111   .     S
C1696  C1697   1.535   .     S
C1696  O1751   1.416   .     S
C1696  H1722   1.113   .     S
C1696  H1721   1.111   .     S
C1697  C1698   1.520   .     S
C1697  H1555   1.105   1_655 S
C1697  H1556   1.110   1_655 S
C1698  H1725   1.110   .     S
C1698  H2063   1.109   1_645 S
C1698  H2232   1.106   1_545 S
C1699  C1700   1.538   .     S
C1699  O1752   1.423   .     S
C1699  H1729   1.111   .     S
C1699  H1730   1.109   .     S
C1700  H1732   1.110   .     S
C1700  C189    1.527   1_556 S
C1701  H1733   1.110   .     S
C1701  H1734   1.109   .     S
C1701  H1735   1.110   .     S
C1702  H1736   1.082   .     S
C1702  O1753   1.221   .     D
C1703  O1763   1.305   .     A
C1703  O1760   1.305   .     A
C1703  C1708   1.412   .     S
C1704  O1754   1.218   .     D
C1704  H1738   1.085   .     S
C1705  O1755   1.220   .     D
C1705  H1739   1.077   .     S
C1706  O1756   1.221   .     D
C1706  H1740   1.080   .     S
C1707  C1709   1.412   .     S
C1707  O1761   1.305   .     A
C1707  O1762   1.305   .     A
C1709  C196    1.192   1_556 S
C1710  O1764   1.384   .     S
C1711  O1750   1.386   .     S
C1711  C1514   1.391   1_655 S
C1712  O1751   1.382   .     S
C1712  C1542   1.389   1_655 S
Cu1713 O1758   1.976   .     S
Cu1713 O1749   1.979   .     S
Cu1713 Cu1714  2.733   .     S
Cu1713 N1747   2.054   .     S
Cu1713 O1762   1.932   .     S
Cu1713 O1760   1.932   .     S
Cu1714 O1757   1.979   .     S
Cu1714 O1761   1.932   .     S
Cu1714 N1748   2.054   .     S
Cu1714 O1759   1.976   .     S
Cu1714 O1763   1.932   .     S
H1727  C1866   1.109   .     S
H1728  C1950   1.106   .     S
H1731  C1532   1.106   1_655 S
H1737  C1522   1.110   1_655 S
H1741  C1522   1.111   1_655 S
H1743  C1523   1.110   1_655 S
C1765  O1833   1.308   .     A
C1765  O1843   1.308   .     A
C1765  C1768   1.456   .     S
C1766  O1836   1.388   .     S
C1766  C1768   1.411   .     A
C1766  C1963   1.391   1_455 S
C1767  C1776   1.473   .     S
C1767  C1795   1.419   .     A
C1767  C1796   1.414   .     A
C1768  C1794   1.408   .     A
C1769  C1786   1.465   .     S
C1769  N1832   1.386   .     A
C1770  C1788   1.477   .     S
C1770  N1831   1.376   .     A
C1770  C2023   1.433   .     S
C1771  N1832   1.384   .     A
C1771  C1789   1.473   .     S
C1772  C1790   1.485   .     S
C1772  N1831   1.372   .     A
C1772  C2021   1.429   .     S
C1773  C1774   1.534   .     S
C1773  H1810   1.114   .     S
C1773  O1848   1.415   .     S
C1773  H1799   1.106   .     S
C1774  H1989   1.110   1_455 S
C1774  H1993   1.111   1_455 S
C1775  H1826   1.108   .     S
C1775  H1828   1.109   .     S
C1775  C262    1.523   1_556 S
C1775  H1995   1.110   1_455 S
C1776  O1842   1.310   .     A
C1776  O1841   1.315   .     A
C1777  H1829   1.112   .     S
C1777  O1834   1.421   .     S
C1777  C1778   1.529   .     S
C1777  H1830   1.116   .     S
C1778  H1800   1.103   .     S
C1778  C1779   1.524   .     S
C1778  H1885   1.110   .     S
C1779  H1802   1.110   .     S
C1779  H1803   1.109   .     S
C1779  H1804   1.111   .     S
C1780  C1781   1.535   .     S
C1780  O1835   1.416   .     S
C1780  H1806   1.113   .     S
C1780  H1805   1.111   .     S
C1781  C1782   1.520   .     S
C1781  H1891   1.105   .     S
C1781  H1892   1.110   .     S
C1782  H1809   1.110   .     S
C1783  C1784   1.538   .     S
C1783  O1836   1.423   .     S
C1783  H1813   1.111   .     S
C1783  H1814   1.109   .     S
C1784  H1816   1.110   .     S
C1784  C273    1.527   1_556 S
C1784  H1983   1.106   1_455 S
C1785  H1817   1.110   .     S
C1785  H1818   1.109   .     S
C1785  H1819   1.110   .     S
C1786  H1820   1.082   .     S
C1786  O1837   1.221   .     D
C1787  O1847   1.305   .     A
C1787  O1844   1.305   .     A
C1787  C1792   1.412   .     S
C1788  O1838   1.218   .     D
C1788  H1822   1.085   .     S
C1789  O1839   1.220   .     D
C1789  H1823   1.077   .     S
C1790  O1840   1.221   .     D
C1790  H1824   1.080   .     S
C1791  C1793   1.412   .     S
C1791  O1845   1.305   .     A
C1791  O1846   1.305   .     A
C1793  C280    1.192   1_556 S
C1794  O1848   1.384   .     S
C1794  C1964   1.389   1_455 S
C1795  O1834   1.386   .     S
C1795  C1850   1.391   .     S
C1796  O1835   1.382   .     S
C1796  C1878   1.389   .     S
Cu1797 O1842   1.976   .     S
Cu1797 O1833   1.979   .     S
Cu1797 Cu1798  2.733   .     S
Cu1797 N1831   2.054   .     S
Cu1797 O1846   1.932   .     S
Cu1797 O1844   1.932   .     S
Cu1798 O1841   1.979   .     S
Cu1798 O1845   1.932   .     S
Cu1798 N1832   2.054   .     S
Cu1798 O1843   1.976   .     S
Cu1798 O1847   1.932   .     S
H1801  C1946   1.110   1_455 S
H1807  C1949   1.105   1_455 S
H1808  C1949   1.110   1_455 S
H1811  C2202   1.109   1_455 S
H1812  C2034   1.106   .     S
H1815  C1868   1.106   .     S
H1821  C1858   1.110   .     S
H1825  C1858   1.111   .     S
H1827  C1859   1.110   .     S
C1849  O1917   1.308   .     A
C1849  O1927   1.308   .     A
C1849  C1852   1.456   .     S
C1850  O1920   1.388   .     S
C1850  C1852   1.411   .     A
C1851  C1860   1.473   .     S
C1851  C1879   1.419   .     A
C1851  C1880   1.414   .     A
C1852  C1878   1.408   .     A
C1853  C1870   1.465   .     S
C1853  N1916   1.386   .     A
C1854  C1872   1.477   .     S
C1854  N1915   1.376   .     A
C1854  C2107   1.433   .     S
C1855  N1916   1.384   .     A
C1855  C1873   1.473   .     S
C1856  C1874   1.485   .     S
C1856  N1915   1.372   .     A
C1856  C2105   1.429   .     S
C1857  C1858   1.534   .     S
C1857  H1894   1.114   .     S
C1857  O1932   1.415   .     S
C1857  H1883   1.106   .     S
C1859  H1910   1.108   .     S
C1859  H1912   1.109   .     S
C1859  C346    1.523   1_556 S
C1860  O1926   1.310   .     A
C1860  O1925   1.315   .     A
C1861  H1913   1.112   .     S
C1861  O1918   1.421   .     S
C1861  C1862   1.529   .     S
C1861  H1914   1.116   .     S
C1862  H1884   1.103   .     S
C1862  C1863   1.524   .     S
C1862  H1969   1.110   .     S
C1863  H1886   1.110   .     S
C1863  H1887   1.109   .     S
C1863  H1888   1.111   .     S
C1864  C1865   1.535   .     S
C1864  O1919   1.416   .     S
C1864  H1890   1.113   .     S
C1864  H1889   1.111   .     S
C1865  C1866   1.520   .     S
C1865  H1975   1.105   .     S
C1865  H1976   1.110   .     S
C1866  H1893   1.110   .     S
C1867  C1868   1.538   .     S
C1867  O1920   1.423   .     S
C1867  H1897   1.111   .     S
C1867  H1898   1.109   .     S
C1868  H1900   1.110   .     S
C1868  C357    1.527   1_556 S
C1869  H1901   1.110   .     S
C1869  H1902   1.109   .     S
C1869  H1903   1.110   .     S
C1870  H1904   1.082   .     S
C1870  O1921   1.221   .     D
C1871  O1931   1.305   .     A
C1871  O1928   1.305   .     A
C1871  C1876   1.412   .     S
C1872  O1922   1.218   .     D
C1872  H1906   1.085   .     S
C1873  O1923   1.220   .     D
C1873  H1907   1.077   .     S
C1874  O1924   1.221   .     D
C1874  H1908   1.080   .     S
C1875  C1877   1.412   .     S
C1875  O1929   1.305   .     A
C1875  O1930   1.305   .     A
C1877  C364    1.192   1_556 S
C1878  O1932   1.384   .     S
C1879  O1918   1.386   .     S
C1879  C1934   1.391   .     S
C1880  O1919   1.382   .     S
C1880  C1962   1.389   .     S
Cu1881 O1926   1.976   .     S
Cu1881 O1917   1.979   .     S
Cu1881 Cu1882  2.733   .     S
Cu1881 N1915   2.054   .     S
Cu1881 O1930   1.932   .     S
Cu1881 O1928   1.932   .     S
Cu1882 O1925   1.979   .     S
Cu1882 O1929   1.932   .     S
Cu1882 N1916   2.054   .     S
Cu1882 O1927   1.976   .     S
Cu1882 O1931   1.932   .     S
H1895  C2034   1.109   .     S
H1896  C2118   1.106   .     S
H1899  C1952   1.106   .     S
H1905  C1942   1.110   .     S
H1909  C1942   1.111   .     S
H1911  C1943   1.110   .     S
C1933  O2001   1.308   .     A
C1933  O2011   1.308   .     A
C1933  C1936   1.456   .     S
C1934  O2004   1.388   .     S
C1934  C1936   1.411   .     A
C1935  C1944   1.473   .     S
C1935  C1963   1.419   .     A
C1935  C1964   1.414   .     A
C1936  C1962   1.408   .     A
C1937  C1954   1.465   .     S
C1937  N2000   1.386   .     A
C1938  C1956   1.477   .     S
C1938  N1999   1.376   .     A
C1938  C2191   1.433   .     S
C1939  N2000   1.384   .     A
C1939  C1957   1.473   .     S
C1940  C1958   1.485   .     S
C1940  N1999   1.372   .     A
C1940  C2189   1.429   .     S
C1941  C1942   1.534   .     S
C1941  H1978   1.114   .     S
C1941  O2016   1.415   .     S
C1941  H1967   1.106   .     S
C1943  H1994   1.108   .     S
C1943  H1996   1.109   .     S
C1943  C430    1.523   1_556 S
C1944  O2010   1.310   .     A
C1944  O2009   1.315   .     A
C1945  H1997   1.112   .     S
C1945  O2002   1.421   .     S
C1945  C1946   1.529   .     S
C1945  H1998   1.116   .     S
C1946  H1968   1.103   .     S
C1946  C1947   1.524   .     S
C1946  H1801   1.110   1_655 S
C1947  H1970   1.110   .     S
C1947  H1971   1.109   .     S
C1947  H1972   1.111   .     S
C1948  C1949   1.535   .     S
C1948  O2003   1.416   .     S
C1948  H1974   1.113   .     S
C1948  H1973   1.111   .     S
C1949  C1950   1.520   .     S
C1949  H1807   1.105   1_655 S
C1949  H1808   1.110   1_655 S
C1950  H1977   1.110   .     S
C1950  H1559   1.109   1_655 S
C1951  C1952   1.538   .     S
C1951  O2004   1.423   .     S
C1951  H1981   1.111   .     S
C1951  H1982   1.109   .     S
C1952  H1984   1.110   .     S
C1952  C441    1.527   1_556 S
C1953  H1985   1.110   .     S
C1953  H1986   1.109   .     S
C1953  H1987   1.110   .     S
C1954  H1988   1.082   .     S
C1954  O2005   1.221   .     D
C1955  O2015   1.305   .     A
C1955  O2012   1.305   .     A
C1955  C1960   1.412   .     S
C1956  O2006   1.218   .     D
C1956  H1990   1.085   .     S
C1957  O2007   1.220   .     D
C1957  H1991   1.077   .     S
C1958  O2008   1.221   .     D
C1958  H1992   1.080   .     S
C1959  C1961   1.412   .     S
C1959  O2013   1.305   .     A
C1959  O2014   1.305   .     A
C1961  C448    1.192   1_556 S
C1962  O2016   1.384   .     S
C1963  O2002   1.386   .     S
C1963  C1766   1.391   1_655 S
C1964  O2003   1.382   .     S
C1964  C1794   1.389   1_655 S
Cu1965 O2010   1.976   .     S
Cu1965 O2001   1.979   .     S
Cu1965 Cu1966  2.733   .     S
Cu1965 N1999   2.054   .     S
Cu1965 O2014   1.932   .     S
Cu1965 O2012   1.932   .     S
Cu1966 O2009   1.979   .     S
Cu1966 O2013   1.932   .     S
Cu1966 N2000   2.054   .     S
Cu1966 O2011   1.976   .     S
Cu1966 O2015   1.932   .     S
H1979  C2118   1.109   .     S
H1980  C2202   1.106   .     S
H1983  C1784   1.106   1_655 S
H1989  C1774   1.110   1_655 S
H1993  C1774   1.111   1_655 S
H1995  C1775   1.110   1_655 S
C2017  O2085   1.308   .     A
C2017  O2095   1.308   .     A
C2017  C2020   1.456   .     S
C2018  O2088   1.388   .     S
C2018  C2020   1.411   .     A
C2018  C2215   1.391   1_455 S
C2019  C2028   1.473   .     S
C2019  C2047   1.419   .     A
C2019  C2048   1.414   .     A
C2020  C2046   1.408   .     A
C2021  C2038   1.465   .     S
C2021  N2084   1.386   .     A
C2022  C2040   1.477   .     S
C2022  N2083   1.376   .     A
C2022  C1519   1.433   1_565 S
C2023  N2084   1.384   .     A
C2023  C2041   1.473   .     S
C2024  C2042   1.485   .     S
C2024  N2083   1.372   .     A
C2024  C1517   1.429   1_565 S
C2025  C2026   1.534   .     S
C2025  H2062   1.114   .     S
C2025  O2100   1.415   .     S
C2025  H2051   1.106   .     S
C2026  H2241   1.110   1_455 S
C2026  H2245   1.111   1_455 S
C2027  H2078   1.108   .     S
C2027  H2080   1.109   .     S
C2027  C514    1.523   1_556 S
C2027  H2247   1.110   1_455 S
C2028  O2094   1.310   .     A
C2028  O2093   1.315   .     A
C2029  H2081   1.112   .     S
C2029  O2086   1.421   .     S
C2029  C2030   1.529   .     S
C2029  H2082   1.116   .     S
C2030  H2052   1.103   .     S
C2030  C2031   1.524   .     S
C2030  H2137   1.110   .     S
C2031  H2054   1.110   .     S
C2031  H2055   1.109   .     S
C2031  H2056   1.111   .     S
C2032  C2033   1.535   .     S
C2032  O2087   1.416   .     S
C2032  H2058   1.113   .     S
C2032  H2057   1.111   .     S
C2033  C2034   1.520   .     S
C2033  H2143   1.105   .     S
C2033  H2144   1.110   .     S
C2034  H2061   1.110   .     S
C2035  C2036   1.538   .     S
C2035  O2088   1.423   .     S
C2035  H2065   1.111   .     S
C2035  H2066   1.109   .     S
C2036  H2068   1.110   .     S
C2036  C525    1.527   1_556 S
C2036  H2235   1.106   1_455 S
C2037  H2069   1.110   .     S
C2037  H2070   1.109   .     S
C2037  H2071   1.110   .     S
C2038  H2072   1.082   .     S
C2038  O2089   1.221   .     D
C2039  O2099   1.305   .     A
C2039  O2096   1.305   .     A
C2039  C2044   1.412   .     S
C2040  O2090   1.218   .     D
C2040  H2074   1.085   .     S
C2041  O2091   1.220   .     D
C2041  H2075   1.077   .     S
C2042  O2092   1.221   .     D
C2042  H2076   1.080   .     S
C2043  C2045   1.412   .     S
C2043  O2097   1.305   .     A
C2043  O2098   1.305   .     A
C2045  C532    1.192   1_556 S
C2046  O2100   1.384   .     S
C2046  C2216   1.389   1_455 S
C2047  O2086   1.386   .     S
C2047  C2102   1.391   .     S
C2048  O2087   1.382   .     S
C2048  C2130   1.389   .     S
Cu2049 O2094   1.976   .     S
Cu2049 O2085   1.979   .     S
Cu2049 Cu2050  2.733   .     S
Cu2049 N2083   2.054   .     S
Cu2049 O2098   1.932   .     S
Cu2049 O2096   1.932   .     S
Cu2050 O2093   1.979   .     S
Cu2050 O2097   1.932   .     S
Cu2050 N2084   2.054   .     S
Cu2050 O2095   1.976   .     S
Cu2050 O2099   1.932   .     S
H2053  C2198   1.110   1_455 S
H2059  C2201   1.105   1_455 S
H2060  C2201   1.110   1_455 S
H2063  C1698   1.109   1_465 S
H2064  C1530   1.106   1_565 S
H2067  C2120   1.106   .     S
H2073  C2110   1.110   .     S
H2077  C2110   1.111   .     S
H2079  C2111   1.110   .     S
C2101  O2169   1.308   .     A
C2101  O2179   1.308   .     A
C2101  C2104   1.456   .     S
C2102  O2172   1.388   .     S
C2102  C2104   1.411   .     A
C2103  C2112   1.473   .     S
C2103  C2131   1.419   .     A
C2103  C2132   1.414   .     A
C2104  C2130   1.408   .     A
C2105  C2122   1.465   .     S
C2105  N2168   1.386   .     A
C2106  C2124   1.477   .     S
C2106  N2167   1.376   .     A
C2106  C1603   1.433   1_565 S
C2107  N2168   1.384   .     A
C2107  C2125   1.473   .     S
C2108  C2126   1.485   .     S
C2108  N2167   1.372   .     A
C2108  C1601   1.429   1_565 S
C2109  C2110   1.534   .     S
C2109  H2146   1.114   .     S
C2109  O2184   1.415   .     S
C2109  H2135   1.106   .     S
C2111  H2162   1.108   .     S
C2111  H2164   1.109   .     S
C2111  C598    1.523   1_556 S
C2112  O2178   1.310   .     A
C2112  O2177   1.315   .     A
C2113  H2165   1.112   .     S
C2113  O2170   1.421   .     S
C2113  C2114   1.529   .     S
C2113  H2166   1.116   .     S
C2114  H2136   1.103   .     S
C2114  C2115   1.524   .     S
C2114  H2221   1.110   .     S
C2115  H2138   1.110   .     S
C2115  H2139   1.109   .     S
C2115  H2140   1.111   .     S
C2116  C2117   1.535   .     S
C2116  O2171   1.416   .     S
C2116  H2142   1.113   .     S
C2116  H2141   1.111   .     S
C2117  C2118   1.520   .     S
C2117  H2227   1.105   .     S
C2117  H2228   1.110   .     S
C2118  H2145   1.110   .     S
C2119  C2120   1.538   .     S
C2119  O2172   1.423   .     S
C2119  H2149   1.111   .     S
C2119  H2150   1.109   .     S
C2120  H2152   1.110   .     S
C2120  C609    1.527   1_556 S
C2121  H2153   1.110   .     S
C2121  H2154   1.109   .     S
C2121  H2155   1.110   .     S
C2122  H2156   1.082   .     S
C2122  O2173   1.221   .     D
C2123  O2183   1.305   .     A
C2123  O2180   1.305   .     A
C2123  C2128   1.412   .     S
C2124  O2174   1.218   .     D
C2124  H2158   1.085   .     S
C2125  O2175   1.220   .     D
C2125  H2159   1.077   .     S
C2126  O2176   1.221   .     D
C2126  H2160   1.080   .     S
C2127  C2129   1.412   .     S
C2127  O2181   1.305   .     A
C2127  O2182   1.305   .     A
C2129  C616    1.192   1_556 S
C2130  O2184   1.384   .     S
C2131  O2170   1.386   .     S
C2131  C2186   1.391   .     S
C2132  O2171   1.382   .     S
C2132  C2214   1.389   .     S
Cu2133 O2178   1.976   .     S
Cu2133 O2169   1.979   .     S
Cu2133 Cu2134  2.733   .     S
Cu2133 N2167   2.054   .     S
Cu2133 O2182   1.932   .     S
Cu2133 O2180   1.932   .     S
Cu2134 O2177   1.979   .     S
Cu2134 O2181   1.932   .     S
Cu2134 N2168   2.054   .     S
Cu2134 O2179   1.976   .     S
Cu2134 O2183   1.932   .     S
H2147  C1530   1.109   1_565 S
H2148  C1614   1.106   1_565 S
H2151  C2204   1.106   .     S
H2157  C2194   1.110   .     S
H2161  C2194   1.111   .     S
H2163  C2195   1.110   .     S
C2185  O2253   1.308   .     A
C2185  O2263   1.308   .     A
C2185  C2188   1.456   .     S
C2186  O2256   1.388   .     S
C2186  C2188   1.411   .     A
C2187  C2196   1.473   .     S
C2187  C2215   1.419   .     A
C2187  C2216   1.414   .     A
C2188  C2214   1.408   .     A
C2189  C2206   1.465   .     S
C2189  N2252   1.386   .     A
C2190  C2208   1.477   .     S
C2190  N2251   1.376   .     A
C2190  C1687   1.433   1_565 S
C2191  N2252   1.384   .     A
C2191  C2209   1.473   .     S
C2192  C2210   1.485   .     S
C2192  N2251   1.372   .     A
C2192  C1685   1.429   1_565 S
C2193  C2194   1.534   .     S
C2193  H2230   1.114   .     S
C2193  O2268   1.415   .     S
C2193  H2219   1.106   .     S
C2195  H2246   1.108   .     S
C2195  H2248   1.109   .     S
C2195  C682    1.523   1_556 S
C2196  O2262   1.310   .     A
C2196  O2261   1.315   .     A
C2197  H2249   1.112   .     S
C2197  O2254   1.421   .     S
C2197  C2198   1.529   .     S
C2197  H2250   1.116   .     S
C2198  H2220   1.103   .     S
C2198  C2199   1.524   .     S
C2198  H2053   1.110   1_655 S
C2199  H2222   1.110   .     S
C2199  H2223   1.109   .     S
C2199  H2224   1.111   .     S
C2200  C2201   1.535   .     S
C2200  O2255   1.416   .     S
C2200  H2226   1.113   .     S
C2200  H2225   1.111   .     S
C2201  C2202   1.520   .     S
C2201  H2059   1.105   1_655 S
C2201  H2060   1.110   1_655 S
C2202  H2229   1.110   .     S
C2202  H1811   1.109   1_655 S
C2203  C2204   1.538   .     S
C2203  O2256   1.423   .     S
C2203  H2233   1.111   .     S
C2203  H2234   1.109   .     S
C2204  H2236   1.110   .     S
C2204  C693    1.527   1_556 S
C2205  H2237   1.110   .     S
C2205  H2238   1.109   .     S
C2205  H2239   1.110   .     S
C2206  H2240   1.082   .     S
C2206  O2257   1.221   .     D
C2207  O2267   1.305   .     A
C2207  O2264   1.305   .     A
C2207  C2212   1.412   .     S
C2208  O2258   1.218   .     D
C2208  H2242   1.085   .     S
C2209  O2259   1.220   .     D
C2209  H2243   1.077   .     S
C2210  O2260   1.221   .     D
C2210  H2244   1.080   .     S
C2211  C2213   1.412   .     S
C2211  O2265   1.305   .     A
C2211  O2266   1.305   .     A
C2213  C700    1.192   1_556 S
C2214  O2268   1.384   .     S
C2215  O2254   1.386   .     S
C2215  C2018   1.391   1_655 S
C2216  O2255   1.382   .     S
C2216  C2046   1.389   1_655 S
Cu2217 O2262   1.976   .     S
Cu2217 O2253   1.979   .     S
Cu2217 Cu2218  2.733   .     S
Cu2217 N2251   2.054   .     S
Cu2217 O2266   1.932   .     S
Cu2217 O2264   1.932   .     S
Cu2218 O2261   1.979   .     S
Cu2218 O2265   1.932   .     S
Cu2218 N2252   2.054   .     S
Cu2218 O2263   1.976   .     S
Cu2218 O2267   1.932   .     S
H2231  C1614   1.109   1_565 S
H2232  C1698   1.106   1_565 S
H2235  C2036   1.106   1_655 S
H2241  C2026   1.110   1_655 S
H2245  C2026   1.111   1_655 S
H2247  C2027   1.110   1_655 S
