data_str_m2_o10_o16_pcu_sym.194
_audit_creation_date              2020-01-03
_audit_creation_method            'Materials Studio'
_symmetry_space_group_name_H-M    'P1'
_symmetry_Int_Tables_number       1
_symmetry_cell_setting            triclinic
loop_
_symmetry_equiv_pos_as_xyz
  x,y,z
_cell_length_a                    22.3581
_cell_length_b                    26.0760
_cell_length_c                    26.7594
_cell_angle_alpha                 94.5465
_cell_angle_beta                  77.8006
_cell_angle_gamma                 102.8392
loop_
_atom_site_label
_atom_site_type_symbol
_atom_site_fract_x
_atom_site_fract_y
_atom_site_fract_z
_atom_site_U_iso_or_equiv
_atom_site_adp_type
_atom_site_occupancy
C1     C     0.18071   0.26666   0.25443   0.00000  Uiso   1.00
C2     C     0.13954   0.17115   0.48796   0.00000  Uiso   1.00
C3     C     0.15518   0.18590   0.43623   0.00000  Uiso   1.00
C4     C     0.18633   0.18454   0.01829   0.00000  Uiso   1.00
C5     C     0.24489   0.21752   0.49863   0.00000  Uiso   1.00
C6     C     0.25648   0.23679   0.44968   0.00000  Uiso   1.00
C7     C     0.21218   0.22166   0.41908   0.00000  Uiso   1.00
C8     C     0.17704   0.16521   0.06731   0.00000  Uiso   1.00
C9     C     0.27882   0.21539   0.07893   0.00000  Uiso   1.00
C10    C     0.11289   0.16515   0.40325   0.00000  Uiso   1.00
C11    C     0.18597   0.32265   0.26288   0.00000  Uiso   1.00
C12    C     0.13338   0.16596   0.34719   0.00000  Uiso   1.00
C13    C     0.14580   0.01088   0.24544   0.00000  Uiso   1.00
C14    C     0.15169   0.06668   0.24883   0.00000  Uiso   1.00
C15    C     0.20051   0.17121   0.15307   0.00000  Uiso   1.00
C16    C     0.29100   0.23162   0.02845   0.00000  Uiso   1.00
C17    C     0.22104   0.18207   0.09843   0.00000  Uiso   1.00
C18    C     0.05209   0.13811   0.42381   0.00000  Uiso   1.00
C19    C     0.03411   0.12794   0.47569   0.00000  Uiso   1.00
C20    C     0.07746   0.14445   0.00760   0.00000  Uiso   1.00
Cu21   Cu    0.10710   0.16105   0.24436   0.00000  Uiso   1.00
Cu22   Cu    0.22623   0.17228   0.25565   0.00000  Uiso   1.00
H23    H     0.11110   0.32125   0.22491   0.00000  Uiso   1.00
H24    H     0.00543   0.21062   0.28505   0.00000  Uiso   1.00
H25    H     0.30014   0.26356   0.43483   0.00000  Uiso   1.00
H26    H     0.00268   0.25629   0.01305   0.00000  Uiso   1.00
H27    H     0.13535   0.13696   0.08254   0.00000  Uiso   1.00
H28    H     0.01873   0.12322   0.39931   0.00000  Uiso   1.00
H29    H     0.06049   0.13758   0.04777   0.00000  Uiso   1.00
H30    H     0.22272   0.23962   0.38234   0.00000  Uiso   1.00
N31    N     0.31574   0.18074   0.26416   0.00000  Uiso   1.00
N32    N     0.01759   0.15259   0.23584   0.00000  Uiso   1.00
O33    O     0.12797   0.23807   0.24633   0.00000  Uiso   1.00
O34    O     0.22858   0.24755   0.25587   0.00000  Uiso   1.00
O35    O     0.09181   0.15960   0.31840   0.00000  Uiso   1.00
O36    O     0.19242   0.16908   0.32793   0.00000  Uiso   1.00
O37    O     0.10476   0.08578   0.24414   0.00000  Uiso   1.00
O38    O     0.20536   0.09526   0.25367   0.00000  Uiso   1.00
O39    O     0.14092   0.16425   0.17207   0.00000  Uiso   1.00
O40    O     0.24152   0.17373   0.18161   0.00000  Uiso   1.00
O41    O     0.32386   0.23084   0.10861   0.00000  Uiso   1.00
C42    C     0.32568   0.28384   0.12500   0.00000  Uiso   1.00
H43    H     0.27877   0.28997   0.14536   0.00000  Uiso   1.00
H44    H     0.02442   0.29458   0.15241   0.00000  Uiso   1.00
H45    H     0.01103   0.31062   0.09239   0.00000  Uiso   1.00
O46    O     0.31909   0.11076   0.21280   0.00000  Uiso   1.00
C47    C     0.02026   0.10351   0.16358   0.00000  Uiso   1.00
H48    H     0.05916   0.08406   0.16494   0.00000  Uiso   1.00
H49    H     0.03666   0.14112   0.14308   0.00000  Uiso   1.00
H50    H     0.32227   0.07661   0.14129   0.00000  Uiso   1.00
O51    O     0.30619   0.10361   0.49511   0.00000  Uiso   1.00
C52    C     0.30475   0.05238   0.00945   0.00000  Uiso   1.00
H53    H     0.32634   0.05338   0.04340   0.00000  Uiso   1.00
H54    H     0.32793   0.02935   0.47720   0.00000  Uiso   1.00
H55    H     0.25517   0.03143   0.02020   0.00000  Uiso   1.00
O56    O     0.22172   0.01789   0.29683   0.00000  Uiso   1.00
C57    C     0.28525   0.01437   0.28280   0.00000  Uiso   1.00
H58    H     0.30173   0.01001   0.24067   0.00000  Uiso   1.00
H59    H     0.29366   0.31509   0.30285   0.00000  Uiso   1.00
H60    H     0.31407   0.05120   0.29602   0.00000  Uiso   1.00
C61    C     0.51404   0.26666   0.25443   0.00000  Uiso   1.00
C62    C     0.47287   0.17115   0.48796   0.00000  Uiso   1.00
C63    C     0.48851   0.18590   0.43623   0.00000  Uiso   1.00
C64    C     0.51966   0.18454   0.01829   0.00000  Uiso   1.00
C65    C     0.57822   0.21752   0.49863   0.00000  Uiso   1.00
C66    C     0.58981   0.23679   0.44968   0.00000  Uiso   1.00
C67    C     0.54552   0.22166   0.41908   0.00000  Uiso   1.00
C68    C     0.51037   0.16521   0.06731   0.00000  Uiso   1.00
C69    C     0.61215   0.21539   0.07893   0.00000  Uiso   1.00
C70    C     0.44622   0.16515   0.40325   0.00000  Uiso   1.00
C71    C     0.51931   0.32265   0.26288   0.00000  Uiso   1.00
C72    C     0.46671   0.16596   0.34719   0.00000  Uiso   1.00
C73    C     0.47913   0.01088   0.24544   0.00000  Uiso   1.00
C74    C     0.48502   0.06668   0.24883   0.00000  Uiso   1.00
C75    C     0.53384   0.17121   0.15307   0.00000  Uiso   1.00
C76    C     0.62434   0.23162   0.02845   0.00000  Uiso   1.00
C77    C     0.55438   0.18207   0.09843   0.00000  Uiso   1.00
C78    C     0.38542   0.13811   0.42381   0.00000  Uiso   1.00
C79    C     0.36745   0.12794   0.47569   0.00000  Uiso   1.00
C80    C     0.41079   0.14445   0.00760   0.00000  Uiso   1.00
Cu81   Cu    0.44043   0.16105   0.24436   0.00000  Uiso   1.00
Cu82   Cu    0.55957   0.17228   0.25565   0.00000  Uiso   1.00
H83    H     0.44443   0.32125   0.22491   0.00000  Uiso   1.00
H84    H     0.33877   0.21062   0.28505   0.00000  Uiso   1.00
H85    H     0.63347   0.26356   0.43483   0.00000  Uiso   1.00
H86    H     0.33602   0.25629   0.01305   0.00000  Uiso   1.00
H87    H     0.46869   0.13696   0.08254   0.00000  Uiso   1.00
H88    H     0.35206   0.12322   0.39931   0.00000  Uiso   1.00
H89    H     0.39383   0.13758   0.04777   0.00000  Uiso   1.00
H90    H     0.55605   0.23962   0.38234   0.00000  Uiso   1.00
N91    N     0.64908   0.18074   0.26416   0.00000  Uiso   1.00
N92    N     0.35092   0.15259   0.23584   0.00000  Uiso   1.00
O93    O     0.46131   0.23807   0.24633   0.00000  Uiso   1.00
O94    O     0.56191   0.24755   0.25587   0.00000  Uiso   1.00
O95    O     0.42515   0.15960   0.31840   0.00000  Uiso   1.00
O96    O     0.52575   0.16908   0.32793   0.00000  Uiso   1.00
O97    O     0.43809   0.08578   0.24414   0.00000  Uiso   1.00
O98    O     0.53869   0.09526   0.25367   0.00000  Uiso   1.00
O99    O     0.47425   0.16425   0.17207   0.00000  Uiso   1.00
O100   O     0.57485   0.17373   0.18161   0.00000  Uiso   1.00
O101   O     0.65719   0.23084   0.10861   0.00000  Uiso   1.00
C102   C     0.65901   0.28384   0.12500   0.00000  Uiso   1.00
H103   H     0.61210   0.28997   0.14536   0.00000  Uiso   1.00
H104   H     0.35775   0.29458   0.15241   0.00000  Uiso   1.00
H105   H     0.34436   0.31062   0.09239   0.00000  Uiso   1.00
O106   O     0.65242   0.11076   0.21280   0.00000  Uiso   1.00
C107   C     0.35359   0.10351   0.16358   0.00000  Uiso   1.00
H108   H     0.39250   0.08406   0.16494   0.00000  Uiso   1.00
H109   H     0.36999   0.14112   0.14308   0.00000  Uiso   1.00
H110   H     0.65560   0.07661   0.14129   0.00000  Uiso   1.00
O111   O     0.63952   0.10361   0.49511   0.00000  Uiso   1.00
C112   C     0.63808   0.05238   0.00945   0.00000  Uiso   1.00
H113   H     0.65968   0.05338   0.04340   0.00000  Uiso   1.00
H114   H     0.66126   0.02935   0.47720   0.00000  Uiso   1.00
H115   H     0.58850   0.03143   0.02020   0.00000  Uiso   1.00
O116   O     0.55506   0.01789   0.29683   0.00000  Uiso   1.00
C117   C     0.61858   0.01437   0.28280   0.00000  Uiso   1.00
H118   H     0.63506   0.01001   0.24067   0.00000  Uiso   1.00
H119   H     0.62699   0.31509   0.30285   0.00000  Uiso   1.00
H120   H     0.64741   0.05120   0.29602   0.00000  Uiso   1.00
C121   C     0.84738   0.26666   0.25443   0.00000  Uiso   1.00
C122   C     0.80620   0.17115   0.48796   0.00000  Uiso   1.00
C123   C     0.82184   0.18590   0.43623   0.00000  Uiso   1.00
C124   C     0.85300   0.18454   0.01829   0.00000  Uiso   1.00
C125   C     0.91156   0.21752   0.49863   0.00000  Uiso   1.00
C126   C     0.92315   0.23679   0.44968   0.00000  Uiso   1.00
C127   C     0.87885   0.22166   0.41908   0.00000  Uiso   1.00
C128   C     0.84370   0.16521   0.06731   0.00000  Uiso   1.00
C129   C     0.94548   0.21539   0.07893   0.00000  Uiso   1.00
C130   C     0.77956   0.16515   0.40325   0.00000  Uiso   1.00
C131   C     0.85264   0.32265   0.26288   0.00000  Uiso   1.00
C132   C     0.80004   0.16596   0.34719   0.00000  Uiso   1.00
C133   C     0.81246   0.01088   0.24544   0.00000  Uiso   1.00
C134   C     0.81835   0.06668   0.24883   0.00000  Uiso   1.00
C135   C     0.86718   0.17121   0.15307   0.00000  Uiso   1.00
C136   C     0.95767   0.23162   0.02845   0.00000  Uiso   1.00
C137   C     0.88771   0.18207   0.09843   0.00000  Uiso   1.00
C138   C     0.71875   0.13811   0.42381   0.00000  Uiso   1.00
C139   C     0.70078   0.12794   0.47569   0.00000  Uiso   1.00
C140   C     0.74412   0.14445   0.00760   0.00000  Uiso   1.00
Cu141  Cu    0.77377   0.16105   0.24436   0.00000  Uiso   1.00
Cu142  Cu    0.89290   0.17228   0.25565   0.00000  Uiso   1.00
H143   H     0.77776   0.32125   0.22491   0.00000  Uiso   1.00
H144   H     0.67210   0.21062   0.28505   0.00000  Uiso   1.00
H145   H     0.96681   0.26356   0.43483   0.00000  Uiso   1.00
H146   H     0.66935   0.25629   0.01305   0.00000  Uiso   1.00
H147   H     0.80202   0.13696   0.08254   0.00000  Uiso   1.00
H148   H     0.68539   0.12322   0.39931   0.00000  Uiso   1.00
H149   H     0.72716   0.13758   0.04777   0.00000  Uiso   1.00
H150   H     0.88938   0.23962   0.38234   0.00000  Uiso   1.00
N151   N     0.98241   0.18074   0.26416   0.00000  Uiso   1.00
N152   N     0.68426   0.15259   0.23584   0.00000  Uiso   1.00
O153   O     0.79464   0.23807   0.24633   0.00000  Uiso   1.00
O154   O     0.89524   0.24755   0.25587   0.00000  Uiso   1.00
O155   O     0.75848   0.15960   0.31840   0.00000  Uiso   1.00
O156   O     0.85908   0.16908   0.32793   0.00000  Uiso   1.00
O157   O     0.77142   0.08578   0.24414   0.00000  Uiso   1.00
O158   O     0.87203   0.09526   0.25367   0.00000  Uiso   1.00
O159   O     0.80758   0.16425   0.17207   0.00000  Uiso   1.00
O160   O     0.90819   0.17373   0.18161   0.00000  Uiso   1.00
O161   O     0.99053   0.23084   0.10861   0.00000  Uiso   1.00
C162   C     0.99235   0.28384   0.12500   0.00000  Uiso   1.00
H163   H     0.94543   0.28997   0.14536   0.00000  Uiso   1.00
H164   H     0.69108   0.29458   0.15241   0.00000  Uiso   1.00
H165   H     0.67769   0.31062   0.09239   0.00000  Uiso   1.00
O166   O     0.98575   0.11076   0.21280   0.00000  Uiso   1.00
C167   C     0.68692   0.10351   0.16358   0.00000  Uiso   1.00
H168   H     0.72583   0.08406   0.16494   0.00000  Uiso   1.00
H169   H     0.70333   0.14112   0.14308   0.00000  Uiso   1.00
H170   H     0.98894   0.07661   0.14129   0.00000  Uiso   1.00
O171   O     0.97285   0.10361   0.49511   0.00000  Uiso   1.00
C172   C     0.97141   0.05238   0.00945   0.00000  Uiso   1.00
H173   H     0.99301   0.05338   0.04340   0.00000  Uiso   1.00
H174   H     0.99459   0.02935   0.47720   0.00000  Uiso   1.00
H175   H     0.92184   0.03143   0.02020   0.00000  Uiso   1.00
O176   O     0.88839   0.01789   0.29683   0.00000  Uiso   1.00
C177   C     0.95191   0.01437   0.28280   0.00000  Uiso   1.00
H178   H     0.96839   0.01001   0.24067   0.00000  Uiso   1.00
H179   H     0.96032   0.31509   0.30285   0.00000  Uiso   1.00
H180   H     0.98074   0.05120   0.29602   0.00000  Uiso   1.00
C181   C     0.18071   0.59999   0.25443   0.00000  Uiso   1.00
C182   C     0.13954   0.50448   0.48796   0.00000  Uiso   1.00
C183   C     0.15518   0.51923   0.43623   0.00000  Uiso   1.00
C184   C     0.18633   0.51787   0.01829   0.00000  Uiso   1.00
C185   C     0.24489   0.55086   0.49863   0.00000  Uiso   1.00
C186   C     0.25648   0.57012   0.44968   0.00000  Uiso   1.00
C187   C     0.21218   0.55499   0.41908   0.00000  Uiso   1.00
C188   C     0.17704   0.49855   0.06731   0.00000  Uiso   1.00
C189   C     0.27882   0.54872   0.07893   0.00000  Uiso   1.00
C190   C     0.11289   0.49848   0.40325   0.00000  Uiso   1.00
C191   C     0.18597   0.65598   0.26288   0.00000  Uiso   1.00
C192   C     0.13338   0.49929   0.34719   0.00000  Uiso   1.00
C193   C     0.14580   0.34421   0.24544   0.00000  Uiso   1.00
C194   C     0.15169   0.40001   0.24883   0.00000  Uiso   1.00
C195   C     0.20051   0.50454   0.15307   0.00000  Uiso   1.00
C196   C     0.29100   0.56495   0.02845   0.00000  Uiso   1.00
C197   C     0.22104   0.51540   0.09843   0.00000  Uiso   1.00
C198   C     0.05209   0.47144   0.42381   0.00000  Uiso   1.00
C199   C     0.03411   0.46127   0.47569   0.00000  Uiso   1.00
C200   C     0.07746   0.47779   0.00760   0.00000  Uiso   1.00
Cu201  Cu    0.10710   0.49439   0.24436   0.00000  Uiso   1.00
Cu202  Cu    0.22623   0.50561   0.25565   0.00000  Uiso   1.00
H203   H     0.11110   0.65458   0.22491   0.00000  Uiso   1.00
H204   H     0.00543   0.54395   0.28505   0.00000  Uiso   1.00
H205   H     0.30014   0.59690   0.43483   0.00000  Uiso   1.00
H206   H     0.00268   0.58962   0.01305   0.00000  Uiso   1.00
H207   H     0.13535   0.47030   0.08254   0.00000  Uiso   1.00
H208   H     0.01873   0.45655   0.39931   0.00000  Uiso   1.00
H209   H     0.06049   0.47091   0.04777   0.00000  Uiso   1.00
H210   H     0.22272   0.57296   0.38234   0.00000  Uiso   1.00
N211   N     0.31574   0.51407   0.26416   0.00000  Uiso   1.00
N212   N     0.01759   0.48593   0.23584   0.00000  Uiso   1.00
O213   O     0.12797   0.57141   0.24633   0.00000  Uiso   1.00
O214   O     0.22858   0.58089   0.25587   0.00000  Uiso   1.00
O215   O     0.09181   0.49293   0.31840   0.00000  Uiso   1.00
O216   O     0.19242   0.50241   0.32793   0.00000  Uiso   1.00
O217   O     0.10476   0.41911   0.24414   0.00000  Uiso   1.00
O218   O     0.20536   0.42859   0.25367   0.00000  Uiso   1.00
O219   O     0.14092   0.49759   0.17207   0.00000  Uiso   1.00
O220   O     0.24152   0.50707   0.18161   0.00000  Uiso   1.00
O221   O     0.32386   0.56417   0.10861   0.00000  Uiso   1.00
C222   C     0.32568   0.61717   0.12500   0.00000  Uiso   1.00
H223   H     0.27877   0.62330   0.14536   0.00000  Uiso   1.00
H224   H     0.02442   0.62791   0.15241   0.00000  Uiso   1.00
H225   H     0.01103   0.64396   0.09239   0.00000  Uiso   1.00
O226   O     0.31909   0.44409   0.21280   0.00000  Uiso   1.00
C227   C     0.02026   0.43684   0.16358   0.00000  Uiso   1.00
H228   H     0.05916   0.41739   0.16494   0.00000  Uiso   1.00
H229   H     0.03666   0.47446   0.14308   0.00000  Uiso   1.00
H230   H     0.32227   0.40994   0.14129   0.00000  Uiso   1.00
O231   O     0.30619   0.43695   0.49511   0.00000  Uiso   1.00
C232   C     0.30475   0.38571   0.00945   0.00000  Uiso   1.00
H233   H     0.32634   0.38671   0.04340   0.00000  Uiso   1.00
H234   H     0.32793   0.36268   0.47720   0.00000  Uiso   1.00
H235   H     0.25517   0.36477   0.02020   0.00000  Uiso   1.00
O236   O     0.22172   0.35122   0.29683   0.00000  Uiso   1.00
C237   C     0.28525   0.34771   0.28280   0.00000  Uiso   1.00
H238   H     0.30173   0.34335   0.24067   0.00000  Uiso   1.00
H239   H     0.29366   0.64842   0.30285   0.00000  Uiso   1.00
H240   H     0.31407   0.38453   0.29602   0.00000  Uiso   1.00
C241   C     0.51404   0.59999   0.25443   0.00000  Uiso   1.00
C242   C     0.47287   0.50448   0.48796   0.00000  Uiso   1.00
C243   C     0.48851   0.51923   0.43623   0.00000  Uiso   1.00
C244   C     0.51966   0.51787   0.01829   0.00000  Uiso   1.00
C245   C     0.57822   0.55086   0.49863   0.00000  Uiso   1.00
C246   C     0.58981   0.57012   0.44968   0.00000  Uiso   1.00
C247   C     0.54552   0.55499   0.41908   0.00000  Uiso   1.00
C248   C     0.51037   0.49855   0.06731   0.00000  Uiso   1.00
C249   C     0.61215   0.54872   0.07893   0.00000  Uiso   1.00
C250   C     0.44622   0.49848   0.40325   0.00000  Uiso   1.00
C251   C     0.51931   0.65598   0.26288   0.00000  Uiso   1.00
C252   C     0.46671   0.49929   0.34719   0.00000  Uiso   1.00
C253   C     0.47913   0.34421   0.24544   0.00000  Uiso   1.00
C254   C     0.48502   0.40001   0.24883   0.00000  Uiso   1.00
C255   C     0.53384   0.50454   0.15307   0.00000  Uiso   1.00
C256   C     0.62434   0.56495   0.02845   0.00000  Uiso   1.00
C257   C     0.55438   0.51540   0.09843   0.00000  Uiso   1.00
C258   C     0.38542   0.47144   0.42381   0.00000  Uiso   1.00
C259   C     0.36745   0.46127   0.47569   0.00000  Uiso   1.00
C260   C     0.41079   0.47779   0.00760   0.00000  Uiso   1.00
Cu261  Cu    0.44043   0.49439   0.24436   0.00000  Uiso   1.00
Cu262  Cu    0.55957   0.50561   0.25565   0.00000  Uiso   1.00
H263   H     0.44443   0.65458   0.22491   0.00000  Uiso   1.00
H264   H     0.33877   0.54395   0.28505   0.00000  Uiso   1.00
H265   H     0.63347   0.59690   0.43483   0.00000  Uiso   1.00
H266   H     0.33602   0.58962   0.01305   0.00000  Uiso   1.00
H267   H     0.46869   0.47030   0.08254   0.00000  Uiso   1.00
H268   H     0.35206   0.45655   0.39931   0.00000  Uiso   1.00
H269   H     0.39383   0.47091   0.04777   0.00000  Uiso   1.00
H270   H     0.55605   0.57296   0.38234   0.00000  Uiso   1.00
N271   N     0.64908   0.51407   0.26416   0.00000  Uiso   1.00
N272   N     0.35092   0.48593   0.23584   0.00000  Uiso   1.00
O273   O     0.46131   0.57141   0.24633   0.00000  Uiso   1.00
O274   O     0.56191   0.58089   0.25587   0.00000  Uiso   1.00
O275   O     0.42515   0.49293   0.31840   0.00000  Uiso   1.00
O276   O     0.52575   0.50241   0.32793   0.00000  Uiso   1.00
O277   O     0.43809   0.41911   0.24414   0.00000  Uiso   1.00
O278   O     0.53869   0.42859   0.25367   0.00000  Uiso   1.00
O279   O     0.47425   0.49759   0.17207   0.00000  Uiso   1.00
O280   O     0.57485   0.50707   0.18161   0.00000  Uiso   1.00
O281   O     0.65719   0.56417   0.10861   0.00000  Uiso   1.00
C282   C     0.65901   0.61717   0.12500   0.00000  Uiso   1.00
H283   H     0.61210   0.62330   0.14536   0.00000  Uiso   1.00
H284   H     0.35775   0.62791   0.15241   0.00000  Uiso   1.00
H285   H     0.34436   0.64396   0.09239   0.00000  Uiso   1.00
O286   O     0.65242   0.44409   0.21280   0.00000  Uiso   1.00
C287   C     0.35359   0.43684   0.16358   0.00000  Uiso   1.00
H288   H     0.39250   0.41739   0.16494   0.00000  Uiso   1.00
H289   H     0.36999   0.47446   0.14308   0.00000  Uiso   1.00
H290   H     0.65560   0.40994   0.14129   0.00000  Uiso   1.00
O291   O     0.63952   0.43695   0.49511   0.00000  Uiso   1.00
C292   C     0.63808   0.38571   0.00945   0.00000  Uiso   1.00
H293   H     0.65968   0.38671   0.04340   0.00000  Uiso   1.00
H294   H     0.66126   0.36268   0.47720   0.00000  Uiso   1.00
H295   H     0.58850   0.36477   0.02020   0.00000  Uiso   1.00
O296   O     0.55506   0.35122   0.29683   0.00000  Uiso   1.00
C297   C     0.61858   0.34771   0.28280   0.00000  Uiso   1.00
H298   H     0.63506   0.34335   0.24067   0.00000  Uiso   1.00
H299   H     0.62699   0.64842   0.30285   0.00000  Uiso   1.00
H300   H     0.64741   0.38453   0.29602   0.00000  Uiso   1.00
C301   C     0.84738   0.59999   0.25443   0.00000  Uiso   1.00
C302   C     0.80620   0.50448   0.48796   0.00000  Uiso   1.00
C303   C     0.82184   0.51923   0.43623   0.00000  Uiso   1.00
C304   C     0.85300   0.51787   0.01829   0.00000  Uiso   1.00
C305   C     0.91156   0.55086   0.49863   0.00000  Uiso   1.00
C306   C     0.92315   0.57012   0.44968   0.00000  Uiso   1.00
C307   C     0.87885   0.55499   0.41908   0.00000  Uiso   1.00
C308   C     0.84370   0.49855   0.06731   0.00000  Uiso   1.00
C309   C     0.94548   0.54872   0.07893   0.00000  Uiso   1.00
C310   C     0.77956   0.49848   0.40325   0.00000  Uiso   1.00
C311   C     0.85264   0.65598   0.26288   0.00000  Uiso   1.00
C312   C     0.80004   0.49929   0.34719   0.00000  Uiso   1.00
C313   C     0.81246   0.34421   0.24544   0.00000  Uiso   1.00
C314   C     0.81835   0.40001   0.24883   0.00000  Uiso   1.00
C315   C     0.86718   0.50454   0.15307   0.00000  Uiso   1.00
C316   C     0.95767   0.56495   0.02845   0.00000  Uiso   1.00
C317   C     0.88771   0.51540   0.09843   0.00000  Uiso   1.00
C318   C     0.71875   0.47144   0.42381   0.00000  Uiso   1.00
C319   C     0.70078   0.46127   0.47569   0.00000  Uiso   1.00
C320   C     0.74412   0.47779   0.00760   0.00000  Uiso   1.00
Cu321  Cu    0.77377   0.49439   0.24436   0.00000  Uiso   1.00
Cu322  Cu    0.89290   0.50561   0.25565   0.00000  Uiso   1.00
H323   H     0.77776   0.65458   0.22491   0.00000  Uiso   1.00
H324   H     0.67210   0.54395   0.28505   0.00000  Uiso   1.00
H325   H     0.96681   0.59690   0.43483   0.00000  Uiso   1.00
H326   H     0.66935   0.58962   0.01305   0.00000  Uiso   1.00
H327   H     0.80202   0.47030   0.08254   0.00000  Uiso   1.00
H328   H     0.68539   0.45655   0.39931   0.00000  Uiso   1.00
H329   H     0.72716   0.47091   0.04777   0.00000  Uiso   1.00
H330   H     0.88938   0.57296   0.38234   0.00000  Uiso   1.00
N331   N     0.98241   0.51407   0.26416   0.00000  Uiso   1.00
N332   N     0.68426   0.48593   0.23584   0.00000  Uiso   1.00
O333   O     0.79464   0.57141   0.24633   0.00000  Uiso   1.00
O334   O     0.89524   0.58089   0.25587   0.00000  Uiso   1.00
O335   O     0.75848   0.49293   0.31840   0.00000  Uiso   1.00
O336   O     0.85908   0.50241   0.32793   0.00000  Uiso   1.00
O337   O     0.77142   0.41911   0.24414   0.00000  Uiso   1.00
O338   O     0.87203   0.42859   0.25367   0.00000  Uiso   1.00
O339   O     0.80758   0.49759   0.17207   0.00000  Uiso   1.00
O340   O     0.90819   0.50707   0.18161   0.00000  Uiso   1.00
O341   O     0.99053   0.56417   0.10861   0.00000  Uiso   1.00
C342   C     0.99235   0.61717   0.12500   0.00000  Uiso   1.00
H343   H     0.94543   0.62330   0.14536   0.00000  Uiso   1.00
H344   H     0.69108   0.62791   0.15241   0.00000  Uiso   1.00
H345   H     0.67769   0.64396   0.09239   0.00000  Uiso   1.00
O346   O     0.98575   0.44409   0.21280   0.00000  Uiso   1.00
C347   C     0.68692   0.43684   0.16358   0.00000  Uiso   1.00
H348   H     0.72583   0.41739   0.16494   0.00000  Uiso   1.00
H349   H     0.70333   0.47446   0.14308   0.00000  Uiso   1.00
H350   H     0.98894   0.40994   0.14129   0.00000  Uiso   1.00
O351   O     0.97285   0.43695   0.49511   0.00000  Uiso   1.00
C352   C     0.97141   0.38571   0.00945   0.00000  Uiso   1.00
H353   H     0.99301   0.38671   0.04340   0.00000  Uiso   1.00
H354   H     0.99459   0.36268   0.47720   0.00000  Uiso   1.00
H355   H     0.92184   0.36477   0.02020   0.00000  Uiso   1.00
O356   O     0.88839   0.35122   0.29683   0.00000  Uiso   1.00
C357   C     0.95191   0.34771   0.28280   0.00000  Uiso   1.00
H358   H     0.96839   0.34335   0.24067   0.00000  Uiso   1.00
H359   H     0.96032   0.64842   0.30285   0.00000  Uiso   1.00
H360   H     0.98074   0.38453   0.29602   0.00000  Uiso   1.00
C361   C     0.18071   0.93332   0.25443   0.00000  Uiso   1.00
C362   C     0.13954   0.83781   0.48796   0.00000  Uiso   1.00
C363   C     0.15518   0.85256   0.43623   0.00000  Uiso   1.00
C364   C     0.18633   0.85121   0.01829   0.00000  Uiso   1.00
C365   C     0.24489   0.88419   0.49863   0.00000  Uiso   1.00
C366   C     0.25648   0.90345   0.44968   0.00000  Uiso   1.00
C367   C     0.21218   0.88832   0.41908   0.00000  Uiso   1.00
C368   C     0.17704   0.83188   0.06731   0.00000  Uiso   1.00
C369   C     0.27882   0.88206   0.07893   0.00000  Uiso   1.00
C370   C     0.11289   0.83181   0.40325   0.00000  Uiso   1.00
C371   C     0.18597   0.98931   0.26288   0.00000  Uiso   1.00
C372   C     0.13338   0.83262   0.34719   0.00000  Uiso   1.00
C373   C     0.14580   0.67755   0.24544   0.00000  Uiso   1.00
C374   C     0.15169   0.73334   0.24883   0.00000  Uiso   1.00
C375   C     0.20051   0.83787   0.15307   0.00000  Uiso   1.00
C376   C     0.29100   0.89829   0.02845   0.00000  Uiso   1.00
C377   C     0.22104   0.84873   0.09843   0.00000  Uiso   1.00
C378   C     0.05209   0.80477   0.42381   0.00000  Uiso   1.00
C379   C     0.03411   0.79461   0.47569   0.00000  Uiso   1.00
C380   C     0.07746   0.81112   0.00760   0.00000  Uiso   1.00
Cu381  Cu    0.10710   0.82772   0.24436   0.00000  Uiso   1.00
Cu382  Cu    0.22623   0.83895   0.25565   0.00000  Uiso   1.00
H383   H     0.11110   0.98791   0.22491   0.00000  Uiso   1.00
H384   H     0.00543   0.87729   0.28505   0.00000  Uiso   1.00
H385   H     0.30014   0.93023   0.43483   0.00000  Uiso   1.00
H386   H     0.00268   0.92295   0.01305   0.00000  Uiso   1.00
H387   H     0.13535   0.80363   0.08254   0.00000  Uiso   1.00
H388   H     0.01873   0.78988   0.39931   0.00000  Uiso   1.00
H389   H     0.06049   0.80425   0.04777   0.00000  Uiso   1.00
H390   H     0.22272   0.90629   0.38234   0.00000  Uiso   1.00
N391   N     0.31574   0.84741   0.26416   0.00000  Uiso   1.00
N392   N     0.01759   0.81926   0.23584   0.00000  Uiso   1.00
O393   O     0.12797   0.90474   0.24633   0.00000  Uiso   1.00
O394   O     0.22858   0.91422   0.25587   0.00000  Uiso   1.00
O395   O     0.09181   0.82627   0.31840   0.00000  Uiso   1.00
O396   O     0.19242   0.83575   0.32793   0.00000  Uiso   1.00
O397   O     0.10476   0.75245   0.24414   0.00000  Uiso   1.00
O398   O     0.20536   0.76193   0.25367   0.00000  Uiso   1.00
O399   O     0.14092   0.83092   0.17207   0.00000  Uiso   1.00
O400   O     0.24152   0.84040   0.18161   0.00000  Uiso   1.00
O401   O     0.32386   0.89751   0.10861   0.00000  Uiso   1.00
C402   C     0.32568   0.95051   0.12500   0.00000  Uiso   1.00
H403   H     0.27877   0.95663   0.14536   0.00000  Uiso   1.00
H404   H     0.02442   0.96124   0.15241   0.00000  Uiso   1.00
H405   H     0.01103   0.97729   0.09239   0.00000  Uiso   1.00
O406   O     0.31909   0.77742   0.21280   0.00000  Uiso   1.00
C407   C     0.02026   0.77017   0.16358   0.00000  Uiso   1.00
H408   H     0.05916   0.75073   0.16494   0.00000  Uiso   1.00
H409   H     0.03666   0.80779   0.14308   0.00000  Uiso   1.00
H410   H     0.32227   0.74327   0.14129   0.00000  Uiso   1.00
O411   O     0.30619   0.77028   0.49511   0.00000  Uiso   1.00
C412   C     0.30475   0.71904   0.00945   0.00000  Uiso   1.00
H413   H     0.32634   0.72005   0.04340   0.00000  Uiso   1.00
H414   H     0.32793   0.69601   0.47720   0.00000  Uiso   1.00
H415   H     0.25517   0.69810   0.02020   0.00000  Uiso   1.00
O416   O     0.22172   0.68456   0.29683   0.00000  Uiso   1.00
C417   C     0.28525   0.68104   0.28280   0.00000  Uiso   1.00
H418   H     0.30173   0.67668   0.24067   0.00000  Uiso   1.00
H419   H     0.29366   0.98176   0.30285   0.00000  Uiso   1.00
H420   H     0.31407   0.71786   0.29602   0.00000  Uiso   1.00
C421   C     0.51404   0.93332   0.25443   0.00000  Uiso   1.00
C422   C     0.47287   0.83781   0.48796   0.00000  Uiso   1.00
C423   C     0.48851   0.85256   0.43623   0.00000  Uiso   1.00
C424   C     0.51966   0.85121   0.01829   0.00000  Uiso   1.00
C425   C     0.57822   0.88419   0.49863   0.00000  Uiso   1.00
C426   C     0.58981   0.90345   0.44968   0.00000  Uiso   1.00
C427   C     0.54552   0.88832   0.41908   0.00000  Uiso   1.00
C428   C     0.51037   0.83188   0.06731   0.00000  Uiso   1.00
C429   C     0.61215   0.88206   0.07893   0.00000  Uiso   1.00
C430   C     0.44622   0.83181   0.40325   0.00000  Uiso   1.00
C431   C     0.51931   0.98931   0.26288   0.00000  Uiso   1.00
C432   C     0.46671   0.83262   0.34719   0.00000  Uiso   1.00
C433   C     0.47913   0.67755   0.24544   0.00000  Uiso   1.00
C434   C     0.48502   0.73334   0.24883   0.00000  Uiso   1.00
C435   C     0.53384   0.83787   0.15307   0.00000  Uiso   1.00
C436   C     0.62434   0.89829   0.02845   0.00000  Uiso   1.00
C437   C     0.55438   0.84873   0.09843   0.00000  Uiso   1.00
C438   C     0.38542   0.80477   0.42381   0.00000  Uiso   1.00
C439   C     0.36745   0.79461   0.47569   0.00000  Uiso   1.00
C440   C     0.41079   0.81112   0.00760   0.00000  Uiso   1.00
Cu441  Cu    0.44043   0.82772   0.24436   0.00000  Uiso   1.00
Cu442  Cu    0.55957   0.83895   0.25565   0.00000  Uiso   1.00
H443   H     0.44443   0.98791   0.22491   0.00000  Uiso   1.00
H444   H     0.33877   0.87729   0.28505   0.00000  Uiso   1.00
H445   H     0.63347   0.93023   0.43483   0.00000  Uiso   1.00
H446   H     0.33602   0.92295   0.01305   0.00000  Uiso   1.00
H447   H     0.46869   0.80363   0.08254   0.00000  Uiso   1.00
H448   H     0.35206   0.78988   0.39931   0.00000  Uiso   1.00
H449   H     0.39383   0.80425   0.04777   0.00000  Uiso   1.00
H450   H     0.55605   0.90629   0.38234   0.00000  Uiso   1.00
N451   N     0.64908   0.84741   0.26416   0.00000  Uiso   1.00
N452   N     0.35092   0.81926   0.23584   0.00000  Uiso   1.00
O453   O     0.46131   0.90474   0.24633   0.00000  Uiso   1.00
O454   O     0.56191   0.91422   0.25587   0.00000  Uiso   1.00
O455   O     0.42515   0.82627   0.31840   0.00000  Uiso   1.00
O456   O     0.52575   0.83575   0.32793   0.00000  Uiso   1.00
O457   O     0.43809   0.75245   0.24414   0.00000  Uiso   1.00
O458   O     0.53869   0.76193   0.25367   0.00000  Uiso   1.00
O459   O     0.47425   0.83092   0.17207   0.00000  Uiso   1.00
O460   O     0.57485   0.84040   0.18161   0.00000  Uiso   1.00
O461   O     0.65719   0.89751   0.10861   0.00000  Uiso   1.00
C462   C     0.65901   0.95051   0.12500   0.00000  Uiso   1.00
H463   H     0.61210   0.95663   0.14536   0.00000  Uiso   1.00
H464   H     0.35775   0.96124   0.15241   0.00000  Uiso   1.00
H465   H     0.34436   0.97729   0.09239   0.00000  Uiso   1.00
O466   O     0.65242   0.77742   0.21280   0.00000  Uiso   1.00
C467   C     0.35359   0.77017   0.16358   0.00000  Uiso   1.00
H468   H     0.39250   0.75073   0.16494   0.00000  Uiso   1.00
H469   H     0.36999   0.80779   0.14308   0.00000  Uiso   1.00
H470   H     0.65560   0.74327   0.14129   0.00000  Uiso   1.00
O471   O     0.63952   0.77028   0.49511   0.00000  Uiso   1.00
C472   C     0.63808   0.71904   0.00945   0.00000  Uiso   1.00
H473   H     0.65968   0.72005   0.04340   0.00000  Uiso   1.00
H474   H     0.66126   0.69601   0.47720   0.00000  Uiso   1.00
H475   H     0.58850   0.69810   0.02020   0.00000  Uiso   1.00
O476   O     0.55506   0.68456   0.29683   0.00000  Uiso   1.00
C477   C     0.61858   0.68104   0.28280   0.00000  Uiso   1.00
H478   H     0.63506   0.67668   0.24067   0.00000  Uiso   1.00
H479   H     0.62699   0.98176   0.30285   0.00000  Uiso   1.00
H480   H     0.64741   0.71786   0.29602   0.00000  Uiso   1.00
C481   C     0.84738   0.93332   0.25443   0.00000  Uiso   1.00
C482   C     0.80620   0.83781   0.48796   0.00000  Uiso   1.00
C483   C     0.82184   0.85256   0.43623   0.00000  Uiso   1.00
C484   C     0.85300   0.85121   0.01829   0.00000  Uiso   1.00
C485   C     0.91156   0.88419   0.49863   0.00000  Uiso   1.00
C486   C     0.92315   0.90345   0.44968   0.00000  Uiso   1.00
C487   C     0.87885   0.88832   0.41908   0.00000  Uiso   1.00
C488   C     0.84370   0.83188   0.06731   0.00000  Uiso   1.00
C489   C     0.94548   0.88206   0.07893   0.00000  Uiso   1.00
C490   C     0.77956   0.83181   0.40325   0.00000  Uiso   1.00
C491   C     0.85264   0.98931   0.26288   0.00000  Uiso   1.00
C492   C     0.80004   0.83262   0.34719   0.00000  Uiso   1.00
C493   C     0.81246   0.67755   0.24544   0.00000  Uiso   1.00
C494   C     0.81835   0.73334   0.24883   0.00000  Uiso   1.00
C495   C     0.86718   0.83787   0.15307   0.00000  Uiso   1.00
C496   C     0.95767   0.89829   0.02845   0.00000  Uiso   1.00
C497   C     0.88771   0.84873   0.09843   0.00000  Uiso   1.00
C498   C     0.71875   0.80477   0.42381   0.00000  Uiso   1.00
C499   C     0.70078   0.79461   0.47569   0.00000  Uiso   1.00
C500   C     0.74412   0.81112   0.00760   0.00000  Uiso   1.00
Cu501  Cu    0.77377   0.82772   0.24436   0.00000  Uiso   1.00
Cu502  Cu    0.89290   0.83895   0.25565   0.00000  Uiso   1.00
H503   H     0.77776   0.98791   0.22491   0.00000  Uiso   1.00
H504   H     0.67210   0.87729   0.28505   0.00000  Uiso   1.00
H505   H     0.96681   0.93023   0.43483   0.00000  Uiso   1.00
H506   H     0.66935   0.92295   0.01305   0.00000  Uiso   1.00
H507   H     0.80202   0.80363   0.08254   0.00000  Uiso   1.00
H508   H     0.68539   0.78988   0.39931   0.00000  Uiso   1.00
H509   H     0.72716   0.80425   0.04777   0.00000  Uiso   1.00
H510   H     0.88938   0.90629   0.38234   0.00000  Uiso   1.00
N511   N     0.98241   0.84741   0.26416   0.00000  Uiso   1.00
N512   N     0.68426   0.81926   0.23584   0.00000  Uiso   1.00
O513   O     0.79464   0.90474   0.24633   0.00000  Uiso   1.00
O514   O     0.89524   0.91422   0.25587   0.00000  Uiso   1.00
O515   O     0.75848   0.82627   0.31840   0.00000  Uiso   1.00
O516   O     0.85908   0.83575   0.32793   0.00000  Uiso   1.00
O517   O     0.77142   0.75245   0.24414   0.00000  Uiso   1.00
O518   O     0.87203   0.76193   0.25367   0.00000  Uiso   1.00
O519   O     0.80758   0.83092   0.17207   0.00000  Uiso   1.00
O520   O     0.90819   0.84040   0.18161   0.00000  Uiso   1.00
O521   O     0.99053   0.89751   0.10861   0.00000  Uiso   1.00
C522   C     0.99235   0.95051   0.12500   0.00000  Uiso   1.00
H523   H     0.94543   0.95663   0.14536   0.00000  Uiso   1.00
H524   H     0.69108   0.96124   0.15241   0.00000  Uiso   1.00
H525   H     0.67769   0.97729   0.09239   0.00000  Uiso   1.00
O526   O     0.98575   0.77742   0.21280   0.00000  Uiso   1.00
C527   C     0.68692   0.77017   0.16358   0.00000  Uiso   1.00
H528   H     0.72583   0.75073   0.16494   0.00000  Uiso   1.00
H529   H     0.70333   0.80779   0.14308   0.00000  Uiso   1.00
H530   H     0.98894   0.74327   0.14129   0.00000  Uiso   1.00
O531   O     0.97285   0.77028   0.49511   0.00000  Uiso   1.00
C532   C     0.97141   0.71904   0.00945   0.00000  Uiso   1.00
H533   H     0.99301   0.72005   0.04340   0.00000  Uiso   1.00
H534   H     0.99459   0.69601   0.47720   0.00000  Uiso   1.00
H535   H     0.92184   0.69810   0.02020   0.00000  Uiso   1.00
O536   O     0.88839   0.68456   0.29683   0.00000  Uiso   1.00
C537   C     0.95191   0.68104   0.28280   0.00000  Uiso   1.00
H538   H     0.96839   0.67668   0.24067   0.00000  Uiso   1.00
H539   H     0.96032   0.98176   0.30285   0.00000  Uiso   1.00
H540   H     0.98074   0.71786   0.29602   0.00000  Uiso   1.00
C541   C     0.18071   0.26666   0.75443   0.00000  Uiso   1.00
C542   C     0.13954   0.17115   0.98796   0.00000  Uiso   1.00
C543   C     0.15518   0.18590   0.93623   0.00000  Uiso   1.00
C544   C     0.18633   0.18454   0.51829   0.00000  Uiso   1.00
C545   C     0.24489   0.21752   0.99863   0.00000  Uiso   1.00
C546   C     0.25648   0.23679   0.94968   0.00000  Uiso   1.00
C547   C     0.21218   0.22166   0.91908   0.00000  Uiso   1.00
C548   C     0.17704   0.16521   0.56731   0.00000  Uiso   1.00
C549   C     0.27882   0.21539   0.57893   0.00000  Uiso   1.00
C550   C     0.11289   0.16515   0.90325   0.00000  Uiso   1.00
C551   C     0.18597   0.32265   0.76288   0.00000  Uiso   1.00
C552   C     0.13338   0.16596   0.84719   0.00000  Uiso   1.00
C553   C     0.14580   0.01088   0.74544   0.00000  Uiso   1.00
C554   C     0.15169   0.06668   0.74883   0.00000  Uiso   1.00
C555   C     0.20051   0.17121   0.65307   0.00000  Uiso   1.00
C556   C     0.29100   0.23162   0.52845   0.00000  Uiso   1.00
C557   C     0.22104   0.18207   0.59843   0.00000  Uiso   1.00
C558   C     0.05209   0.13811   0.92381   0.00000  Uiso   1.00
C559   C     0.03411   0.12794   0.97569   0.00000  Uiso   1.00
C560   C     0.07746   0.14445   0.50760   0.00000  Uiso   1.00
Cu561  Cu    0.10710   0.16105   0.74436   0.00000  Uiso   1.00
Cu562  Cu    0.22623   0.17228   0.75565   0.00000  Uiso   1.00
H563   H     0.11110   0.32125   0.72491   0.00000  Uiso   1.00
H564   H     0.00543   0.21062   0.78505   0.00000  Uiso   1.00
H565   H     0.30014   0.26356   0.93483   0.00000  Uiso   1.00
H566   H     0.00268   0.25629   0.51305   0.00000  Uiso   1.00
H567   H     0.13535   0.13696   0.58254   0.00000  Uiso   1.00
H568   H     0.01873   0.12322   0.89931   0.00000  Uiso   1.00
H569   H     0.06049   0.13758   0.54777   0.00000  Uiso   1.00
H570   H     0.22272   0.23962   0.88234   0.00000  Uiso   1.00
N571   N     0.31574   0.18074   0.76416   0.00000  Uiso   1.00
N572   N     0.01759   0.15259   0.73584   0.00000  Uiso   1.00
O573   O     0.12797   0.23807   0.74633   0.00000  Uiso   1.00
O574   O     0.22858   0.24755   0.75587   0.00000  Uiso   1.00
O575   O     0.09181   0.15960   0.81840   0.00000  Uiso   1.00
O576   O     0.19242   0.16908   0.82793   0.00000  Uiso   1.00
O577   O     0.10476   0.08578   0.74414   0.00000  Uiso   1.00
O578   O     0.20536   0.09526   0.75367   0.00000  Uiso   1.00
O579   O     0.14092   0.16425   0.67207   0.00000  Uiso   1.00
O580   O     0.24152   0.17373   0.68161   0.00000  Uiso   1.00
O581   O     0.32386   0.23084   0.60861   0.00000  Uiso   1.00
C582   C     0.32568   0.28384   0.62500   0.00000  Uiso   1.00
H583   H     0.27877   0.28997   0.64536   0.00000  Uiso   1.00
H584   H     0.02442   0.29458   0.65241   0.00000  Uiso   1.00
H585   H     0.01103   0.31062   0.59239   0.00000  Uiso   1.00
O586   O     0.31909   0.11076   0.71280   0.00000  Uiso   1.00
C587   C     0.02026   0.10351   0.66358   0.00000  Uiso   1.00
H588   H     0.05916   0.08406   0.66494   0.00000  Uiso   1.00
H589   H     0.03666   0.14112   0.64308   0.00000  Uiso   1.00
H590   H     0.32227   0.07661   0.64129   0.00000  Uiso   1.00
O591   O     0.30619   0.10361   0.99511   0.00000  Uiso   1.00
C592   C     0.30475   0.05238   0.50945   0.00000  Uiso   1.00
H593   H     0.32634   0.05338   0.54340   0.00000  Uiso   1.00
H594   H     0.32793   0.02935   0.97720   0.00000  Uiso   1.00
H595   H     0.25517   0.03143   0.52020   0.00000  Uiso   1.00
O596   O     0.22172   0.01789   0.79683   0.00000  Uiso   1.00
C597   C     0.28525   0.01437   0.78280   0.00000  Uiso   1.00
H598   H     0.30173   0.01001   0.74067   0.00000  Uiso   1.00
H599   H     0.29366   0.31509   0.80285   0.00000  Uiso   1.00
H600   H     0.31407   0.05120   0.79602   0.00000  Uiso   1.00
C601   C     0.51404   0.26666   0.75443   0.00000  Uiso   1.00
C602   C     0.47287   0.17115   0.98796   0.00000  Uiso   1.00
C603   C     0.48851   0.18590   0.93623   0.00000  Uiso   1.00
C604   C     0.51966   0.18454   0.51829   0.00000  Uiso   1.00
C605   C     0.57822   0.21752   0.99863   0.00000  Uiso   1.00
C606   C     0.58981   0.23679   0.94968   0.00000  Uiso   1.00
C607   C     0.54552   0.22166   0.91908   0.00000  Uiso   1.00
C608   C     0.51037   0.16521   0.56731   0.00000  Uiso   1.00
C609   C     0.61215   0.21539   0.57893   0.00000  Uiso   1.00
C610   C     0.44622   0.16515   0.90325   0.00000  Uiso   1.00
C611   C     0.51931   0.32265   0.76288   0.00000  Uiso   1.00
C612   C     0.46671   0.16596   0.84719   0.00000  Uiso   1.00
C613   C     0.47913   0.01088   0.74544   0.00000  Uiso   1.00
C614   C     0.48502   0.06668   0.74883   0.00000  Uiso   1.00
C615   C     0.53384   0.17121   0.65307   0.00000  Uiso   1.00
C616   C     0.62434   0.23162   0.52845   0.00000  Uiso   1.00
C617   C     0.55438   0.18207   0.59843   0.00000  Uiso   1.00
C618   C     0.38542   0.13811   0.92381   0.00000  Uiso   1.00
C619   C     0.36745   0.12794   0.97569   0.00000  Uiso   1.00
C620   C     0.41079   0.14445   0.50760   0.00000  Uiso   1.00
Cu621  Cu    0.44043   0.16105   0.74436   0.00000  Uiso   1.00
Cu622  Cu    0.55957   0.17228   0.75565   0.00000  Uiso   1.00
H623   H     0.44443   0.32125   0.72491   0.00000  Uiso   1.00
H624   H     0.33877   0.21062   0.78505   0.00000  Uiso   1.00
H625   H     0.63347   0.26356   0.93483   0.00000  Uiso   1.00
H626   H     0.33602   0.25629   0.51305   0.00000  Uiso   1.00
H627   H     0.46869   0.13696   0.58254   0.00000  Uiso   1.00
H628   H     0.35206   0.12322   0.89931   0.00000  Uiso   1.00
H629   H     0.39383   0.13758   0.54777   0.00000  Uiso   1.00
H630   H     0.55605   0.23962   0.88234   0.00000  Uiso   1.00
N631   N     0.64908   0.18074   0.76416   0.00000  Uiso   1.00
N632   N     0.35092   0.15259   0.73584   0.00000  Uiso   1.00
O633   O     0.46131   0.23807   0.74633   0.00000  Uiso   1.00
O634   O     0.56191   0.24755   0.75587   0.00000  Uiso   1.00
O635   O     0.42515   0.15960   0.81840   0.00000  Uiso   1.00
O636   O     0.52575   0.16908   0.82793   0.00000  Uiso   1.00
O637   O     0.43809   0.08578   0.74414   0.00000  Uiso   1.00
O638   O     0.53869   0.09526   0.75367   0.00000  Uiso   1.00
O639   O     0.47425   0.16425   0.67207   0.00000  Uiso   1.00
O640   O     0.57485   0.17373   0.68161   0.00000  Uiso   1.00
O641   O     0.65719   0.23084   0.60861   0.00000  Uiso   1.00
C642   C     0.65901   0.28384   0.62500   0.00000  Uiso   1.00
H643   H     0.61210   0.28997   0.64536   0.00000  Uiso   1.00
H644   H     0.35775   0.29458   0.65241   0.00000  Uiso   1.00
H645   H     0.34436   0.31062   0.59239   0.00000  Uiso   1.00
O646   O     0.65242   0.11076   0.71280   0.00000  Uiso   1.00
C647   C     0.35359   0.10351   0.66358   0.00000  Uiso   1.00
H648   H     0.39250   0.08406   0.66494   0.00000  Uiso   1.00
H649   H     0.36999   0.14112   0.64308   0.00000  Uiso   1.00
H650   H     0.65560   0.07661   0.64129   0.00000  Uiso   1.00
O651   O     0.63952   0.10361   0.99511   0.00000  Uiso   1.00
C652   C     0.63808   0.05238   0.50945   0.00000  Uiso   1.00
H653   H     0.65968   0.05338   0.54340   0.00000  Uiso   1.00
H654   H     0.66126   0.02935   0.97720   0.00000  Uiso   1.00
H655   H     0.58850   0.03143   0.52020   0.00000  Uiso   1.00
O656   O     0.55506   0.01789   0.79683   0.00000  Uiso   1.00
C657   C     0.61858   0.01437   0.78280   0.00000  Uiso   1.00
H658   H     0.63506   0.01001   0.74067   0.00000  Uiso   1.00
H659   H     0.62699   0.31509   0.80285   0.00000  Uiso   1.00
H660   H     0.64741   0.05120   0.79602   0.00000  Uiso   1.00
C661   C     0.84738   0.26666   0.75443   0.00000  Uiso   1.00
C662   C     0.80620   0.17115   0.98796   0.00000  Uiso   1.00
C663   C     0.82184   0.18590   0.93623   0.00000  Uiso   1.00
C664   C     0.85300   0.18454   0.51829   0.00000  Uiso   1.00
C665   C     0.91156   0.21752   0.99863   0.00000  Uiso   1.00
C666   C     0.92315   0.23679   0.94968   0.00000  Uiso   1.00
C667   C     0.87885   0.22166   0.91908   0.00000  Uiso   1.00
C668   C     0.84370   0.16521   0.56731   0.00000  Uiso   1.00
C669   C     0.94548   0.21539   0.57893   0.00000  Uiso   1.00
C670   C     0.77956   0.16515   0.90325   0.00000  Uiso   1.00
C671   C     0.85264   0.32265   0.76288   0.00000  Uiso   1.00
C672   C     0.80004   0.16596   0.84719   0.00000  Uiso   1.00
C673   C     0.81246   0.01088   0.74544   0.00000  Uiso   1.00
C674   C     0.81835   0.06668   0.74883   0.00000  Uiso   1.00
C675   C     0.86718   0.17121   0.65307   0.00000  Uiso   1.00
C676   C     0.95767   0.23162   0.52845   0.00000  Uiso   1.00
C677   C     0.88771   0.18207   0.59843   0.00000  Uiso   1.00
C678   C     0.71875   0.13811   0.92381   0.00000  Uiso   1.00
C679   C     0.70078   0.12794   0.97569   0.00000  Uiso   1.00
C680   C     0.74412   0.14445   0.50760   0.00000  Uiso   1.00
Cu681  Cu    0.77377   0.16105   0.74436   0.00000  Uiso   1.00
Cu682  Cu    0.89290   0.17228   0.75565   0.00000  Uiso   1.00
H683   H     0.77776   0.32125   0.72491   0.00000  Uiso   1.00
H684   H     0.67210   0.21062   0.78505   0.00000  Uiso   1.00
H685   H     0.96681   0.26356   0.93483   0.00000  Uiso   1.00
H686   H     0.66935   0.25629   0.51305   0.00000  Uiso   1.00
H687   H     0.80202   0.13696   0.58254   0.00000  Uiso   1.00
H688   H     0.68539   0.12322   0.89931   0.00000  Uiso   1.00
H689   H     0.72716   0.13758   0.54777   0.00000  Uiso   1.00
H690   H     0.88938   0.23962   0.88234   0.00000  Uiso   1.00
N691   N     0.98241   0.18074   0.76416   0.00000  Uiso   1.00
N692   N     0.68426   0.15259   0.73584   0.00000  Uiso   1.00
O693   O     0.79464   0.23807   0.74633   0.00000  Uiso   1.00
O694   O     0.89524   0.24755   0.75587   0.00000  Uiso   1.00
O695   O     0.75848   0.15960   0.81840   0.00000  Uiso   1.00
O696   O     0.85908   0.16908   0.82793   0.00000  Uiso   1.00
O697   O     0.77142   0.08578   0.74414   0.00000  Uiso   1.00
O698   O     0.87203   0.09526   0.75367   0.00000  Uiso   1.00
O699   O     0.80758   0.16425   0.67207   0.00000  Uiso   1.00
O700   O     0.90819   0.17373   0.68161   0.00000  Uiso   1.00
O701   O     0.99053   0.23084   0.60861   0.00000  Uiso   1.00
C702   C     0.99235   0.28384   0.62500   0.00000  Uiso   1.00
H703   H     0.94543   0.28997   0.64536   0.00000  Uiso   1.00
H704   H     0.69108   0.29458   0.65241   0.00000  Uiso   1.00
H705   H     0.67769   0.31062   0.59239   0.00000  Uiso   1.00
O706   O     0.98575   0.11076   0.71280   0.00000  Uiso   1.00
C707   C     0.68692   0.10351   0.66358   0.00000  Uiso   1.00
H708   H     0.72583   0.08406   0.66494   0.00000  Uiso   1.00
H709   H     0.70333   0.14112   0.64308   0.00000  Uiso   1.00
H710   H     0.98894   0.07661   0.64129   0.00000  Uiso   1.00
O711   O     0.97285   0.10361   0.99511   0.00000  Uiso   1.00
C712   C     0.97141   0.05238   0.50945   0.00000  Uiso   1.00
H713   H     0.99301   0.05338   0.54340   0.00000  Uiso   1.00
H714   H     0.99459   0.02935   0.97720   0.00000  Uiso   1.00
H715   H     0.92184   0.03143   0.52020   0.00000  Uiso   1.00
O716   O     0.88839   0.01789   0.79683   0.00000  Uiso   1.00
C717   C     0.95191   0.01437   0.78280   0.00000  Uiso   1.00
H718   H     0.96839   0.01001   0.74067   0.00000  Uiso   1.00
H719   H     0.96032   0.31509   0.80285   0.00000  Uiso   1.00
H720   H     0.98074   0.05120   0.79602   0.00000  Uiso   1.00
C721   C     0.18071   0.59999   0.75443   0.00000  Uiso   1.00
C722   C     0.13954   0.50448   0.98796   0.00000  Uiso   1.00
C723   C     0.15518   0.51923   0.93623   0.00000  Uiso   1.00
C724   C     0.18633   0.51787   0.51829   0.00000  Uiso   1.00
C725   C     0.24489   0.55086   0.99863   0.00000  Uiso   1.00
C726   C     0.25648   0.57012   0.94968   0.00000  Uiso   1.00
C727   C     0.21218   0.55499   0.91908   0.00000  Uiso   1.00
C728   C     0.17704   0.49855   0.56731   0.00000  Uiso   1.00
C729   C     0.27882   0.54872   0.57893   0.00000  Uiso   1.00
C730   C     0.11289   0.49848   0.90325   0.00000  Uiso   1.00
C731   C     0.18597   0.65598   0.76288   0.00000  Uiso   1.00
C732   C     0.13338   0.49929   0.84719   0.00000  Uiso   1.00
C733   C     0.14580   0.34421   0.74544   0.00000  Uiso   1.00
C734   C     0.15169   0.40001   0.74883   0.00000  Uiso   1.00
C735   C     0.20051   0.50454   0.65307   0.00000  Uiso   1.00
C736   C     0.29100   0.56495   0.52845   0.00000  Uiso   1.00
C737   C     0.22104   0.51540   0.59843   0.00000  Uiso   1.00
C738   C     0.05209   0.47144   0.92381   0.00000  Uiso   1.00
C739   C     0.03411   0.46127   0.97569   0.00000  Uiso   1.00
C740   C     0.07746   0.47779   0.50760   0.00000  Uiso   1.00
Cu741  Cu    0.10710   0.49439   0.74436   0.00000  Uiso   1.00
Cu742  Cu    0.22623   0.50561   0.75565   0.00000  Uiso   1.00
H743   H     0.11110   0.65458   0.72491   0.00000  Uiso   1.00
H744   H     0.00543   0.54395   0.78505   0.00000  Uiso   1.00
H745   H     0.30014   0.59690   0.93483   0.00000  Uiso   1.00
H746   H     0.00268   0.58962   0.51305   0.00000  Uiso   1.00
H747   H     0.13535   0.47030   0.58254   0.00000  Uiso   1.00
H748   H     0.01873   0.45655   0.89931   0.00000  Uiso   1.00
H749   H     0.06049   0.47091   0.54777   0.00000  Uiso   1.00
H750   H     0.22272   0.57296   0.88234   0.00000  Uiso   1.00
N751   N     0.31574   0.51407   0.76416   0.00000  Uiso   1.00
N752   N     0.01759   0.48593   0.73584   0.00000  Uiso   1.00
O753   O     0.12797   0.57141   0.74633   0.00000  Uiso   1.00
O754   O     0.22858   0.58089   0.75587   0.00000  Uiso   1.00
O755   O     0.09181   0.49293   0.81840   0.00000  Uiso   1.00
O756   O     0.19242   0.50241   0.82793   0.00000  Uiso   1.00
O757   O     0.10476   0.41911   0.74414   0.00000  Uiso   1.00
O758   O     0.20536   0.42859   0.75367   0.00000  Uiso   1.00
O759   O     0.14092   0.49759   0.67207   0.00000  Uiso   1.00
O760   O     0.24152   0.50707   0.68161   0.00000  Uiso   1.00
O761   O     0.32386   0.56417   0.60861   0.00000  Uiso   1.00
C762   C     0.32568   0.61717   0.62500   0.00000  Uiso   1.00
H763   H     0.27877   0.62330   0.64536   0.00000  Uiso   1.00
H764   H     0.02442   0.62791   0.65241   0.00000  Uiso   1.00
H765   H     0.01103   0.64396   0.59239   0.00000  Uiso   1.00
O766   O     0.31909   0.44409   0.71280   0.00000  Uiso   1.00
C767   C     0.02026   0.43684   0.66358   0.00000  Uiso   1.00
H768   H     0.05916   0.41739   0.66494   0.00000  Uiso   1.00
H769   H     0.03666   0.47446   0.64308   0.00000  Uiso   1.00
H770   H     0.32227   0.40994   0.64129   0.00000  Uiso   1.00
O771   O     0.30619   0.43695   0.99511   0.00000  Uiso   1.00
C772   C     0.30475   0.38571   0.50945   0.00000  Uiso   1.00
H773   H     0.32634   0.38671   0.54340   0.00000  Uiso   1.00
H774   H     0.32793   0.36268   0.97720   0.00000  Uiso   1.00
H775   H     0.25517   0.36477   0.52020   0.00000  Uiso   1.00
O776   O     0.22172   0.35122   0.79683   0.00000  Uiso   1.00
C777   C     0.28525   0.34771   0.78280   0.00000  Uiso   1.00
H778   H     0.30173   0.34335   0.74067   0.00000  Uiso   1.00
H779   H     0.29366   0.64842   0.80285   0.00000  Uiso   1.00
H780   H     0.31407   0.38453   0.79602   0.00000  Uiso   1.00
C781   C     0.51404   0.59999   0.75443   0.00000  Uiso   1.00
C782   C     0.47287   0.50448   0.98796   0.00000  Uiso   1.00
C783   C     0.48851   0.51923   0.93623   0.00000  Uiso   1.00
C784   C     0.51966   0.51787   0.51829   0.00000  Uiso   1.00
C785   C     0.57822   0.55086   0.99863   0.00000  Uiso   1.00
C786   C     0.58981   0.57012   0.94968   0.00000  Uiso   1.00
C787   C     0.54552   0.55499   0.91908   0.00000  Uiso   1.00
C788   C     0.51037   0.49855   0.56731   0.00000  Uiso   1.00
C789   C     0.61215   0.54872   0.57893   0.00000  Uiso   1.00
C790   C     0.44622   0.49848   0.90325   0.00000  Uiso   1.00
C791   C     0.51931   0.65598   0.76288   0.00000  Uiso   1.00
C792   C     0.46671   0.49929   0.84719   0.00000  Uiso   1.00
C793   C     0.47913   0.34421   0.74544   0.00000  Uiso   1.00
C794   C     0.48502   0.40001   0.74883   0.00000  Uiso   1.00
C795   C     0.53384   0.50454   0.65307   0.00000  Uiso   1.00
C796   C     0.62434   0.56495   0.52845   0.00000  Uiso   1.00
C797   C     0.55438   0.51540   0.59843   0.00000  Uiso   1.00
C798   C     0.38542   0.47144   0.92381   0.00000  Uiso   1.00
C799   C     0.36745   0.46127   0.97569   0.00000  Uiso   1.00
C800   C     0.41079   0.47779   0.50760   0.00000  Uiso   1.00
Cu801  Cu    0.44043   0.49439   0.74436   0.00000  Uiso   1.00
Cu802  Cu    0.55957   0.50561   0.75565   0.00000  Uiso   1.00
H803   H     0.44443   0.65458   0.72491   0.00000  Uiso   1.00
H804   H     0.33877   0.54395   0.78505   0.00000  Uiso   1.00
H805   H     0.63347   0.59690   0.93483   0.00000  Uiso   1.00
H806   H     0.33602   0.58962   0.51305   0.00000  Uiso   1.00
H807   H     0.46869   0.47030   0.58254   0.00000  Uiso   1.00
H808   H     0.35206   0.45655   0.89931   0.00000  Uiso   1.00
H809   H     0.39383   0.47091   0.54777   0.00000  Uiso   1.00
H810   H     0.55605   0.57296   0.88234   0.00000  Uiso   1.00
N811   N     0.64908   0.51407   0.76416   0.00000  Uiso   1.00
N812   N     0.35092   0.48593   0.73584   0.00000  Uiso   1.00
O813   O     0.46131   0.57141   0.74633   0.00000  Uiso   1.00
O814   O     0.56191   0.58089   0.75587   0.00000  Uiso   1.00
O815   O     0.42515   0.49293   0.81840   0.00000  Uiso   1.00
O816   O     0.52575   0.50241   0.82793   0.00000  Uiso   1.00
O817   O     0.43809   0.41911   0.74414   0.00000  Uiso   1.00
O818   O     0.53869   0.42859   0.75367   0.00000  Uiso   1.00
O819   O     0.47425   0.49759   0.67207   0.00000  Uiso   1.00
O820   O     0.57485   0.50707   0.68161   0.00000  Uiso   1.00
O821   O     0.65719   0.56417   0.60861   0.00000  Uiso   1.00
C822   C     0.65901   0.61717   0.62500   0.00000  Uiso   1.00
H823   H     0.61210   0.62330   0.64536   0.00000  Uiso   1.00
H824   H     0.35775   0.62791   0.65241   0.00000  Uiso   1.00
H825   H     0.34436   0.64396   0.59239   0.00000  Uiso   1.00
O826   O     0.65242   0.44409   0.71280   0.00000  Uiso   1.00
C827   C     0.35359   0.43684   0.66358   0.00000  Uiso   1.00
H828   H     0.39250   0.41739   0.66494   0.00000  Uiso   1.00
H829   H     0.36999   0.47446   0.64308   0.00000  Uiso   1.00
H830   H     0.65560   0.40994   0.64129   0.00000  Uiso   1.00
O831   O     0.63952   0.43695   0.99511   0.00000  Uiso   1.00
C832   C     0.63808   0.38571   0.50945   0.00000  Uiso   1.00
H833   H     0.65968   0.38671   0.54340   0.00000  Uiso   1.00
H834   H     0.66126   0.36268   0.97720   0.00000  Uiso   1.00
H835   H     0.58850   0.36477   0.52020   0.00000  Uiso   1.00
O836   O     0.55506   0.35122   0.79683   0.00000  Uiso   1.00
C837   C     0.61858   0.34771   0.78280   0.00000  Uiso   1.00
H838   H     0.63506   0.34335   0.74067   0.00000  Uiso   1.00
H839   H     0.62699   0.64842   0.80285   0.00000  Uiso   1.00
H840   H     0.64741   0.38453   0.79602   0.00000  Uiso   1.00
C841   C     0.84738   0.59999   0.75443   0.00000  Uiso   1.00
C842   C     0.80620   0.50448   0.98796   0.00000  Uiso   1.00
C843   C     0.82184   0.51923   0.93623   0.00000  Uiso   1.00
C844   C     0.85300   0.51787   0.51829   0.00000  Uiso   1.00
C845   C     0.91156   0.55086   0.99863   0.00000  Uiso   1.00
C846   C     0.92315   0.57012   0.94968   0.00000  Uiso   1.00
C847   C     0.87885   0.55499   0.91908   0.00000  Uiso   1.00
C848   C     0.84370   0.49855   0.56731   0.00000  Uiso   1.00
C849   C     0.94548   0.54872   0.57893   0.00000  Uiso   1.00
C850   C     0.77956   0.49848   0.90325   0.00000  Uiso   1.00
C851   C     0.85264   0.65598   0.76288   0.00000  Uiso   1.00
C852   C     0.80004   0.49929   0.84719   0.00000  Uiso   1.00
C853   C     0.81246   0.34421   0.74544   0.00000  Uiso   1.00
C854   C     0.81835   0.40001   0.74883   0.00000  Uiso   1.00
C855   C     0.86718   0.50454   0.65307   0.00000  Uiso   1.00
C856   C     0.95767   0.56495   0.52845   0.00000  Uiso   1.00
C857   C     0.88771   0.51540   0.59843   0.00000  Uiso   1.00
C858   C     0.71875   0.47144   0.92381   0.00000  Uiso   1.00
C859   C     0.70078   0.46127   0.97569   0.00000  Uiso   1.00
C860   C     0.74412   0.47779   0.50760   0.00000  Uiso   1.00
Cu861  Cu    0.77377   0.49439   0.74436   0.00000  Uiso   1.00
Cu862  Cu    0.89290   0.50561   0.75565   0.00000  Uiso   1.00
H863   H     0.77776   0.65458   0.72491   0.00000  Uiso   1.00
H864   H     0.67210   0.54395   0.78505   0.00000  Uiso   1.00
H865   H     0.96681   0.59690   0.93483   0.00000  Uiso   1.00
H866   H     0.66935   0.58962   0.51305   0.00000  Uiso   1.00
H867   H     0.80202   0.47030   0.58254   0.00000  Uiso   1.00
H868   H     0.68539   0.45655   0.89931   0.00000  Uiso   1.00
H869   H     0.72716   0.47091   0.54777   0.00000  Uiso   1.00
H870   H     0.88938   0.57296   0.88234   0.00000  Uiso   1.00
N871   N     0.98241   0.51407   0.76416   0.00000  Uiso   1.00
N872   N     0.68426   0.48593   0.73584   0.00000  Uiso   1.00
O873   O     0.79464   0.57141   0.74633   0.00000  Uiso   1.00
O874   O     0.89524   0.58089   0.75587   0.00000  Uiso   1.00
O875   O     0.75848   0.49293   0.81840   0.00000  Uiso   1.00
O876   O     0.85908   0.50241   0.82793   0.00000  Uiso   1.00
O877   O     0.77142   0.41911   0.74414   0.00000  Uiso   1.00
O878   O     0.87203   0.42859   0.75367   0.00000  Uiso   1.00
O879   O     0.80758   0.49759   0.67207   0.00000  Uiso   1.00
O880   O     0.90819   0.50707   0.68161   0.00000  Uiso   1.00
O881   O     0.99053   0.56417   0.60861   0.00000  Uiso   1.00
C882   C     0.99235   0.61717   0.62500   0.00000  Uiso   1.00
H883   H     0.94543   0.62330   0.64536   0.00000  Uiso   1.00
H884   H     0.69108   0.62791   0.65241   0.00000  Uiso   1.00
H885   H     0.67769   0.64396   0.59239   0.00000  Uiso   1.00
O886   O     0.98575   0.44409   0.71280   0.00000  Uiso   1.00
C887   C     0.68692   0.43684   0.66358   0.00000  Uiso   1.00
H888   H     0.72583   0.41739   0.66494   0.00000  Uiso   1.00
H889   H     0.70333   0.47446   0.64308   0.00000  Uiso   1.00
H890   H     0.98894   0.40994   0.64129   0.00000  Uiso   1.00
O891   O     0.97285   0.43695   0.99511   0.00000  Uiso   1.00
C892   C     0.97141   0.38571   0.50945   0.00000  Uiso   1.00
H893   H     0.99301   0.38671   0.54340   0.00000  Uiso   1.00
H894   H     0.99459   0.36268   0.97720   0.00000  Uiso   1.00
H895   H     0.92184   0.36477   0.52020   0.00000  Uiso   1.00
O896   O     0.88839   0.35122   0.79683   0.00000  Uiso   1.00
C897   C     0.95191   0.34771   0.78280   0.00000  Uiso   1.00
H898   H     0.96839   0.34335   0.74067   0.00000  Uiso   1.00
H899   H     0.96032   0.64842   0.80285   0.00000  Uiso   1.00
H900   H     0.98074   0.38453   0.79602   0.00000  Uiso   1.00
C901   C     0.18071   0.93332   0.75443   0.00000  Uiso   1.00
C902   C     0.13954   0.83781   0.98796   0.00000  Uiso   1.00
C903   C     0.15518   0.85256   0.93623   0.00000  Uiso   1.00
C904   C     0.18633   0.85121   0.51829   0.00000  Uiso   1.00
C905   C     0.24489   0.88419   0.99863   0.00000  Uiso   1.00
C906   C     0.25648   0.90345   0.94968   0.00000  Uiso   1.00
C907   C     0.21218   0.88832   0.91908   0.00000  Uiso   1.00
C908   C     0.17704   0.83188   0.56731   0.00000  Uiso   1.00
C909   C     0.27882   0.88206   0.57893   0.00000  Uiso   1.00
C910   C     0.11289   0.83181   0.90325   0.00000  Uiso   1.00
C911   C     0.18597   0.98931   0.76288   0.00000  Uiso   1.00
C912   C     0.13338   0.83262   0.84719   0.00000  Uiso   1.00
C913   C     0.14580   0.67755   0.74544   0.00000  Uiso   1.00
C914   C     0.15169   0.73334   0.74883   0.00000  Uiso   1.00
C915   C     0.20051   0.83787   0.65307   0.00000  Uiso   1.00
C916   C     0.29100   0.89829   0.52845   0.00000  Uiso   1.00
C917   C     0.22104   0.84873   0.59843   0.00000  Uiso   1.00
C918   C     0.05209   0.80477   0.92381   0.00000  Uiso   1.00
C919   C     0.03411   0.79461   0.97569   0.00000  Uiso   1.00
C920   C     0.07746   0.81112   0.50760   0.00000  Uiso   1.00
Cu921  Cu    0.10710   0.82772   0.74436   0.00000  Uiso   1.00
Cu922  Cu    0.22623   0.83895   0.75565   0.00000  Uiso   1.00
H923   H     0.11110   0.98791   0.72491   0.00000  Uiso   1.00
H924   H     0.00543   0.87729   0.78505   0.00000  Uiso   1.00
H925   H     0.30014   0.93023   0.93483   0.00000  Uiso   1.00
H926   H     0.00268   0.92295   0.51305   0.00000  Uiso   1.00
H927   H     0.13535   0.80363   0.58254   0.00000  Uiso   1.00
H928   H     0.01873   0.78988   0.89931   0.00000  Uiso   1.00
H929   H     0.06049   0.80425   0.54777   0.00000  Uiso   1.00
H930   H     0.22272   0.90629   0.88234   0.00000  Uiso   1.00
N931   N     0.31574   0.84741   0.76416   0.00000  Uiso   1.00
N932   N     0.01759   0.81926   0.73584   0.00000  Uiso   1.00
O933   O     0.12797   0.90474   0.74633   0.00000  Uiso   1.00
O934   O     0.22858   0.91422   0.75587   0.00000  Uiso   1.00
O935   O     0.09181   0.82627   0.81840   0.00000  Uiso   1.00
O936   O     0.19242   0.83575   0.82793   0.00000  Uiso   1.00
O937   O     0.10476   0.75245   0.74414   0.00000  Uiso   1.00
O938   O     0.20536   0.76193   0.75367   0.00000  Uiso   1.00
O939   O     0.14092   0.83092   0.67207   0.00000  Uiso   1.00
O940   O     0.24152   0.84040   0.68161   0.00000  Uiso   1.00
O941   O     0.32386   0.89751   0.60861   0.00000  Uiso   1.00
C942   C     0.32568   0.95051   0.62500   0.00000  Uiso   1.00
H943   H     0.27877   0.95663   0.64536   0.00000  Uiso   1.00
H944   H     0.02442   0.96124   0.65241   0.00000  Uiso   1.00
H945   H     0.01103   0.97729   0.59239   0.00000  Uiso   1.00
O946   O     0.31909   0.77742   0.71280   0.00000  Uiso   1.00
C947   C     0.02026   0.77017   0.66358   0.00000  Uiso   1.00
H948   H     0.05916   0.75073   0.66494   0.00000  Uiso   1.00
H949   H     0.03666   0.80779   0.64308   0.00000  Uiso   1.00
H950   H     0.32227   0.74327   0.64129   0.00000  Uiso   1.00
O951   O     0.30619   0.77028   0.99511   0.00000  Uiso   1.00
C952   C     0.30475   0.71904   0.50945   0.00000  Uiso   1.00
H953   H     0.32634   0.72005   0.54340   0.00000  Uiso   1.00
H954   H     0.32793   0.69601   0.97720   0.00000  Uiso   1.00
H955   H     0.25517   0.69810   0.52020   0.00000  Uiso   1.00
O956   O     0.22172   0.68456   0.79683   0.00000  Uiso   1.00
C957   C     0.28525   0.68104   0.78280   0.00000  Uiso   1.00
H958   H     0.30173   0.67668   0.74067   0.00000  Uiso   1.00
H959   H     0.29366   0.98176   0.80285   0.00000  Uiso   1.00
H960   H     0.31407   0.71786   0.79602   0.00000  Uiso   1.00
C961   C     0.51404   0.93332   0.75443   0.00000  Uiso   1.00
C962   C     0.47287   0.83781   0.98796   0.00000  Uiso   1.00
C963   C     0.48851   0.85256   0.93623   0.00000  Uiso   1.00
C964   C     0.51966   0.85121   0.51829   0.00000  Uiso   1.00
C965   C     0.57822   0.88419   0.99863   0.00000  Uiso   1.00
C966   C     0.58981   0.90345   0.94968   0.00000  Uiso   1.00
C967   C     0.54552   0.88832   0.91908   0.00000  Uiso   1.00
C968   C     0.51037   0.83188   0.56731   0.00000  Uiso   1.00
C969   C     0.61215   0.88206   0.57893   0.00000  Uiso   1.00
C970   C     0.44622   0.83181   0.90325   0.00000  Uiso   1.00
C971   C     0.51931   0.98931   0.76288   0.00000  Uiso   1.00
C972   C     0.46671   0.83262   0.84719   0.00000  Uiso   1.00
C973   C     0.47913   0.67755   0.74544   0.00000  Uiso   1.00
C974   C     0.48502   0.73334   0.74883   0.00000  Uiso   1.00
C975   C     0.53384   0.83787   0.65307   0.00000  Uiso   1.00
C976   C     0.62434   0.89829   0.52845   0.00000  Uiso   1.00
C977   C     0.55438   0.84873   0.59843   0.00000  Uiso   1.00
C978   C     0.38542   0.80477   0.92381   0.00000  Uiso   1.00
C979   C     0.36745   0.79461   0.97569   0.00000  Uiso   1.00
C980   C     0.41079   0.81112   0.50760   0.00000  Uiso   1.00
Cu981  Cu    0.44043   0.82772   0.74436   0.00000  Uiso   1.00
Cu982  Cu    0.55957   0.83895   0.75565   0.00000  Uiso   1.00
H983   H     0.44443   0.98791   0.72491   0.00000  Uiso   1.00
H984   H     0.33877   0.87729   0.78505   0.00000  Uiso   1.00
H985   H     0.63347   0.93023   0.93483   0.00000  Uiso   1.00
H986   H     0.33602   0.92295   0.51305   0.00000  Uiso   1.00
H987   H     0.46869   0.80363   0.58254   0.00000  Uiso   1.00
H988   H     0.35206   0.78988   0.89931   0.00000  Uiso   1.00
H989   H     0.39383   0.80425   0.54777   0.00000  Uiso   1.00
H990   H     0.55605   0.90629   0.88234   0.00000  Uiso   1.00
N991   N     0.64908   0.84741   0.76416   0.00000  Uiso   1.00
N992   N     0.35092   0.81926   0.73584   0.00000  Uiso   1.00
O993   O     0.46131   0.90474   0.74633   0.00000  Uiso   1.00
O994   O     0.56191   0.91422   0.75587   0.00000  Uiso   1.00
O995   O     0.42515   0.82627   0.81840   0.00000  Uiso   1.00
O996   O     0.52575   0.83575   0.82793   0.00000  Uiso   1.00
O997   O     0.43809   0.75245   0.74414   0.00000  Uiso   1.00
O998   O     0.53869   0.76193   0.75367   0.00000  Uiso   1.00
O999   O     0.47425   0.83092   0.67207   0.00000  Uiso   1.00
O1000  O     0.57485   0.84040   0.68161   0.00000  Uiso   1.00
O1001  O     0.65719   0.89751   0.60861   0.00000  Uiso   1.00
C1002  C     0.65901   0.95051   0.62500   0.00000  Uiso   1.00
H1003  H     0.61210   0.95663   0.64536   0.00000  Uiso   1.00
H1004  H     0.35775   0.96124   0.65241   0.00000  Uiso   1.00
H1005  H     0.34436   0.97729   0.59239   0.00000  Uiso   1.00
O1006  O     0.65242   0.77742   0.71280   0.00000  Uiso   1.00
C1007  C     0.35359   0.77017   0.66358   0.00000  Uiso   1.00
H1008  H     0.39250   0.75073   0.66494   0.00000  Uiso   1.00
H1009  H     0.36999   0.80779   0.64308   0.00000  Uiso   1.00
H1010  H     0.65560   0.74327   0.64129   0.00000  Uiso   1.00
O1011  O     0.63952   0.77028   0.99511   0.00000  Uiso   1.00
C1012  C     0.63808   0.71904   0.50945   0.00000  Uiso   1.00
H1013  H     0.65968   0.72005   0.54340   0.00000  Uiso   1.00
H1014  H     0.66126   0.69601   0.97720   0.00000  Uiso   1.00
H1015  H     0.58850   0.69810   0.52020   0.00000  Uiso   1.00
O1016  O     0.55506   0.68456   0.79683   0.00000  Uiso   1.00
C1017  C     0.61858   0.68104   0.78280   0.00000  Uiso   1.00
H1018  H     0.63506   0.67668   0.74067   0.00000  Uiso   1.00
H1019  H     0.62699   0.98176   0.80285   0.00000  Uiso   1.00
H1020  H     0.64741   0.71786   0.79602   0.00000  Uiso   1.00
C1021  C     0.84738   0.93332   0.75443   0.00000  Uiso   1.00
C1022  C     0.80620   0.83781   0.98796   0.00000  Uiso   1.00
C1023  C     0.82184   0.85256   0.93623   0.00000  Uiso   1.00
C1024  C     0.85300   0.85121   0.51829   0.00000  Uiso   1.00
C1025  C     0.91156   0.88419   0.99863   0.00000  Uiso   1.00
C1026  C     0.92315   0.90345   0.94968   0.00000  Uiso   1.00
C1027  C     0.87885   0.88832   0.91908   0.00000  Uiso   1.00
C1028  C     0.84370   0.83188   0.56731   0.00000  Uiso   1.00
C1029  C     0.94548   0.88206   0.57893   0.00000  Uiso   1.00
C1030  C     0.77956   0.83181   0.90325   0.00000  Uiso   1.00
C1031  C     0.85264   0.98931   0.76288   0.00000  Uiso   1.00
C1032  C     0.80004   0.83262   0.84719   0.00000  Uiso   1.00
C1033  C     0.81246   0.67755   0.74544   0.00000  Uiso   1.00
C1034  C     0.81835   0.73334   0.74883   0.00000  Uiso   1.00
C1035  C     0.86718   0.83787   0.65307   0.00000  Uiso   1.00
C1036  C     0.95767   0.89829   0.52845   0.00000  Uiso   1.00
C1037  C     0.88771   0.84873   0.59843   0.00000  Uiso   1.00
C1038  C     0.71875   0.80477   0.92381   0.00000  Uiso   1.00
C1039  C     0.70078   0.79461   0.97569   0.00000  Uiso   1.00
C1040  C     0.74412   0.81112   0.50760   0.00000  Uiso   1.00
Cu1041 Cu    0.77377   0.82772   0.74436   0.00000  Uiso   1.00
Cu1042 Cu    0.89290   0.83895   0.75565   0.00000  Uiso   1.00
H1043  H     0.77776   0.98791   0.72491   0.00000  Uiso   1.00
H1044  H     0.67210   0.87729   0.78505   0.00000  Uiso   1.00
H1045  H     0.96681   0.93023   0.93483   0.00000  Uiso   1.00
H1046  H     0.66935   0.92295   0.51305   0.00000  Uiso   1.00
H1047  H     0.80202   0.80363   0.58254   0.00000  Uiso   1.00
H1048  H     0.68539   0.78988   0.89931   0.00000  Uiso   1.00
H1049  H     0.72716   0.80425   0.54777   0.00000  Uiso   1.00
H1050  H     0.88938   0.90629   0.88234   0.00000  Uiso   1.00
N1051  N     0.98241   0.84741   0.76416   0.00000  Uiso   1.00
N1052  N     0.68426   0.81926   0.73584   0.00000  Uiso   1.00
O1053  O     0.79464   0.90474   0.74633   0.00000  Uiso   1.00
O1054  O     0.89524   0.91422   0.75587   0.00000  Uiso   1.00
O1055  O     0.75848   0.82627   0.81840   0.00000  Uiso   1.00
O1056  O     0.85908   0.83575   0.82793   0.00000  Uiso   1.00
O1057  O     0.77142   0.75245   0.74414   0.00000  Uiso   1.00
O1058  O     0.87203   0.76193   0.75367   0.00000  Uiso   1.00
O1059  O     0.80758   0.83092   0.67207   0.00000  Uiso   1.00
O1060  O     0.90819   0.84040   0.68161   0.00000  Uiso   1.00
O1061  O     0.99053   0.89751   0.60861   0.00000  Uiso   1.00
C1062  C     0.99235   0.95051   0.62500   0.00000  Uiso   1.00
H1063  H     0.94543   0.95663   0.64536   0.00000  Uiso   1.00
H1064  H     0.69108   0.96124   0.65241   0.00000  Uiso   1.00
H1065  H     0.67769   0.97729   0.59239   0.00000  Uiso   1.00
O1066  O     0.98575   0.77742   0.71280   0.00000  Uiso   1.00
C1067  C     0.68692   0.77017   0.66358   0.00000  Uiso   1.00
H1068  H     0.72583   0.75073   0.66494   0.00000  Uiso   1.00
H1069  H     0.70333   0.80779   0.64308   0.00000  Uiso   1.00
H1070  H     0.98894   0.74327   0.64129   0.00000  Uiso   1.00
O1071  O     0.97285   0.77028   0.99511   0.00000  Uiso   1.00
C1072  C     0.97141   0.71904   0.50945   0.00000  Uiso   1.00
H1073  H     0.99301   0.72005   0.54340   0.00000  Uiso   1.00
H1074  H     0.99459   0.69601   0.97720   0.00000  Uiso   1.00
H1075  H     0.92184   0.69810   0.52020   0.00000  Uiso   1.00
O1076  O     0.88839   0.68456   0.79683   0.00000  Uiso   1.00
C1077  C     0.95191   0.68104   0.78280   0.00000  Uiso   1.00
H1078  H     0.96839   0.67668   0.74067   0.00000  Uiso   1.00
H1079  H     0.96032   0.98176   0.80285   0.00000  Uiso   1.00
H1080  H     0.98074   0.71786   0.79602   0.00000  Uiso   1.00
loop_
_geom_bond_atom_site_label_1
_geom_bond_atom_site_label_2
_geom_bond_distance
_geom_bond_site_symmetry_2
_ccdc_geom_bond_type
C1     O33     1.298   .     A
C1     O34     1.285   .     A
C1     C11     1.442   .     S
C2     C3      1.417   .     A
C2     C544    1.424   .     S
C2     C560    1.417   .     S
C3     C10     1.419   .     A
C3     C7      1.413   .     A
C4     C8      1.400   .     A
C4     C542    1.424   1_554 S
C4     C545    1.418   1_554 S
C5     C6      1.392   .     A
C5     C544    1.418   .     S
C5     C556    1.403   .     S
C6     C7      1.387   .     A
C6     H25     1.084   .     S
C7     H30     1.081   .     S
C8     C17     1.397   .     A
C8     H27     1.077   .     S
C9     O41     1.384   .     S
C9     C17     1.409   .     A
C9     C16     1.401   .     A
C10    C18     1.403   .     A
C10    C12     1.473   .     S
C11    C193    1.336   .     S
C11    O236    1.398   .     S
C12    O36     1.299   .     A
C12    O35     1.303   .     A
C13    C14     1.429   .     S
C13    C371    1.336   1_545 S
C13    H383    1.088   1_545 S
C14    O38     1.290   .     A
C14    O37     1.289   .     A
C15    O39     1.299   .     A
C15    O40     1.300   .     A
C15    C17     1.467   .     S
C16    C545    1.403   1_554 S
C16    H86     1.084   .     S
C18    H28     1.084   .     S
C18    C19     1.391   .     A
C19    C560    1.400   .     S
C19    O171    1.383   1_455 S
C20    H29     1.077   .     S
C20    C559    1.400   1_554 S
C20    C542    1.417   1_554 S
Cu21   O35     1.940   .     S
Cu21   O39     1.923   .     S
Cu21   N32     2.023   .     S
Cu21   O33     1.957   .     S
Cu21   O37     1.951   .     S
Cu21   Cu22    2.693   .     S
Cu22   O36     1.923   .     S
Cu22   O40     1.940   .     S
Cu22   O34     1.951   .     S
Cu22   O38     1.957   .     S
Cu22   N31     2.023   .     S
H23    C193    1.088   .     S
H24    N151    1.029   1_455 S
H26    C136    1.084   1_455 S
N31    H84     1.029   .     S
N31    N92     1.284   .     S
N32    N151    1.284   1_455 S
N32    O166    1.346   1_455 S
O41    C42     1.411   .     S
C42    H43     1.114   .     S
C42    H104    1.110   .     S
C42    H105    1.112   .     S
H44    C162    1.110   1_455 S
H45    C162    1.112   1_455 S
O46    N92     1.346   .     S
O46    C107    1.401   .     S
C47    H49     1.113   .     S
C47    H48     1.108   .     S
C47    O166    1.401   1_455 S
C47    H170    1.109   1_455 S
H50    C107    1.109   .     S
O51    C79     1.383   .     S
O51    C592    1.411   .     S
C52    H55     1.109   .     S
C52    H53     1.111   .     S
C52    O591    1.411   1_554 S
C52    H594    1.114   1_554 S
H54    C592    1.114   .     S
O56    C57     1.412   .     S
O56    C371    1.398   1_545 S
C57    H58     1.115   .     S
C57    H60     1.109   .     S
C57    H419    1.110   1_545 S
H59    C237    1.110   .     S
C61    O93     1.298   .     A
C61    O94     1.285   .     A
C61    C71     1.442   .     S
C62    C63     1.417   .     A
C62    C604    1.424   .     S
C62    C620    1.417   .     S
C63    C70     1.419   .     A
C63    C67     1.413   .     A
C64    C68     1.400   .     A
C64    C602    1.424   1_554 S
C64    C605    1.418   1_554 S
C65    C66     1.392   .     A
C65    C604    1.418   .     S
C65    C616    1.403   .     S
C66    C67     1.387   .     A
C66    H85     1.084   .     S
C67    H90     1.081   .     S
C68    C77     1.397   .     A
C68    H87     1.077   .     S
C69    O101    1.384   .     S
C69    C77     1.409   .     A
C69    C76     1.401   .     A
C70    C78     1.403   .     A
C70    C72     1.473   .     S
C71    C253    1.336   .     S
C71    O296    1.398   .     S
C72    O96     1.299   .     A
C72    O95     1.303   .     A
C73    C74     1.429   .     S
C73    C431    1.336   1_545 S
C73    H443    1.088   1_545 S
C74    O98     1.290   .     A
C74    O97     1.289   .     A
C75    O99     1.299   .     A
C75    O100    1.300   .     A
C75    C77     1.467   .     S
C76    C605    1.403   1_554 S
C76    H146    1.084   .     S
C78    H88     1.084   .     S
C78    C79     1.391   .     A
C79    C620    1.400   .     S
C80    H89     1.077   .     S
C80    C619    1.400   1_554 S
C80    C602    1.417   1_554 S
Cu81   O95     1.940   .     S
Cu81   O99     1.923   .     S
Cu81   N92     2.023   .     S
Cu81   O93     1.957   .     S
Cu81   O97     1.951   .     S
Cu81   Cu82    2.693   .     S
Cu82   O96     1.923   .     S
Cu82   O100    1.940   .     S
Cu82   O94     1.951   .     S
Cu82   O98     1.957   .     S
Cu82   N91     2.023   .     S
H83    C253    1.088   .     S
N91    H144    1.029   .     S
N91    N152    1.284   .     S
O101   C102    1.411   .     S
C102   H103    1.114   .     S
C102   H164    1.110   .     S
C102   H165    1.112   .     S
O106   N152    1.346   .     S
O106   C167    1.401   .     S
C107   H109    1.113   .     S
C107   H108    1.108   .     S
H110   C167    1.109   .     S
O111   C139    1.383   .     S
O111   C652    1.411   .     S
C112   H115    1.109   .     S
C112   H113    1.111   .     S
C112   O651    1.411   1_554 S
C112   H654    1.114   1_554 S
H114   C652    1.114   .     S
O116   C117    1.412   .     S
O116   C431    1.398   1_545 S
C117   H118    1.115   .     S
C117   H120    1.109   .     S
C117   H479    1.110   1_545 S
H119   C297    1.110   .     S
C121   O153    1.298   .     A
C121   O154    1.285   .     A
C121   C131    1.442   .     S
C122   C123    1.417   .     A
C122   C664    1.424   .     S
C122   C680    1.417   .     S
C123   C130    1.419   .     A
C123   C127    1.413   .     A
C124   C128    1.400   .     A
C124   C662    1.424   1_554 S
C124   C665    1.418   1_554 S
C125   C126    1.392   .     A
C125   C664    1.418   .     S
C125   C676    1.403   .     S
C126   C127    1.387   .     A
C126   H145    1.084   .     S
C127   H150    1.081   .     S
C128   C137    1.397   .     A
C128   H147    1.077   .     S
C129   O161    1.384   .     S
C129   C137    1.409   .     A
C129   C136    1.401   .     A
C130   C138    1.403   .     A
C130   C132    1.473   .     S
C131   C313    1.336   .     S
C131   O356    1.398   .     S
C132   O156    1.299   .     A
C132   O155    1.303   .     A
C133   C134    1.429   .     S
C133   C491    1.336   1_545 S
C133   H503    1.088   1_545 S
C134   O158    1.290   .     A
C134   O157    1.289   .     A
C135   O159    1.299   .     A
C135   O160    1.300   .     A
C135   C137    1.467   .     S
C136   C665    1.403   1_554 S
C136   H26     1.084   1_655 S
C138   H148    1.084   .     S
C138   C139    1.391   .     A
C139   C680    1.400   .     S
C140   H149    1.077   .     S
C140   C679    1.400   1_554 S
C140   C662    1.417   1_554 S
Cu141  O155    1.940   .     S
Cu141  O159    1.923   .     S
Cu141  N152    2.023   .     S
Cu141  O153    1.957   .     S
Cu141  O157    1.951   .     S
Cu141  Cu142   2.693   .     S
Cu142  O156    1.923   .     S
Cu142  O160    1.940   .     S
Cu142  O154    1.951   .     S
Cu142  O158    1.957   .     S
Cu142  N151    2.023   .     S
H143   C313    1.088   .     S
N151   H24     1.029   1_655 S
N151   N32     1.284   1_655 S
O161   C162    1.411   .     S
C162   H163    1.114   .     S
C162   H44     1.110   1_655 S
C162   H45     1.112   1_655 S
O166   N32     1.346   1_655 S
O166   C47     1.401   1_655 S
C167   H169    1.113   .     S
C167   H168    1.108   .     S
H170   C47     1.109   1_655 S
O171   C19     1.383   1_655 S
O171   C712    1.411   .     S
C172   H175    1.109   .     S
C172   H173    1.111   .     S
C172   O711    1.411   1_554 S
C172   H714    1.114   1_554 S
H174   C712    1.114   .     S
O176   C177    1.412   .     S
O176   C491    1.398   1_545 S
C177   H178    1.115   .     S
C177   H180    1.109   .     S
C177   H539    1.110   1_545 S
H179   C357    1.110   .     S
C181   O213    1.298   .     A
C181   O214    1.285   .     A
C181   C191    1.442   .     S
C182   C183    1.417   .     A
C182   C724    1.424   .     S
C182   C740    1.417   .     S
C183   C190    1.419   .     A
C183   C187    1.413   .     A
C184   C188    1.400   .     A
C184   C722    1.424   1_554 S
C184   C725    1.418   1_554 S
C185   C186    1.392   .     A
C185   C724    1.418   .     S
C185   C736    1.403   .     S
C186   C187    1.387   .     A
C186   H205    1.084   .     S
C187   H210    1.081   .     S
C188   C197    1.397   .     A
C188   H207    1.077   .     S
C189   O221    1.384   .     S
C189   C197    1.409   .     A
C189   C196    1.401   .     A
C190   C198    1.403   .     A
C190   C192    1.473   .     S
C191   C373    1.336   .     S
C191   O416    1.398   .     S
C192   O216    1.299   .     A
C192   O215    1.303   .     A
C193   C194    1.429   .     S
C194   O218    1.290   .     A
C194   O217    1.289   .     A
C195   O219    1.299   .     A
C195   O220    1.300   .     A
C195   C197    1.467   .     S
C196   C725    1.403   1_554 S
C196   H266    1.084   .     S
C198   H208    1.084   .     S
C198   C199    1.391   .     A
C199   C740    1.400   .     S
C199   O351    1.383   1_455 S
C200   H209    1.077   .     S
C200   C739    1.400   1_554 S
C200   C722    1.417   1_554 S
Cu201  O215    1.940   .     S
Cu201  O219    1.923   .     S
Cu201  N212    2.023   .     S
Cu201  O213    1.957   .     S
Cu201  O217    1.951   .     S
Cu201  Cu202   2.693   .     S
Cu202  O216    1.923   .     S
Cu202  O220    1.940   .     S
Cu202  O214    1.951   .     S
Cu202  O218    1.957   .     S
Cu202  N211    2.023   .     S
H203   C373    1.088   .     S
H204   N331    1.029   1_455 S
H206   C316    1.084   1_455 S
N211   H264    1.029   .     S
N211   N272    1.284   .     S
N212   N331    1.284   1_455 S
N212   O346    1.346   1_455 S
O221   C222    1.411   .     S
C222   H223    1.114   .     S
C222   H284    1.110   .     S
C222   H285    1.112   .     S
H224   C342    1.110   1_455 S
H225   C342    1.112   1_455 S
O226   N272    1.346   .     S
O226   C287    1.401   .     S
C227   H229    1.113   .     S
C227   H228    1.108   .     S
C227   O346    1.401   1_455 S
C227   H350    1.109   1_455 S
H230   C287    1.109   .     S
O231   C259    1.383   .     S
O231   C772    1.411   .     S
C232   H235    1.109   .     S
C232   H233    1.111   .     S
C232   O771    1.411   1_554 S
C232   H774    1.114   1_554 S
H234   C772    1.114   .     S
O236   C237    1.412   .     S
C237   H238    1.115   .     S
C237   H240    1.109   .     S
H239   C417    1.110   .     S
C241   O273    1.298   .     A
C241   O274    1.285   .     A
C241   C251    1.442   .     S
C242   C243    1.417   .     A
C242   C784    1.424   .     S
C242   C800    1.417   .     S
C243   C250    1.419   .     A
C243   C247    1.413   .     A
C244   C248    1.400   .     A
C244   C782    1.424   1_554 S
C244   C785    1.418   1_554 S
C245   C246    1.392   .     A
C245   C784    1.418   .     S
C245   C796    1.403   .     S
C246   C247    1.387   .     A
C246   H265    1.084   .     S
C247   H270    1.081   .     S
C248   C257    1.397   .     A
C248   H267    1.077   .     S
C249   O281    1.384   .     S
C249   C257    1.409   .     A
C249   C256    1.401   .     A
C250   C258    1.403   .     A
C250   C252    1.473   .     S
C251   C433    1.336   .     S
C251   O476    1.398   .     S
C252   O276    1.299   .     A
C252   O275    1.303   .     A
C253   C254    1.429   .     S
C254   O278    1.290   .     A
C254   O277    1.289   .     A
C255   O279    1.299   .     A
C255   O280    1.300   .     A
C255   C257    1.467   .     S
C256   C785    1.403   1_554 S
C256   H326    1.084   .     S
C258   H268    1.084   .     S
C258   C259    1.391   .     A
C259   C800    1.400   .     S
C260   H269    1.077   .     S
C260   C799    1.400   1_554 S
C260   C782    1.417   1_554 S
Cu261  O275    1.940   .     S
Cu261  O279    1.923   .     S
Cu261  N272    2.023   .     S
Cu261  O273    1.957   .     S
Cu261  O277    1.951   .     S
Cu261  Cu262   2.693   .     S
Cu262  O276    1.923   .     S
Cu262  O280    1.940   .     S
Cu262  O274    1.951   .     S
Cu262  O278    1.957   .     S
Cu262  N271    2.023   .     S
H263   C433    1.088   .     S
N271   H324    1.029   .     S
N271   N332    1.284   .     S
O281   C282    1.411   .     S
C282   H283    1.114   .     S
C282   H344    1.110   .     S
C282   H345    1.112   .     S
O286   N332    1.346   .     S
O286   C347    1.401   .     S
C287   H289    1.113   .     S
C287   H288    1.108   .     S
H290   C347    1.109   .     S
O291   C319    1.383   .     S
O291   C832    1.411   .     S
C292   H295    1.109   .     S
C292   H293    1.111   .     S
C292   O831    1.411   1_554 S
C292   H834    1.114   1_554 S
H294   C832    1.114   .     S
O296   C297    1.412   .     S
C297   H298    1.115   .     S
C297   H300    1.109   .     S
H299   C477    1.110   .     S
C301   O333    1.298   .     A
C301   O334    1.285   .     A
C301   C311    1.442   .     S
C302   C303    1.417   .     A
C302   C844    1.424   .     S
C302   C860    1.417   .     S
C303   C310    1.419   .     A
C303   C307    1.413   .     A
C304   C308    1.400   .     A
C304   C842    1.424   1_554 S
C304   C845    1.418   1_554 S
C305   C306    1.392   .     A
C305   C844    1.418   .     S
C305   C856    1.403   .     S
C306   C307    1.387   .     A
C306   H325    1.084   .     S
C307   H330    1.081   .     S
C308   C317    1.397   .     A
C308   H327    1.077   .     S
C309   O341    1.384   .     S
C309   C317    1.409   .     A
C309   C316    1.401   .     A
C310   C318    1.403   .     A
C310   C312    1.473   .     S
C311   C493    1.336   .     S
C311   O536    1.398   .     S
C312   O336    1.299   .     A
C312   O335    1.303   .     A
C313   C314    1.429   .     S
C314   O338    1.290   .     A
C314   O337    1.289   .     A
C315   O339    1.299   .     A
C315   O340    1.300   .     A
C315   C317    1.467   .     S
C316   C845    1.403   1_554 S
C316   H206    1.084   1_655 S
C318   H328    1.084   .     S
C318   C319    1.391   .     A
C319   C860    1.400   .     S
C320   H329    1.077   .     S
C320   C859    1.400   1_554 S
C320   C842    1.417   1_554 S
Cu321  O335    1.940   .     S
Cu321  O339    1.923   .     S
Cu321  N332    2.023   .     S
Cu321  O333    1.957   .     S
Cu321  O337    1.951   .     S
Cu321  Cu322   2.693   .     S
Cu322  O336    1.923   .     S
Cu322  O340    1.940   .     S
Cu322  O334    1.951   .     S
Cu322  O338    1.957   .     S
Cu322  N331    2.023   .     S
H323   C493    1.088   .     S
N331   H204    1.029   1_655 S
N331   N212    1.284   1_655 S
O341   C342    1.411   .     S
C342   H343    1.114   .     S
C342   H224    1.110   1_655 S
C342   H225    1.112   1_655 S
O346   N212    1.346   1_655 S
O346   C227    1.401   1_655 S
C347   H349    1.113   .     S
C347   H348    1.108   .     S
H350   C227    1.109   1_655 S
O351   C199    1.383   1_655 S
O351   C892    1.411   .     S
C352   H355    1.109   .     S
C352   H353    1.111   .     S
C352   O891    1.411   1_554 S
C352   H894    1.114   1_554 S
H354   C892    1.114   .     S
O356   C357    1.412   .     S
C357   H358    1.115   .     S
C357   H360    1.109   .     S
H359   C537    1.110   .     S
C361   O393    1.298   .     A
C361   O394    1.285   .     A
C361   C371    1.442   .     S
C362   C363    1.417   .     A
C362   C904    1.424   .     S
C362   C920    1.417   .     S
C363   C370    1.419   .     A
C363   C367    1.413   .     A
C364   C368    1.400   .     A
C364   C902    1.424   1_554 S
C364   C905    1.418   1_554 S
C365   C366    1.392   .     A
C365   C904    1.418   .     S
C365   C916    1.403   .     S
C366   C367    1.387   .     A
C366   H385    1.084   .     S
C367   H390    1.081   .     S
C368   C377    1.397   .     A
C368   H387    1.077   .     S
C369   O401    1.384   .     S
C369   C377    1.409   .     A
C369   C376    1.401   .     A
C370   C378    1.403   .     A
C370   C372    1.473   .     S
C371   C13     1.336   1_565 S
C371   O56     1.398   1_565 S
C372   O396    1.299   .     A
C372   O395    1.303   .     A
C373   C374    1.429   .     S
C374   O398    1.290   .     A
C374   O397    1.289   .     A
C375   O399    1.299   .     A
C375   O400    1.300   .     A
C375   C377    1.467   .     S
C376   C905    1.403   1_554 S
C376   H446    1.084   .     S
C378   H388    1.084   .     S
C378   C379    1.391   .     A
C379   C920    1.400   .     S
C379   O531    1.383   1_455 S
C380   H389    1.077   .     S
C380   C919    1.400   1_554 S
C380   C902    1.417   1_554 S
Cu381  O395    1.940   .     S
Cu381  O399    1.923   .     S
Cu381  N392    2.023   .     S
Cu381  O393    1.957   .     S
Cu381  O397    1.951   .     S
Cu381  Cu382   2.693   .     S
Cu382  O396    1.923   .     S
Cu382  O400    1.940   .     S
Cu382  O394    1.951   .     S
Cu382  O398    1.957   .     S
Cu382  N391    2.023   .     S
H383   C13     1.088   1_565 S
H384   N511    1.029   1_455 S
H386   C496    1.084   1_455 S
N391   H444    1.029   .     S
N391   N452    1.284   .     S
N392   N511    1.284   1_455 S
N392   O526    1.346   1_455 S
O401   C402    1.411   .     S
C402   H403    1.114   .     S
C402   H464    1.110   .     S
C402   H465    1.112   .     S
H404   C522    1.110   1_455 S
H405   C522    1.112   1_455 S
O406   N452    1.346   .     S
O406   C467    1.401   .     S
C407   H409    1.113   .     S
C407   H408    1.108   .     S
C407   O526    1.401   1_455 S
C407   H530    1.109   1_455 S
H410   C467    1.109   .     S
O411   C439    1.383   .     S
O411   C952    1.411   .     S
C412   H415    1.109   .     S
C412   H413    1.111   .     S
C412   O951    1.411   1_554 S
C412   H954    1.114   1_554 S
H414   C952    1.114   .     S
O416   C417    1.412   .     S
C417   H418    1.115   .     S
C417   H420    1.109   .     S
H419   C57     1.110   1_565 S
C421   O453    1.298   .     A
C421   O454    1.285   .     A
C421   C431    1.442   .     S
C422   C423    1.417   .     A
C422   C964    1.424   .     S
C422   C980    1.417   .     S
C423   C430    1.419   .     A
C423   C427    1.413   .     A
C424   C428    1.400   .     A
C424   C962    1.424   1_554 S
C424   C965    1.418   1_554 S
C425   C426    1.392   .     A
C425   C964    1.418   .     S
C425   C976    1.403   .     S
C426   C427    1.387   .     A
C426   H445    1.084   .     S
C427   H450    1.081   .     S
C428   C437    1.397   .     A
C428   H447    1.077   .     S
C429   O461    1.384   .     S
C429   C437    1.409   .     A
C429   C436    1.401   .     A
C430   C438    1.403   .     A
C430   C432    1.473   .     S
C431   C73     1.336   1_565 S
C431   O116    1.398   1_565 S
C432   O456    1.299   .     A
C432   O455    1.303   .     A
C433   C434    1.429   .     S
C434   O458    1.290   .     A
C434   O457    1.289   .     A
C435   O459    1.299   .     A
C435   O460    1.300   .     A
C435   C437    1.467   .     S
C436   C965    1.403   1_554 S
C436   H506    1.084   .     S
C438   H448    1.084   .     S
C438   C439    1.391   .     A
C439   C980    1.400   .     S
C440   H449    1.077   .     S
C440   C979    1.400   1_554 S
C440   C962    1.417   1_554 S
Cu441  O455    1.940   .     S
Cu441  O459    1.923   .     S
Cu441  N452    2.023   .     S
Cu441  O453    1.957   .     S
Cu441  O457    1.951   .     S
Cu441  Cu442   2.693   .     S
Cu442  O456    1.923   .     S
Cu442  O460    1.940   .     S
Cu442  O454    1.951   .     S
Cu442  O458    1.957   .     S
Cu442  N451    2.023   .     S
H443   C73     1.088   1_565 S
N451   H504    1.029   .     S
N451   N512    1.284   .     S
O461   C462    1.411   .     S
C462   H463    1.114   .     S
C462   H524    1.110   .     S
C462   H525    1.112   .     S
O466   N512    1.346   .     S
O466   C527    1.401   .     S
C467   H469    1.113   .     S
C467   H468    1.108   .     S
H470   C527    1.109   .     S
O471   C499    1.383   .     S
O471   C1012   1.411   .     S
C472   H475    1.109   .     S
C472   H473    1.111   .     S
C472   O1011   1.411   1_554 S
C472   H1014   1.114   1_554 S
H474   C1012   1.114   .     S
O476   C477    1.412   .     S
C477   H478    1.115   .     S
C477   H480    1.109   .     S
H479   C117    1.110   1_565 S
C481   O513    1.298   .     A
C481   O514    1.285   .     A
C481   C491    1.442   .     S
C482   C483    1.417   .     A
C482   C1024   1.424   .     S
C482   C1040   1.417   .     S
C483   C490    1.419   .     A
C483   C487    1.413   .     A
C484   C488    1.400   .     A
C484   C1022   1.424   1_554 S
C484   C1025   1.418   1_554 S
C485   C486    1.392   .     A
C485   C1024   1.418   .     S
C485   C1036   1.403   .     S
C486   C487    1.387   .     A
C486   H505    1.084   .     S
C487   H510    1.081   .     S
C488   C497    1.397   .     A
C488   H507    1.077   .     S
C489   O521    1.384   .     S
C489   C497    1.409   .     A
C489   C496    1.401   .     A
C490   C498    1.403   .     A
C490   C492    1.473   .     S
C491   C133    1.336   1_565 S
C491   O176    1.398   1_565 S
C492   O516    1.299   .     A
C492   O515    1.303   .     A
C493   C494    1.429   .     S
C494   O518    1.290   .     A
C494   O517    1.289   .     A
C495   O519    1.299   .     A
C495   O520    1.300   .     A
C495   C497    1.467   .     S
C496   C1025   1.403   1_554 S
C496   H386    1.084   1_655 S
C498   H508    1.084   .     S
C498   C499    1.391   .     A
C499   C1040   1.400   .     S
C500   H509    1.077   .     S
C500   C1039   1.400   1_554 S
C500   C1022   1.417   1_554 S
Cu501  O515    1.940   .     S
Cu501  O519    1.923   .     S
Cu501  N512    2.023   .     S
Cu501  O513    1.957   .     S
Cu501  O517    1.951   .     S
Cu501  Cu502   2.693   .     S
Cu502  O516    1.923   .     S
Cu502  O520    1.940   .     S
Cu502  O514    1.951   .     S
Cu502  O518    1.957   .     S
Cu502  N511    2.023   .     S
H503   C133    1.088   1_565 S
N511   H384    1.029   1_655 S
N511   N392    1.284   1_655 S
O521   C522    1.411   .     S
C522   H523    1.114   .     S
C522   H404    1.110   1_655 S
C522   H405    1.112   1_655 S
O526   N392    1.346   1_655 S
O526   C407    1.401   1_655 S
C527   H529    1.113   .     S
C527   H528    1.108   .     S
H530   C407    1.109   1_655 S
O531   C379    1.383   1_655 S
O531   C1072   1.411   .     S
C532   H535    1.109   .     S
C532   H533    1.111   .     S
C532   O1071   1.411   1_554 S
C532   H1074   1.114   1_554 S
H534   C1072   1.114   .     S
O536   C537    1.412   .     S
C537   H538    1.115   .     S
C537   H540    1.109   .     S
H539   C177    1.110   1_565 S
C541   O573    1.298   .     A
C541   O574    1.285   .     A
C541   C551    1.442   .     S
C542   C543    1.417   .     A
C542   C4      1.424   1_556 S
C542   C20     1.417   1_556 S
C543   C550    1.419   .     A
C543   C547    1.413   .     A
C544   C548    1.400   .     A
C545   C546    1.392   .     A
C545   C4      1.418   1_556 S
C545   C16     1.403   1_556 S
C546   C547    1.387   .     A
C546   H565    1.084   .     S
C547   H570    1.081   .     S
C548   C557    1.397   .     A
C548   H567    1.077   .     S
C549   O581    1.384   .     S
C549   C557    1.409   .     A
C549   C556    1.401   .     A
C550   C558    1.403   .     A
C550   C552    1.473   .     S
C551   C733    1.336   .     S
C551   O776    1.398   .     S
C552   O576    1.299   .     A
C552   O575    1.303   .     A
C553   C554    1.429   .     S
C553   C911    1.336   1_545 S
C553   H923    1.088   1_545 S
C554   O578    1.290   .     A
C554   O577    1.289   .     A
C555   O579    1.299   .     A
C555   O580    1.300   .     A
C555   C557    1.467   .     S
C556   H626    1.084   .     S
C558   H568    1.084   .     S
C558   C559    1.391   .     A
C559   C20     1.400   1_556 S
C559   O711    1.383   1_455 S
C560   H569    1.077   .     S
Cu561  O575    1.940   .     S
Cu561  O579    1.923   .     S
Cu561  N572    2.023   .     S
Cu561  O573    1.957   .     S
Cu561  O577    1.951   .     S
Cu561  Cu562   2.693   .     S
Cu562  O576    1.923   .     S
Cu562  O580    1.940   .     S
Cu562  O574    1.951   .     S
Cu562  O578    1.957   .     S
Cu562  N571    2.023   .     S
H563   C733    1.088   .     S
H564   N691    1.029   1_455 S
H566   C676    1.084   1_455 S
N571   H624    1.029   .     S
N571   N632    1.284   .     S
N572   N691    1.284   1_455 S
N572   O706    1.346   1_455 S
O581   C582    1.411   .     S
C582   H583    1.114   .     S
C582   H644    1.110   .     S
C582   H645    1.112   .     S
H584   C702    1.110   1_455 S
H585   C702    1.112   1_455 S
O586   N632    1.346   .     S
O586   C647    1.401   .     S
C587   H589    1.113   .     S
C587   H588    1.108   .     S
C587   O706    1.401   1_455 S
C587   H710    1.109   1_455 S
H590   C647    1.109   .     S
O591   C619    1.383   .     S
O591   C52     1.411   1_556 S
C592   H595    1.109   .     S
C592   H593    1.111   .     S
H594   C52     1.114   1_556 S
O596   C597    1.412   .     S
O596   C911    1.398   1_545 S
C597   H598    1.115   .     S
C597   H600    1.109   .     S
C597   H959    1.110   1_545 S
H599   C777    1.110   .     S
C601   O633    1.298   .     A
C601   O634    1.285   .     A
C601   C611    1.442   .     S
C602   C603    1.417   .     A
C602   C64     1.424   1_556 S
C602   C80     1.417   1_556 S
C603   C610    1.419   .     A
C603   C607    1.413   .     A
C604   C608    1.400   .     A
C605   C606    1.392   .     A
C605   C64     1.418   1_556 S
C605   C76     1.403   1_556 S
C606   C607    1.387   .     A
C606   H625    1.084   .     S
C607   H630    1.081   .     S
C608   C617    1.397   .     A
C608   H627    1.077   .     S
C609   O641    1.384   .     S
C609   C617    1.409   .     A
C609   C616    1.401   .     A
C610   C618    1.403   .     A
C610   C612    1.473   .     S
C611   C793    1.336   .     S
C611   O836    1.398   .     S
C612   O636    1.299   .     A
C612   O635    1.303   .     A
C613   C614    1.429   .     S
C613   C971    1.336   1_545 S
C613   H983    1.088   1_545 S
C614   O638    1.290   .     A
C614   O637    1.289   .     A
C615   O639    1.299   .     A
C615   O640    1.300   .     A
C615   C617    1.467   .     S
C616   H686    1.084   .     S
C618   H628    1.084   .     S
C618   C619    1.391   .     A
C619   C80     1.400   1_556 S
C620   H629    1.077   .     S
Cu621  O635    1.940   .     S
Cu621  O639    1.923   .     S
Cu621  N632    2.023   .     S
Cu621  O633    1.957   .     S
Cu621  O637    1.951   .     S
Cu621  Cu622   2.693   .     S
Cu622  O636    1.923   .     S
Cu622  O640    1.940   .     S
Cu622  O634    1.951   .     S
Cu622  O638    1.957   .     S
Cu622  N631    2.023   .     S
H623   C793    1.088   .     S
N631   H684    1.029   .     S
N631   N692    1.284   .     S
O641   C642    1.411   .     S
C642   H643    1.114   .     S
C642   H704    1.110   .     S
C642   H705    1.112   .     S
O646   N692    1.346   .     S
O646   C707    1.401   .     S
C647   H649    1.113   .     S
C647   H648    1.108   .     S
H650   C707    1.109   .     S
O651   C679    1.383   .     S
O651   C112    1.411   1_556 S
C652   H655    1.109   .     S
C652   H653    1.111   .     S
H654   C112    1.114   1_556 S
O656   C657    1.412   .     S
O656   C971    1.398   1_545 S
C657   H658    1.115   .     S
C657   H660    1.109   .     S
C657   H1019   1.110   1_545 S
H659   C837    1.110   .     S
C661   O693    1.298   .     A
C661   O694    1.285   .     A
C661   C671    1.442   .     S
C662   C663    1.417   .     A
C662   C124    1.424   1_556 S
C662   C140    1.417   1_556 S
C663   C670    1.419   .     A
C663   C667    1.413   .     A
C664   C668    1.400   .     A
C665   C666    1.392   .     A
C665   C124    1.418   1_556 S
C665   C136    1.403   1_556 S
C666   C667    1.387   .     A
C666   H685    1.084   .     S
C667   H690    1.081   .     S
C668   C677    1.397   .     A
C668   H687    1.077   .     S
C669   O701    1.384   .     S
C669   C677    1.409   .     A
C669   C676    1.401   .     A
C670   C678    1.403   .     A
C670   C672    1.473   .     S
C671   C853    1.336   .     S
C671   O896    1.398   .     S
C672   O696    1.299   .     A
C672   O695    1.303   .     A
C673   C674    1.429   .     S
C673   C1031   1.336   1_545 S
C673   H1043   1.088   1_545 S
C674   O698    1.290   .     A
C674   O697    1.289   .     A
C675   O699    1.299   .     A
C675   O700    1.300   .     A
C675   C677    1.467   .     S
C676   H566    1.084   1_655 S
C678   H688    1.084   .     S
C678   C679    1.391   .     A
C679   C140    1.400   1_556 S
C680   H689    1.077   .     S
Cu681  O695    1.940   .     S
Cu681  O699    1.923   .     S
Cu681  N692    2.023   .     S
Cu681  O693    1.957   .     S
Cu681  O697    1.951   .     S
Cu681  Cu682   2.693   .     S
Cu682  O696    1.923   .     S
Cu682  O700    1.940   .     S
Cu682  O694    1.951   .     S
Cu682  O698    1.957   .     S
Cu682  N691    2.023   .     S
H683   C853    1.088   .     S
N691   H564    1.029   1_655 S
N691   N572    1.284   1_655 S
O701   C702    1.411   .     S
C702   H703    1.114   .     S
C702   H584    1.110   1_655 S
C702   H585    1.112   1_655 S
O706   N572    1.346   1_655 S
O706   C587    1.401   1_655 S
C707   H709    1.113   .     S
C707   H708    1.108   .     S
H710   C587    1.109   1_655 S
O711   C559    1.383   1_655 S
O711   C172    1.411   1_556 S
C712   H715    1.109   .     S
C712   H713    1.111   .     S
H714   C172    1.114   1_556 S
O716   C717    1.412   .     S
O716   C1031   1.398   1_545 S
C717   H718    1.115   .     S
C717   H720    1.109   .     S
C717   H1079   1.110   1_545 S
H719   C897    1.110   .     S
C721   O753    1.298   .     A
C721   O754    1.285   .     A
C721   C731    1.442   .     S
C722   C723    1.417   .     A
C722   C184    1.424   1_556 S
C722   C200    1.417   1_556 S
C723   C730    1.419   .     A
C723   C727    1.413   .     A
C724   C728    1.400   .     A
C725   C726    1.392   .     A
C725   C184    1.418   1_556 S
C725   C196    1.403   1_556 S
C726   C727    1.387   .     A
C726   H745    1.084   .     S
C727   H750    1.081   .     S
C728   C737    1.397   .     A
C728   H747    1.077   .     S
C729   O761    1.384   .     S
C729   C737    1.409   .     A
C729   C736    1.401   .     A
C730   C738    1.403   .     A
C730   C732    1.473   .     S
C731   C913    1.336   .     S
C731   O956    1.398   .     S
C732   O756    1.299   .     A
C732   O755    1.303   .     A
C733   C734    1.429   .     S
C734   O758    1.290   .     A
C734   O757    1.289   .     A
C735   O759    1.299   .     A
C735   O760    1.300   .     A
C735   C737    1.467   .     S
C736   H806    1.084   .     S
C738   H748    1.084   .     S
C738   C739    1.391   .     A
C739   C200    1.400   1_556 S
C739   O891    1.383   1_455 S
C740   H749    1.077   .     S
Cu741  O755    1.940   .     S
Cu741  O759    1.923   .     S
Cu741  N752    2.023   .     S
Cu741  O753    1.957   .     S
Cu741  O757    1.951   .     S
Cu741  Cu742   2.693   .     S
Cu742  O756    1.923   .     S
Cu742  O760    1.940   .     S
Cu742  O754    1.951   .     S
Cu742  O758    1.957   .     S
Cu742  N751    2.023   .     S
H743   C913    1.088   .     S
H744   N871    1.029   1_455 S
H746   C856    1.084   1_455 S
N751   H804    1.029   .     S
N751   N812    1.284   .     S
N752   N871    1.284   1_455 S
N752   O886    1.346   1_455 S
O761   C762    1.411   .     S
C762   H763    1.114   .     S
C762   H824    1.110   .     S
C762   H825    1.112   .     S
H764   C882    1.110   1_455 S
H765   C882    1.112   1_455 S
O766   N812    1.346   .     S
O766   C827    1.401   .     S
C767   H769    1.113   .     S
C767   H768    1.108   .     S
C767   O886    1.401   1_455 S
C767   H890    1.109   1_455 S
H770   C827    1.109   .     S
O771   C799    1.383   .     S
O771   C232    1.411   1_556 S
C772   H775    1.109   .     S
C772   H773    1.111   .     S
H774   C232    1.114   1_556 S
O776   C777    1.412   .     S
C777   H778    1.115   .     S
C777   H780    1.109   .     S
H779   C957    1.110   .     S
C781   O813    1.298   .     A
C781   O814    1.285   .     A
C781   C791    1.442   .     S
C782   C783    1.417   .     A
C782   C244    1.424   1_556 S
C782   C260    1.417   1_556 S
C783   C790    1.419   .     A
C783   C787    1.413   .     A
C784   C788    1.400   .     A
C785   C786    1.392   .     A
C785   C244    1.418   1_556 S
C785   C256    1.403   1_556 S
C786   C787    1.387   .     A
C786   H805    1.084   .     S
C787   H810    1.081   .     S
C788   C797    1.397   .     A
C788   H807    1.077   .     S
C789   O821    1.384   .     S
C789   C797    1.409   .     A
C789   C796    1.401   .     A
C790   C798    1.403   .     A
C790   C792    1.473   .     S
C791   C973    1.336   .     S
C791   O1016   1.398   .     S
C792   O816    1.299   .     A
C792   O815    1.303   .     A
C793   C794    1.429   .     S
C794   O818    1.290   .     A
C794   O817    1.289   .     A
C795   O819    1.299   .     A
C795   O820    1.300   .     A
C795   C797    1.467   .     S
C796   H866    1.084   .     S
C798   H808    1.084   .     S
C798   C799    1.391   .     A
C799   C260    1.400   1_556 S
C800   H809    1.077   .     S
Cu801  O815    1.940   .     S
Cu801  O819    1.923   .     S
Cu801  N812    2.023   .     S
Cu801  O813    1.957   .     S
Cu801  O817    1.951   .     S
Cu801  Cu802   2.693   .     S
Cu802  O816    1.923   .     S
Cu802  O820    1.940   .     S
Cu802  O814    1.951   .     S
Cu802  O818    1.957   .     S
Cu802  N811    2.023   .     S
H803   C973    1.088   .     S
N811   H864    1.029   .     S
N811   N872    1.284   .     S
O821   C822    1.411   .     S
C822   H823    1.114   .     S
C822   H884    1.110   .     S
C822   H885    1.112   .     S
O826   N872    1.346   .     S
O826   C887    1.401   .     S
C827   H829    1.113   .     S
C827   H828    1.108   .     S
H830   C887    1.109   .     S
O831   C859    1.383   .     S
O831   C292    1.411   1_556 S
C832   H835    1.109   .     S
C832   H833    1.111   .     S
H834   C292    1.114   1_556 S
O836   C837    1.412   .     S
C837   H838    1.115   .     S
C837   H840    1.109   .     S
H839   C1017   1.110   .     S
C841   O873    1.298   .     A
C841   O874    1.285   .     A
C841   C851    1.442   .     S
C842   C843    1.417   .     A
C842   C304    1.424   1_556 S
C842   C320    1.417   1_556 S
C843   C850    1.419   .     A
C843   C847    1.413   .     A
C844   C848    1.400   .     A
C845   C846    1.392   .     A
C845   C304    1.418   1_556 S
C845   C316    1.403   1_556 S
C846   C847    1.387   .     A
C846   H865    1.084   .     S
C847   H870    1.081   .     S
C848   C857    1.397   .     A
C848   H867    1.077   .     S
C849   O881    1.384   .     S
C849   C857    1.409   .     A
C849   C856    1.401   .     A
C850   C858    1.403   .     A
C850   C852    1.473   .     S
C851   C1033   1.336   .     S
C851   O1076   1.398   .     S
C852   O876    1.299   .     A
C852   O875    1.303   .     A
C853   C854    1.429   .     S
C854   O878    1.290   .     A
C854   O877    1.289   .     A
C855   O879    1.299   .     A
C855   O880    1.300   .     A
C855   C857    1.467   .     S
C856   H746    1.084   1_655 S
C858   H868    1.084   .     S
C858   C859    1.391   .     A
C859   C320    1.400   1_556 S
C860   H869    1.077   .     S
Cu861  O875    1.940   .     S
Cu861  O879    1.923   .     S
Cu861  N872    2.023   .     S
Cu861  O873    1.957   .     S
Cu861  O877    1.951   .     S
Cu861  Cu862   2.693   .     S
Cu862  O876    1.923   .     S
Cu862  O880    1.940   .     S
Cu862  O874    1.951   .     S
Cu862  O878    1.957   .     S
Cu862  N871    2.023   .     S
H863   C1033   1.088   .     S
N871   H744    1.029   1_655 S
N871   N752    1.284   1_655 S
O881   C882    1.411   .     S
C882   H883    1.114   .     S
C882   H764    1.110   1_655 S
C882   H765    1.112   1_655 S
O886   N752    1.346   1_655 S
O886   C767    1.401   1_655 S
C887   H889    1.113   .     S
C887   H888    1.108   .     S
H890   C767    1.109   1_655 S
O891   C739    1.383   1_655 S
O891   C352    1.411   1_556 S
C892   H895    1.109   .     S
C892   H893    1.111   .     S
H894   C352    1.114   1_556 S
O896   C897    1.412   .     S
C897   H898    1.115   .     S
C897   H900    1.109   .     S
H899   C1077   1.110   .     S
C901   O933    1.298   .     A
C901   O934    1.285   .     A
C901   C911    1.442   .     S
C902   C903    1.417   .     A
C902   C364    1.424   1_556 S
C902   C380    1.417   1_556 S
C903   C910    1.419   .     A
C903   C907    1.413   .     A
C904   C908    1.400   .     A
C905   C906    1.392   .     A
C905   C364    1.418   1_556 S
C905   C376    1.403   1_556 S
C906   C907    1.387   .     A
C906   H925    1.084   .     S
C907   H930    1.081   .     S
C908   C917    1.397   .     A
C908   H927    1.077   .     S
C909   O941    1.384   .     S
C909   C917    1.409   .     A
C909   C916    1.401   .     A
C910   C918    1.403   .     A
C910   C912    1.473   .     S
C911   C553    1.336   1_565 S
C911   O596    1.398   1_565 S
C912   O936    1.299   .     A
C912   O935    1.303   .     A
C913   C914    1.429   .     S
C914   O938    1.290   .     A
C914   O937    1.289   .     A
C915   O939    1.299   .     A
C915   O940    1.300   .     A
C915   C917    1.467   .     S
C916   H986    1.084   .     S
C918   H928    1.084   .     S
C918   C919    1.391   .     A
C919   C380    1.400   1_556 S
C919   O1071   1.383   1_455 S
C920   H929    1.077   .     S
Cu921  O935    1.940   .     S
Cu921  O939    1.923   .     S
Cu921  N932    2.023   .     S
Cu921  O933    1.957   .     S
Cu921  O937    1.951   .     S
Cu921  Cu922   2.693   .     S
Cu922  O936    1.923   .     S
Cu922  O940    1.940   .     S
Cu922  O934    1.951   .     S
Cu922  O938    1.957   .     S
Cu922  N931    2.023   .     S
H923   C553    1.088   1_565 S
H924   N1051   1.029   1_455 S
H926   C1036   1.084   1_455 S
N931   H984    1.029   .     S
N931   N992    1.284   .     S
N932   N1051   1.284   1_455 S
N932   O1066   1.346   1_455 S
O941   C942    1.411   .     S
C942   H943    1.114   .     S
C942   H1004   1.110   .     S
C942   H1005   1.112   .     S
H944   C1062   1.110   1_455 S
H945   C1062   1.112   1_455 S
O946   N992    1.346   .     S
O946   C1007   1.401   .     S
C947   H949    1.113   .     S
C947   H948    1.108   .     S
C947   O1066   1.401   1_455 S
C947   H1070   1.109   1_455 S
H950   C1007   1.109   .     S
O951   C979    1.383   .     S
O951   C412    1.411   1_556 S
C952   H955    1.109   .     S
C952   H953    1.111   .     S
H954   C412    1.114   1_556 S
O956   C957    1.412   .     S
C957   H958    1.115   .     S
C957   H960    1.109   .     S
H959   C597    1.110   1_565 S
C961   O993    1.298   .     A
C961   O994    1.285   .     A
C961   C971    1.442   .     S
C962   C963    1.417   .     A
C962   C424    1.424   1_556 S
C962   C440    1.417   1_556 S
C963   C970    1.419   .     A
C963   C967    1.413   .     A
C964   C968    1.400   .     A
C965   C966    1.392   .     A
C965   C424    1.418   1_556 S
C965   C436    1.403   1_556 S
C966   C967    1.387   .     A
C966   H985    1.084   .     S
C967   H990    1.081   .     S
C968   C977    1.397   .     A
C968   H987    1.077   .     S
C969   O1001   1.384   .     S
C969   C977    1.409   .     A
C969   C976    1.401   .     A
C970   C978    1.403   .     A
C970   C972    1.473   .     S
C971   C613    1.336   1_565 S
C971   O656    1.398   1_565 S
C972   O996    1.299   .     A
C972   O995    1.303   .     A
C973   C974    1.429   .     S
C974   O998    1.290   .     A
C974   O997    1.289   .     A
C975   O999    1.299   .     A
C975   O1000   1.300   .     A
C975   C977    1.467   .     S
C976   H1046   1.084   .     S
C978   H988    1.084   .     S
C978   C979    1.391   .     A
C979   C440    1.400   1_556 S
C980   H989    1.077   .     S
Cu981  O995    1.940   .     S
Cu981  O999    1.923   .     S
Cu981  N992    2.023   .     S
Cu981  O993    1.957   .     S
Cu981  O997    1.951   .     S
Cu981  Cu982   2.693   .     S
Cu982  O996    1.923   .     S
Cu982  O1000   1.940   .     S
Cu982  O994    1.951   .     S
Cu982  O998    1.957   .     S
Cu982  N991    2.023   .     S
H983   C613    1.088   1_565 S
N991   H1044   1.029   .     S
N991   N1052   1.284   .     S
O1001  C1002   1.411   .     S
C1002  H1003   1.114   .     S
C1002  H1064   1.110   .     S
C1002  H1065   1.112   .     S
O1006  N1052   1.346   .     S
O1006  C1067   1.401   .     S
C1007  H1009   1.113   .     S
C1007  H1008   1.108   .     S
H1010  C1067   1.109   .     S
O1011  C1039   1.383   .     S
O1011  C472    1.411   1_556 S
C1012  H1015   1.109   .     S
C1012  H1013   1.111   .     S
H1014  C472    1.114   1_556 S
O1016  C1017   1.412   .     S
C1017  H1018   1.115   .     S
C1017  H1020   1.109   .     S
H1019  C657    1.110   1_565 S
C1021  O1053   1.298   .     A
C1021  O1054   1.285   .     A
C1021  C1031   1.442   .     S
C1022  C1023   1.417   .     A
C1022  C484    1.424   1_556 S
C1022  C500    1.417   1_556 S
C1023  C1030   1.419   .     A
C1023  C1027   1.413   .     A
C1024  C1028   1.400   .     A
C1025  C1026   1.392   .     A
C1025  C484    1.418   1_556 S
C1025  C496    1.403   1_556 S
C1026  C1027   1.387   .     A
C1026  H1045   1.084   .     S
C1027  H1050   1.081   .     S
C1028  C1037   1.397   .     A
C1028  H1047   1.077   .     S
C1029  O1061   1.384   .     S
C1029  C1037   1.409   .     A
C1029  C1036   1.401   .     A
C1030  C1038   1.403   .     A
C1030  C1032   1.473   .     S
C1031  C673    1.336   1_565 S
C1031  O716    1.398   1_565 S
C1032  O1056   1.299   .     A
C1032  O1055   1.303   .     A
C1033  C1034   1.429   .     S
C1034  O1058   1.290   .     A
C1034  O1057   1.289   .     A
C1035  O1059   1.299   .     A
C1035  O1060   1.300   .     A
C1035  C1037   1.467   .     S
C1036  H926    1.084   1_655 S
C1038  H1048   1.084   .     S
C1038  C1039   1.391   .     A
C1039  C500    1.400   1_556 S
C1040  H1049   1.077   .     S
Cu1041 O1055   1.940   .     S
Cu1041 O1059   1.923   .     S
Cu1041 N1052   2.023   .     S
Cu1041 O1053   1.957   .     S
Cu1041 O1057   1.951   .     S
Cu1041 Cu1042  2.693   .     S
Cu1042 O1056   1.923   .     S
Cu1042 O1060   1.940   .     S
Cu1042 O1054   1.951   .     S
Cu1042 O1058   1.957   .     S
Cu1042 N1051   2.023   .     S
H1043  C673    1.088   1_565 S
N1051  H924    1.029   1_655 S
N1051  N932    1.284   1_655 S
O1061  C1062   1.411   .     S
C1062  H1063   1.114   .     S
C1062  H944    1.110   1_655 S
C1062  H945    1.112   1_655 S
O1066  N932    1.346   1_655 S
O1066  C947    1.401   1_655 S
C1067  H1069   1.113   .     S
C1067  H1068   1.108   .     S
H1070  C947    1.109   1_655 S
O1071  C919    1.383   1_655 S
O1071  C532    1.411   1_556 S
C1072  H1075   1.109   .     S
C1072  H1073   1.111   .     S
H1074  C532    1.114   1_556 S
O1076  C1077   1.412   .     S
C1077  H1078   1.115   .     S
C1077  H1080   1.109   .     S
H1079  C717    1.110   1_565 S
